REMARK  Name = ZINC06106447
REMARK  9 active torsions:
REMARK  status: ('A' for Active; 'I' for Inactive)
REMARK    1  A    between atoms: C_1  and  C_2
REMARK    2  A    between atoms: C_3  and  C_7
REMARK    3  A    between atoms: C_10  and  S_13
REMARK    4  A    between atoms: N_11  and  C_12
REMARK    5  A    between atoms: S_13  and  C_14
REMARK    6  A    between atoms: C_14  and  C_15
REMARK    7  A    between atoms: C_23  and  C_27
REMARK    8  A    between atoms: C_27  and  O_29
REMARK    9  A    between atoms: O_29  and  C_30
REMARK                            x       y       z     vdW  Elec       q    Type
REMARK                         _______ _______ _______ _____ _____    ______ ____
ROOT
ATOM      1  C   UNL     1      -0.047   1.415   0.846  0.00  0.00    +0.121 A 
ATOM      2  N   UNL     1      -0.034   0.069   1.029  0.00  0.00    -0.310 N 
ATOM      3  H   UNL     1      -0.895  -0.440   1.022  0.00  0.00    +0.170 HD
ATOM      4  C   UNL     1       1.132  -0.590   1.220  0.00  0.00    +0.259 A 
ATOM      5  O   UNL     1       1.158  -1.796   1.385  0.00  0.00    -0.267 OA
ATOM      6  C   UNL     1       2.370   0.209   1.220  0.00  0.00    +0.065 A 
ATOM      7  C   UNL     1       3.621  -0.376   1.408  0.00  0.00    +0.016 A 
ATOM      8  C   UNL     1       4.743   0.403   1.401  0.00  0.00    +0.016 A 
ATOM      9  C   UNL     1       4.649   1.786   1.206  0.00  0.00    +0.061 A 
ATOM     10  C   UNL     1       3.411   2.389   1.017  0.00  0.00    +0.043 A 
ATOM     11  C   UNL     1       2.257   1.602   1.022  0.00  0.00    +0.079 A 
ATOM     12  N   UNL     1       1.027   2.145   0.842  0.00  0.00    -0.233 NA
ENDROOT
BRANCH   9  13
ATOM     13  C   UNL     1       5.876   2.612   1.201  0.00  0.00    +0.339 C 
ATOM     14  O   UNL     1       5.800   3.812   1.032  0.00  0.00    -0.245 OA
BRANCH  13  15
ATOM     15  O   UNL     1       7.079   2.033   1.384  0.00  0.00    -0.464 OA
ATOM     16  C   UNL     1       8.239   2.905   1.367  0.00  0.00    +0.280 C 
ENDBRANCH  13  15
ENDBRANCH   9  13
BRANCH   1  17
ATOM     17  C   UNL     1      -1.375   2.095   0.632  0.00  0.00    +0.151 C 
BRANCH  17  18
ATOM     18  S   UNL     1      -1.114   3.873   0.416  0.00  0.00    -0.078 S 
BRANCH  18  22
ATOM     19  C   UNL     1      -4.570   5.609  -0.138  0.00  0.00    +0.168 A 
ATOM     20  N   UNL     1      -4.900   4.346   0.002  0.00  0.00    -0.128 NA
ATOM     21  N   UNL     1      -3.846   3.635   0.190  0.00  0.00    -0.122 NA
ATOM     22  C   UNL     1      -2.780   4.401   0.191  0.00  0.00    +0.192 A 
ATOM     23  N   UNL     1      -3.202   5.684  -0.022  0.00  0.00    -0.305 N 
ATOM     24  C   UNL     1      -2.371   6.887  -0.108  0.00  0.00    +0.153 C 
BRANCH  19  27
ATOM     25  C   UNL     1      -7.255   6.164   1.382  0.00  0.00    +0.087 C 
ATOM     26  C   UNL     1      -6.663   6.994   0.272  0.00  0.00    +0.112 A 
ATOM     27  C   UNL     1      -5.496   6.738  -0.377  0.00  0.00    +0.060 A 
ATOM     28  C   UNL     1      -5.347   7.812  -1.367  0.00  0.00    +0.053 A 
ATOM     29  C   UNL     1      -6.422   8.604  -1.220  0.00  0.00    +0.196 A 
ATOM     30  O   UNL     1      -7.197   8.112  -0.241  0.00  0.00    -0.467 OA
ENDBRANCH  19  27
ENDBRANCH  18  22
ENDBRANCH  17  18
ENDBRANCH   1  17
TORSDOF 6
