REMARK  Name = ZINC64794050
REMARK  9 active torsions:
REMARK  status: ('A' for Active; 'I' for Inactive)
REMARK    1  A    between atoms: C_1  and  C_2
REMARK    2  A    between atoms: C_5  and  N_9
REMARK    3  A    between atoms: C_6  and  C_8
REMARK    4  A    between atoms: C_10  and  C_12
REMARK    5  A    between atoms: C_12  and  S_13
REMARK    6  A    between atoms: S_13  and  C_14
REMARK    7  A    between atoms: C_17  and  C_22
REMARK    8  A    between atoms: N_18  and  C_19
REMARK    9  A    between atoms: C_23  and  N_31
REMARK                            x       y       z     vdW  Elec       q    Type
REMARK                         _______ _______ _______ _____ _____    ______ ____
ROOT
ATOM      1  C   UNL     1      -0.415  -8.690  -2.725  0.00  0.00    +0.193 A 
ATOM      2  N   UNL     1      -0.383  -9.367  -1.601  0.00  0.00    -0.122 NA
ATOM      3  N   UNL     1      -0.402 -10.629  -1.842  0.00  0.00    -0.128 NA
ATOM      4  C   UNL     1      -0.446 -10.837  -3.141  0.00  0.00    +0.174 A 
ATOM      5  N   UNL     1      -0.463  -9.599  -3.746  0.00  0.00    -0.299 N 
ENDROOT
BRANCH   4   6
ATOM      6  C   UNL     1      -0.479 -12.141  -3.817  0.00  0.00    +0.080 A 
ATOM      7  C   UNL     1      -0.475 -13.382  -3.256  0.00  0.00    +0.052 A 
ATOM      8  C   UNL     1      -0.511 -14.544  -4.129  0.00  0.00    +0.029 A 
ATOM      9  C   UNL     1      -0.515 -15.917  -3.780  0.00  0.00    +0.014 A 
ATOM     10  C   UNL     1      -0.552 -16.859  -4.781  0.00  0.00    +0.020 A 
ATOM     11  C   UNL     1      -0.586 -16.469  -6.111  0.00  0.00    +0.112 A 
ATOM     12  N   UNL     1      -0.582 -15.189  -6.433  0.00  0.00    -0.248 NA
ATOM     13  C   UNL     1      -0.548 -14.252  -5.512  0.00  0.00    +0.111 A 
ATOM     14  S   UNL     1      -0.539 -12.477  -5.566  0.00  0.00    -0.064 S 
BRANCH   7  15
ATOM     15  N   UNL     1      -0.437 -13.536  -1.864  0.00  0.00    -0.356 N 
ATOM     16  H   UNL     1      -0.412 -12.754  -1.290  0.00  0.00    +0.142 HD
ATOM     17  H   UNL     1      -0.435 -14.424  -1.474  0.00  0.00    +0.142 HD
ENDBRANCH   7  15
ENDBRANCH   4   6
BRANCH   5  18
ATOM     18  C   UNL     1      -0.516  -9.316  -5.183  0.00  0.00    +0.091 C 
ATOM     19  C   UNL     1      -0.131  -7.908  -5.640  0.00  0.00    +0.027 C 
ATOM     20  C   UNL     1      -1.596  -8.349  -5.672  0.00  0.00    +0.027 C 
ENDBRANCH   5  18
BRANCH   1  21
ATOM     21  S   UNL     1      -0.406  -6.935  -2.889  0.00  0.00    -0.077 S 
BRANCH  21  22
ATOM     22  C   UNL     1      -0.335  -6.336  -1.178  0.00  0.00    +0.173 C 
BRANCH  22  24
ATOM     23  N   UNL     1      -0.271  -4.158  -0.006  0.00  0.00    -0.285 N 
ATOM     24  C   UNL     1      -0.322  -4.829  -1.174  0.00  0.00    +0.227 C 
ATOM     25  O   UNL     1      -0.357  -4.219  -2.222  0.00  0.00    -0.275 OA
ATOM     26  H   UNL     1      -0.174  -4.644   0.828  0.00  0.00    +0.155 HD
BRANCH  23  31
ATOM     27  C   UNL     1      -0.628   1.504   0.031  0.00  0.00    +0.044 C 
ATOM     28  C   UNL     1      -0.533  -0.000   0.021  0.00  0.00    -0.050 A 
ATOM     29  C   UNL     1       0.103  -0.645  -1.024  0.00  0.00    +0.005 A 
ATOM     30  C   UNL     1       0.191  -2.023  -1.036  0.00  0.00    +0.024 A 
ATOM     31  C   UNL     1      -0.359  -2.762   0.003  0.00  0.00    +0.036 A 
ATOM     32  C   UNL     1      -0.996  -2.112   1.052  0.00  0.00    -0.029 A 
ATOM     33  C   UNL     1      -1.077  -0.733   1.060  0.00  0.00    +0.008 A 
ATOM     34  C   UNL     1      -1.594  -2.909   2.182  0.00  0.00    +0.045 C 
ENDBRANCH  23  31
ENDBRANCH  22  24
ENDBRANCH  21  22
ENDBRANCH   1  21
TORSDOF 7
