REMARK  Name = ZINC45469338
REMARK  11 active torsions:
REMARK  status: ('A' for Active; 'I' for Inactive)
REMARK    1  A    between atoms: C_1  and  C_2
REMARK    2  A    between atoms: C_2  and  C_3
REMARK    3  A    between atoms: C_6  and  C_9
REMARK    4  A    between atoms: C_9  and  N_10
REMARK    5  A    between atoms: N_10  and  C_11
REMARK    6  A    between atoms: N_10  and  C_12
REMARK    7  A    between atoms: C_12  and  C_13
REMARK    8  A    between atoms: N_15  and  N_16
REMARK    9  A    between atoms: C_19  and  C_23
REMARK   10  A    between atoms: C_19  and  C_25
REMARK   11  A    between atoms: C_23  and  C_24
REMARK                            x       y       z     vdW  Elec       q    Type
REMARK                         _______ _______ _______ _____ _____    ______ ____
ROOT
ATOM      1  C   UNL     1       4.498  -0.002  -7.439  0.00  0.00    +0.213 C 
ATOM      2  O   UNL     1       4.261   1.123  -7.055  0.00  0.00    -0.276 OA
ATOM      3  N   UNL     1       5.261  -0.193  -8.534  0.00  0.00    -0.225 N 
ATOM      4  H   UNL     1       5.451  -1.094  -8.841  0.00  0.00    +0.173 HD
ENDROOT
BRANCH   3   5
ATOM      5  N   UNL     1       5.779   0.908  -9.228  0.00  0.00    -0.137 N 
ATOM      6  C   UNL     1       5.302   1.353 -10.407  0.00  0.00    +0.268 C 
ATOM      7  O   UNL     1       4.378   0.893 -11.043  0.00  0.00    -0.271 OA
ATOM      8  C   UNL     1       6.160   2.548 -10.772  0.00  0.00    +0.139 C 
ATOM      9  N   UNL     1       7.111   2.647  -9.651  0.00  0.00    -0.280 N 
ATOM     10  C   UNL     1       6.806   1.651  -8.799  0.00  0.00    +0.327 C 
ATOM     11  O   UNL     1       7.400   1.447  -7.758  0.00  0.00    -0.251 OA
ATOM     12  H   UNL     1       7.816   3.304  -9.546  0.00  0.00    +0.152 HD
BRANCH   8  13
ATOM     13  C   UNL     1       6.891   2.301 -12.066  0.00  0.00    -0.015 A 
ATOM     14  C   UNL     1       6.318   2.678 -13.267  0.00  0.00    +0.006 A 
ATOM     15  C   UNL     1       6.988   2.451 -14.454  0.00  0.00    +0.000 A 
ATOM     16  C   UNL     1       8.231   1.847 -14.441  0.00  0.00    +0.000 A 
ATOM     17  C   UNL     1       8.805   1.471 -13.241  0.00  0.00    +0.000 A 
ATOM     18  C   UNL     1       8.136   1.701 -12.053  0.00  0.00    +0.006 A 
ENDBRANCH   8  13
BRANCH   8  19
ATOM     19  C   UNL     1       5.307   3.814 -10.867  0.00  0.00    +0.037 C 
ATOM     20  C   UNL     1       4.721   4.139  -9.492  0.00  0.00    +0.007 C 
ENDBRANCH   8  19
ENDBRANCH   3   5
BRANCH   1  21
ATOM     21  C   UNL     1       3.941  -1.187  -6.693  0.00  0.00    +0.020 C 
BRANCH  21  22
ATOM     22  N   UNL     1       3.150  -0.716  -5.548  0.00  0.00    +0.386 N 
ATOM     23  C   UNL     1       1.978   0.025  -6.033  0.00  0.00    -0.095 C 
ATOM     24  H   UNL     1       3.717  -0.109  -4.974  0.00  0.00    -0.081 HD
BRANCH  22  25
ATOM     25  C   UNL     1       2.707  -1.868  -4.752  0.00  0.00    -0.043 C 
BRANCH  25  29
ATOM     26  C   UNL     1       0.707  -0.490  -1.238  0.00  0.00    -0.048 A 
ATOM     27  C   UNL     1      -0.011  -0.719  -2.397  0.00  0.00    +0.004 A 
ATOM     28  C   UNL     1       0.636  -1.164  -3.534  0.00  0.00    +0.002 A 
ATOM     29  C   UNL     1       2.002  -1.381  -3.513  0.00  0.00    -0.064 A 
ATOM     30  C   UNL     1       2.720  -1.152  -2.354  0.00  0.00    +0.002 A 
ATOM     31  C   UNL     1       2.073  -0.702  -1.218  0.00  0.00    +0.004 A 
BRANCH  26  33
ATOM     32  C   UNL     1      -0.019   1.526   0.010  0.00  0.00    +0.009 C 
ATOM     33  C   UNL     1       0.002  -0.004   0.002  0.00  0.00    +0.032 C 
ENDBRANCH  26  33
ENDBRANCH  25  29
ENDBRANCH  22  25
ENDBRANCH  21  22
ENDBRANCH   1  21
TORSDOF 8
