REMARK  Name = ZINC36765089
REMARK  4 active torsions:
REMARK  status: ('A' for Active; 'I' for Inactive)
REMARK    1  A    between atoms: C_2  and  C_11
REMARK    2  A    between atoms: C_11  and  C_13
REMARK    3  A    between atoms: C_11  and  N_22
REMARK    4  A    between atoms: C_15  and  C_18
REMARK                            x       y       z     vdW  Elec       q    Type
REMARK                         _______ _______ _______ _____ _____    ______ ____
ROOT
ATOM      1  C   UNL     1       1.147   3.596   0.010  0.00  0.00    +0.029 C 
ENDROOT
BRANCH   1   3
ATOM      2  C   UNL     1      -0.017   1.381   0.010  0.00  0.00    +0.052 A 
ATOM      3  C   UNL     1       1.171   2.090   0.002  0.00  0.00    -0.050 A 
ATOM      4  C   UNL     1       2.379   1.419  -0.013  0.00  0.00    +0.021 A 
ATOM      5  C   UNL     1       2.406   0.036  -0.021  0.00  0.00    +0.063 A 
ATOM      6  C   UNL     1       1.220  -0.680  -0.014  0.00  0.00    +0.180 A 
ATOM      7  C   UNL     1       0.002  -0.004   0.002  0.00  0.00    +0.168 A 
ATOM      8  O   UNL     1      -1.007  -0.923   0.006  0.00  0.00    -0.453 OA
ATOM      9  C   UNL     1      -0.404  -2.159  -0.419  0.00  0.00    +0.466 C 
ATOM     10  O   UNL     1       0.973  -2.023  -0.020  0.00  0.00    -0.451 OA
ATOM     11 BR   UNL     1       4.061  -0.877  -0.043  0.00  0.00    -0.046 Br
ENDBRANCH   1   3
BRANCH   1  12
ATOM     12  C   UNL     1       1.372   4.110  -1.388  0.00  0.00    +0.162 A 
ATOM     13  N   UNL     1       0.433   4.630  -2.187  0.00  0.00    -0.190 NA
ATOM     14  C   UNL     1       0.959   4.977  -3.329  0.00  0.00    +0.332 A 
ATOM     15  O   UNL     1       2.265   4.686  -3.295  0.00  0.00    -0.329 OA
ATOM     16  N   UNL     1       2.514   4.126  -2.014  0.00  0.00    -0.062 NA
BRANCH  14  17
ATOM     17  C   UNL     1       0.222   5.598  -4.488  0.00  0.00    +0.472 C 
ATOM     18  F   UNL     1       0.248   6.991  -4.364  0.00  0.00    -0.162 F 
ATOM     19  F   UNL     1       0.839   5.224  -5.687  0.00  0.00    -0.162 F 
ATOM     20  F   UNL     1      -1.105   5.155  -4.488  0.00  0.00    -0.162 F 
ENDBRANCH  14  17
ENDBRANCH   1  12
BRANCH   1  21
ATOM     21  N   UNL     1       2.209   4.098   0.893  0.00  0.00    +0.387 N 
ATOM     22  H   UNL     1       3.104   3.777   0.558  0.00  0.00    -0.089 HD
ATOM     23  H   UNL     1       2.193   5.107   0.899  0.00  0.00    -0.089 HD
ATOM     24  H   UNL     1       2.058   3.754   1.830  0.00  0.00    -0.089 HD
ENDBRANCH   1  21
TORSDOF 4
