REMARK  Name = ZINC39655970
REMARK  10 active torsions:
REMARK  status: ('A' for Active; 'I' for Inactive)
REMARK    1  A    between atoms: C_1  and  C_2
REMARK    2  A    between atoms: C_8  and  N_10
REMARK    3  A    between atoms: C_14  and  C_16
REMARK    4  A    between atoms: C_16  and  O_17
REMARK    5  A    between atoms: O_17  and  C_18
REMARK    6  A    between atoms: C_18  and  C_20
REMARK    7  A    between atoms: C_20  and  C_22
REMARK    8  A    between atoms: C_20  and  N_25
REMARK    9  A    between atoms: C_22  and  C_23
REMARK   10  A    between atoms: C_22  and  C_24
REMARK                            x       y       z     vdW  Elec       q    Type
REMARK                         _______ _______ _______ _____ _____    ______ ____
ROOT
ATOM      1  O   UNL     1       1.011   1.200   8.191  0.00  0.00    -0.454 OA
ENDROOT
BRANCH   1   2
ATOM      2  C   UNL     1       0.539   1.616   9.377  0.00  0.00    +0.329 C 
ATOM      3  O   UNL     1      -0.624   1.924   9.489  0.00  0.00    -0.249 OA
BRANCH   2   4
ATOM      4  C   UNL     1       1.458   1.700  10.568  0.00  0.00    +0.196 C 
BRANCH   4   5
ATOM      5  N   UNL     1       0.708   2.177  11.732  0.00  0.00    -0.220 N 
ATOM      6  C   UNL     1       0.072   3.361  11.794  0.00  0.00    +0.255 C 
ATOM      7  O   UNL     1       0.029   4.190  10.908  0.00  0.00    -0.270 OA
ATOM      8  C   UNL     1      -0.567   3.483  13.121  0.00  0.00    +0.049 A 
ATOM      9  C   UNL     1      -1.337   4.455  13.739  0.00  0.00    +0.014 A 
ATOM     10  C   UNL     1      -1.793   4.252  15.032  0.00  0.00    +0.001 A 
ATOM     11  C   UNL     1      -1.486   3.086  15.709  0.00  0.00    +0.001 A 
ATOM     12  C   UNL     1      -0.717   2.104  15.103  0.00  0.00    +0.014 A 
ATOM     13  C   UNL     1      -0.254   2.294  13.811  0.00  0.00    +0.049 A 
ATOM     14  C   UNL     1       0.560   1.488  12.877  0.00  0.00    +0.255 C 
ATOM     15  O   UNL     1       1.021   0.387  13.107  0.00  0.00    -0.270 OA
ENDBRANCH   4   5
BRANCH   4  16
ATOM     16  C   UNL     1       2.600   2.672  10.263  0.00  0.00    +0.015 C 
ATOM     17  C   UNL     1       3.534   2.757  11.472  0.00  0.00    +0.009 C 
ATOM     18  C   UNL     1       3.384   2.173   9.047  0.00  0.00    +0.009 C 
ENDBRANCH   4  16
ENDBRANCH   2   4
ENDBRANCH   1   2
BRANCH   1  19
ATOM     19  C   UNL     1       0.083   1.145   7.106  0.00  0.00    +0.328 C 
BRANCH  19  24
ATOM     20  N   UNL     1       0.056  -0.038   2.447  0.00  0.00    -0.296 N 
ATOM     21  C   UNL     1       0.738   0.093   3.602  0.00  0.00    +0.306 C 
ATOM     22  O   UNL     1       1.921  -0.180   3.644  0.00  0.00    -0.252 OA
ATOM     23  N   UNL     1       0.107   0.528   4.711  0.00  0.00    -0.237 N 
ATOM     24  C   UNL     1       0.789   0.659   5.866  0.00  0.00    +0.258 C 
ATOM     25  O   UNL     1       1.969   0.387   5.908  0.00  0.00    -0.272 OA
ATOM     26  H   UNL     1      -0.888   0.180   2.413  0.00  0.00    +0.151 HD
ATOM     27  H   UNL     1      -0.838   0.746   4.678  0.00  0.00    +0.159 HD
BRANCH  20  34
ATOM     28  C   UNL     1      -0.019   1.526   0.010  0.00  0.00    +0.009 C 
ATOM     29  C   UNL     1       0.002  -0.004   0.002  0.00  0.00    +0.006 C 
ATOM     30  C   UNL     1      -1.433  -0.534   0.013  0.00  0.00    +0.005 C 
ATOM     31  C   UNL     1      -1.413  -2.063   0.004  0.00  0.00    +0.000 C 
ATOM     32  C   UNL     1      -0.673  -2.570   1.244  0.00  0.00    +0.002 C 
ATOM     33  C   UNL     1       0.763  -2.041   1.233  0.00  0.00    +0.022 C 
ATOM     34  C   UNL     1       0.742  -0.511   1.242  0.00  0.00    +0.077 C 
ENDBRANCH  20  34
ENDBRANCH  19  24
ENDBRANCH   1  19
TORSDOF 7
