REMARK  Name = ZINC20057259
REMARK  12 active torsions:
REMARK  status: ('A' for Active; 'I' for Inactive)
REMARK    1  A    between atoms: C_1  and  C_2
REMARK    2  A    between atoms: C_2  and  O_3
REMARK    3  A    between atoms: O_3  and  C_4
REMARK    4  A    between atoms: C_7  and  C_10
REMARK    5  A    between atoms: N_13  and  C_34
REMARK    6  A    between atoms: C_18  and  N_33
REMARK    7  A    between atoms: C_19  and  C_31
REMARK    8  A    between atoms: C_20  and  C_22
REMARK    9  A    between atoms: C_25  and  O_28
REMARK   10  A    between atoms: O_28  and  C_29
REMARK   11  A    between atoms: C_29  and  C_30
REMARK   12  A    between atoms: C_34  and  C_35
REMARK                            x       y       z     vdW  Elec       q    Type
REMARK                         _______ _______ _______ _____ _____    ______ ____
ROOT
ATOM      1  C   UNL     1       3.629   6.533   2.289  0.00  0.00    +0.016 C 
ATOM      2  C   UNL     1       3.734   5.194   2.350  0.00  0.00    +0.010 C 
ATOM      3  C   UNL     1       4.196   4.498   3.614  0.00  0.00    +0.124 C 
ATOM      4  N   UNL     1       5.101   3.411   3.200  0.00  0.00    -0.290 NA
ATOM      5  C   UNL     1       4.385   2.418   2.397  0.00  0.00    +0.120 C 
ATOM      6  C   UNL     1       3.714   3.049   1.204  0.00  0.00    -0.001 C 
ATOM      7  C   UNL     1       3.402   4.346   1.187  0.00  0.00    +0.136 C 
ATOM      8  O   UNL     1       2.784   4.918   0.124  0.00  0.00    -0.441 OA
ATOM      9  C   UNL     1       2.840   4.329  -1.083  0.00  0.00    +0.199 C 
ATOM     10  C   UNL     1       3.128   3.009  -1.199  0.00  0.00    +0.098 C 
ATOM     11  C   UNL     1       3.391   2.171   0.019  0.00  0.00    +0.095 C 
ENDROOT
BRANCH   1  15
ATOM     12  C   UNL     1       4.117   8.861   5.804  0.00  0.00    +0.121 A 
ATOM     13  C   UNL     1       3.449   7.645   5.867  0.00  0.00    +0.046 A 
ATOM     14  C   UNL     1       3.288   6.885   4.729  0.00  0.00    +0.011 A 
ATOM     15  C   UNL     1       3.798   7.341   3.509  0.00  0.00    -0.024 A 
ATOM     16  C   UNL     1       4.474   8.564   3.452  0.00  0.00    +0.011 A 
ATOM     17  C   UNL     1       4.625   9.319   4.595  0.00  0.00    +0.046 A 
BRANCH  12  18
ATOM     18  O   UNL     1       4.273   9.607   6.929  0.00  0.00    -0.492 OA
BRANCH  18  20
ATOM     19  C   UNL     1       5.045  11.540   8.156  0.00  0.00    +0.048 C 
ATOM     20  C   UNL     1       4.969  10.847   6.794  0.00  0.00    +0.225 C 
ENDBRANCH  18  20
ENDBRANCH  12  18
ENDBRANCH   1  15
BRANCH  11  21
ATOM     21  C   UNL     1       2.169   1.345   0.329  0.00  0.00    -0.035 A 
ATOM     22  C   UNL     1       0.970   1.970   0.622  0.00  0.00    +0.008 A 
ATOM     23  C   UNL     1      -0.152   1.216   0.906  0.00  0.00    +0.046 A 
ATOM     24  C   UNL     1      -0.075  -0.169   0.898  0.00  0.00    +0.121 A 
ATOM     25  C   UNL     1       1.128  -0.794   0.604  0.00  0.00    +0.046 A 
ATOM     26  C   UNL     1       2.247  -0.035   0.320  0.00  0.00    +0.008 A 
BRANCH  24  27
ATOM     27  O   UNL     1      -1.177  -0.913   1.178  0.00  0.00    -0.492 OA
BRANCH  27  28
ATOM     28  C   UNL     1      -1.025  -2.334   1.151  0.00  0.00    +0.225 C 
ATOM     29  C   UNL     1      -2.362  -2.997   1.489  0.00  0.00    +0.048 C 
ENDBRANCH  27  28
ENDBRANCH  24  27
ENDBRANCH  11  21
BRANCH   9  30
ATOM     30  N   UNL     1       2.602   5.073  -2.211  0.00  0.00    -0.328 N 
ATOM     31  H   UNL     1       2.646   4.598  -3.203  0.00  0.00    +0.145 HD
ATOM     32  H   UNL     1       2.368   6.144  -2.125  0.00  0.00    +0.145 HD
ENDBRANCH   9  30
BRANCH  10  33
ATOM     33  C   UNL     1       3.184   2.408  -2.498  0.00  0.00    +0.101 C 
ATOM     34  N   UNL     1       3.227   1.931  -3.528  0.00  0.00    -0.191 NA
ENDBRANCH  10  33
BRANCH   4  35
ATOM     35  C   UNL     1       5.738   2.785   4.366  0.00  0.00    +0.120 C 
BRANCH  35  36
ATOM     36  C   UNL     1       6.382   3.848   5.218  0.00  0.00    -0.033 A 
ATOM     37  C   UNL     1       7.653   4.301   4.915  0.00  0.00    +0.005 A 
ATOM     38  C   UNL     1       8.242   5.279   5.694  0.00  0.00    +0.000 A 
ATOM     39  C   UNL     1       7.564   5.798   6.782  0.00  0.00    +0.000 A 
ATOM     40  C   UNL     1       6.296   5.341   7.088  0.00  0.00    +0.000 A 
ATOM     41  C   UNL     1       5.705   4.366   6.306  0.00  0.00    +0.005 A 
ENDBRANCH  35  36
ENDBRANCH   4  35
TORSDOF 10
