REMARK  Name = ZINC64352633
REMARK  4 active torsions:
REMARK  status: ('A' for Active; 'I' for Inactive)
REMARK    1  A    between atoms: C_1  and  C_2
REMARK    2  A    between atoms: C_12  and  C_16
REMARK    3  A    between atoms: N_20  and  S_23
REMARK    4  A    between atoms: S_23  and  C_26
REMARK                            x       y       z     vdW  Elec       q    Type
REMARK                         _______ _______ _______ _____ _____    ______ ____
ROOT
ATOM      1  C   UNL     1      -2.448  -1.180   1.386  0.00  0.00    +0.088 C 
ATOM      2  C   UNL     1      -1.137  -1.263   0.648  0.00  0.00    +0.129 A 
ATOM      3  N   UNL     1      -1.095  -1.859  -0.531  0.00  0.00    -0.217 NA
ATOM      4  C   UNL     1       0.024  -1.965  -1.228  0.00  0.00    +0.133 A 
ATOM      5  C   UNL     1       1.225  -1.419  -0.697  0.00  0.00    +0.051 A 
ATOM      6  C   UNL     1       2.567  -1.414  -1.281  0.00  0.00    -0.025 A 
ATOM      7  C   UNL     1       3.545  -0.824  -0.563  0.00  0.00    -0.004 A 
ATOM      8  S   UNL     1       2.751  -0.248   0.914  0.00  0.00    -0.073 S 
ATOM      9  C   UNL     1       1.102  -0.800   0.564  0.00  0.00    +0.114 A 
ATOM     10  N   UNL     1      -0.057  -0.735   1.190  0.00  0.00    -0.225 NA
ATOM     11  C   UNL     1       4.989  -0.687  -0.938  0.00  0.00    +0.046 C 
ATOM     12  C   UNL     1       5.132  -0.989  -2.436  0.00  0.00    -0.009 C 
ATOM     13  C   UNL     1       4.374  -2.282  -2.750  0.00  0.00    +0.008 C 
ATOM     14  C   UNL     1       2.868  -2.041  -2.640  0.00  0.00    +0.037 C 
ATOM     15  C   UNL     1       6.612  -1.160  -2.787  0.00  0.00    +0.008 C 
ATOM     16  N   UNL     1       0.026  -2.597  -2.459  0.00  0.00    -0.312 N 
ATOM     17  C   UNL     1       0.151  -4.059  -2.548  0.00  0.00    +0.123 C 
ATOM     18  C   UNL     1      -1.036  -4.604  -3.352  0.00  0.00    +0.128 C 
ATOM     19  N   UNL     1      -1.159  -3.826  -4.593  0.00  0.00    -0.174 NA
ATOM     20  C   UNL     1      -1.284  -2.365  -4.504  0.00  0.00    +0.128 C 
ATOM     21  C   UNL     1      -0.102  -1.820  -3.699  0.00  0.00    +0.123 C 
ENDROOT
BRANCH  19  22
ATOM     22  S   UNL     1      -1.157  -4.584  -6.066  0.00  0.00    +0.061 S 
ATOM     23  O   UNL     1      -0.730  -3.619  -7.018  0.00  0.00    -0.153 OA
ATOM     24  O   UNL     1      -0.486  -5.823  -5.884  0.00  0.00    -0.153 OA
BRANCH  22  25
ATOM     25  C   UNL     1      -2.831  -4.970  -6.456  0.00  0.00    +0.107 A 
ATOM     26  C   UNL     1      -3.379  -6.251  -6.027  0.00  0.00    +0.030 A 
ATOM     27  C   UNL     1      -4.654  -6.609  -6.292  0.00  0.00    +0.027 A 
ATOM     28  C   UNL     1      -5.521  -5.693  -7.032  0.00  0.00    +0.056 A 
ATOM     29  N   UNL     1      -6.764  -5.727  -7.443  0.00  0.00    -0.268 N 
ATOM     30  C   UNL     1      -7.035  -4.552  -8.103  0.00  0.00    +0.308 C 
ATOM     31  O   UNL     1      -8.100  -4.265  -8.608  0.00  0.00    -0.252 OA
ATOM     32  N   UNL     1      -5.917  -3.751  -8.105  0.00  0.00    -0.267 N 
ATOM     33  C   UNL     1      -4.958  -4.378  -7.473  0.00  0.00    +0.058 A 
ATOM     34  C   UNL     1      -3.569  -4.068  -7.138  0.00  0.00    +0.053 A 
ATOM     35  H   UNL     1      -5.851  -2.870  -8.507  0.00  0.00    +0.156 HD
ATOM     36  H   UNL     1      -7.387  -6.458  -7.306  0.00  0.00    +0.156 HD
ENDBRANCH  22  25
ENDBRANCH  19  22
TORSDOF 2
