REMARK  Name = ZINC12662516
REMARK  7 active torsions:
REMARK  status: ('A' for Active; 'I' for Inactive)
REMARK    1  A    between atoms: C_1  and  C_2
REMARK    2  A    between atoms: C_7  and  N_8
REMARK    3  A    between atoms: C_13  and  C_14
REMARK    4  A    between atoms: C_13  and  N_67
REMARK    5  A    between atoms: C_25  and  C_32
REMARK    6  A    between atoms: C_27  and  C_31
REMARK    7  A    between atoms: C_28  and  O_30
REMARK                            x       y       z     vdW  Elec       q    Type
REMARK                         _______ _______ _______ _____ _____    ______ ____
ROOT
ATOM      1  C   UNL     1      -2.626   2.714  -1.617  0.00  0.00    +0.090 C 
ATOM      2  C   UNL     1      -2.090   1.442  -2.268  0.00  0.00    +0.071 C 
ATOM      3  C   UNL     1      -1.608   0.611  -1.149  0.00  0.00    +0.187 C 
ATOM      4  C   UNL     1      -0.093   0.759  -1.015  0.00  0.00    +0.076 C 
ATOM      5  C   UNL     1       0.575   0.405  -2.397  0.00  0.00    -0.061 C 
ATOM      6  C   UNL     1       1.294  -0.608  -2.525  0.00  0.00    -0.027 C 
ATOM      7  C   UNL     1       1.848  -1.045  -3.774  0.00  0.00    +0.027 C 
ATOM      8  C   UNL     1       0.897  -0.624  -4.899  0.00  0.00    +0.008 C 
ATOM      9  C   UNL     1       0.743   0.908  -4.770  0.00  0.00    -0.001 C 
ATOM     10  C   UNL     1       0.161   1.403  -3.505  0.00  0.00    +0.018 C 
ATOM     11  C   UNL     1      -1.300   1.545  -3.557  0.00  0.00    +0.132 C 
ATOM     12  C   UNL     1       0.915   2.743  -3.150  0.00  0.00    +0.018 C 
ATOM     13  C   UNL     1       0.010   1.421  -5.975  0.00  0.00    +0.008 C 
ATOM     14  O   UNL     1      -2.210   1.112   0.024  0.00  0.00    -0.460 OA
ATOM     15  C   UNL     1      -2.956   2.208  -0.149  0.00  0.00    +0.309 C 
ATOM     16  O   UNL     1      -3.656   2.717   0.595  0.00  0.00    -0.251 OA
ENDROOT
BRANCH  11  17
ATOM     17  O   UNL     1      -1.574   2.882  -4.175  0.00  0.00    -0.391 OA
ATOM     18  H   UNL     1      -2.514   3.089  -4.262  0.00  0.00    +0.210 HD
ENDBRANCH  11  17
BRANCH   1  19
ATOM     19  C   UNL     1      -1.619   3.812  -1.514  0.00  0.00    -0.064 C 
BRANCH  19  25
ATOM     20  N   UNL     1      -2.965   7.781  -0.979  0.00  0.00    -0.333 N 
ATOM     21  C   UNL     1      -1.975   7.256  -0.029  0.00  0.00    +0.086 C 
ATOM     22  C   UNL     1      -1.269   6.047  -0.647  0.00  0.00    -0.060 C 
ATOM     23  C   UNL     1      -3.256   5.547  -1.936  0.00  0.00    -0.060 C 
ATOM     24  C   UNL     1      -3.961   6.756  -1.318  0.00  0.00    +0.086 C 
ATOM     25  N   UNL     1      -2.280   5.015  -0.962  0.00  0.00    +0.382 N 
ATOM     26  H   UNL     1      -2.774   4.758  -0.100  0.00  0.00    -0.082 HD
BRANCH  20  33
ATOM     27  C   UNL     1      -2.542  10.236  -2.352  0.00  0.00    +0.045 C 
ATOM     28  C   UNL     1      -3.400  10.151  -1.116  0.00  0.00    -0.029 A 
ATOM     29  C   UNL     1      -4.013  11.285  -0.620  0.00  0.00    +0.006 A 
ATOM     30  C   UNL     1      -4.796  11.209   0.516  0.00  0.00    +0.020 A 
ATOM     31  C   UNL     1      -4.973   9.996   1.159  0.00  0.00    +0.043 A 
ATOM     32  C   UNL     1      -4.366   8.857   0.665  0.00  0.00    +0.043 A 
ATOM     33  C   UNL     1      -3.579   8.931  -0.477  0.00  0.00    +0.034 A 
ATOM     34 CL   UNL     1      -5.957   9.905   2.586  0.00  0.00    -0.083 Cl
ENDBRANCH  20  33
ENDBRANCH  19  25
ENDBRANCH   1  19
TORSDOF 4
