REMARK  Name = ZINC38531046
REMARK  6 active torsions:
REMARK  status: ('A' for Active; 'I' for Inactive)
REMARK    1  A    between atoms: C_1  and  C_2
REMARK    2  A    between atoms: C_7  and  C_10
REMARK    3  A    between atoms: C_13  and  N_17
REMARK    4  A    between atoms: N_20  and  S_23
REMARK    5  A    between atoms: S_23  and  C_26
REMARK    6  A    between atoms: C_28  and  N_33
REMARK                            x       y       z     vdW  Elec       q    Type
REMARK                         _______ _______ _______ _____ _____    ______ ____
ROOT
ATOM      1  N   UNL     1       2.153   1.869  -5.540  0.00  0.00    -0.313 N 
ATOM      2  C   UNL     1       2.922   2.358  -6.692  0.00  0.00    +0.123 C 
ATOM      3  C   UNL     1       2.592   1.484  -7.909  0.00  0.00    +0.128 C 
ATOM      4  N   UNL     1       1.131   1.377  -8.027  0.00  0.00    -0.174 NA
ATOM      5  C   UNL     1       0.362   0.887  -6.874  0.00  0.00    +0.128 C 
ATOM      6  C   UNL     1       0.692   1.756  -5.660  0.00  0.00    +0.123 C 
ENDROOT
BRANCH   1  17
ATOM      7  C   UNL     1       0.286   1.523   0.309  0.00  0.00    +0.039 C 
ATOM      8  C   UNL     1       0.143   0.008   0.150  0.00  0.00    +0.133 C 
ATOM      9  C   UNL     1       0.710  -0.420  -1.208  0.00  0.00    +0.138 C 
ATOM     10  N   UNL     1       2.167  -0.211  -1.189  0.00  0.00    -0.310 N 
ATOM     11  C   UNL     1       2.930  -0.761  -0.058  0.00  0.00    +0.138 C 
ATOM     12  C   UNL     1       2.255  -0.316   1.244  0.00  0.00    +0.133 C 
ATOM     13  O   UNL     1       0.865  -0.652   1.192  0.00  0.00    -0.371 OA
ATOM     14  C   UNL     1       2.910  -1.028   2.429  0.00  0.00    +0.039 C 
ATOM     15  C   UNL     1       2.801   0.484  -2.208  0.00  0.00    +0.126 A 
ATOM     16  C   UNL     1       2.113   0.817  -3.371  0.00  0.00    +0.087 A 
ATOM     17  C   UNL     1       2.794   1.515  -4.362  0.00  0.00    +0.126 A 
ATOM     18  N   UNL     1       4.071   1.839  -4.165  0.00  0.00    -0.221 NA
ATOM     19  C   UNL     1       4.687   1.506  -3.049  0.00  0.00    +0.225 A 
ATOM     20  N   UNL     1       4.076   0.849  -2.084  0.00  0.00    -0.221 NA
ENDBRANCH   1  17
BRANCH   4  21
ATOM     21  S   UNL     1       0.365   1.799  -9.433  0.00  0.00    +0.062 S 
ATOM     22  O   UNL     1      -0.973   2.125  -9.085  0.00  0.00    -0.153 OA
ATOM     23  O   UNL     1       1.222   2.714 -10.103  0.00  0.00    -0.153 OA
BRANCH  21  24
ATOM     24  C   UNL     1       0.287   0.354 -10.438  0.00  0.00    +0.126 A 
ATOM     25  C   UNL     1      -0.939  -0.202 -10.754  0.00  0.00    +0.062 A 
ATOM     26  C   UNL     1      -1.001  -1.336 -11.542  0.00  0.00    +0.128 A 
ATOM     27  C   UNL     1       0.163  -1.915 -12.014  0.00  0.00    +0.034 A 
ATOM     28  C   UNL     1       1.388  -1.359 -11.700  0.00  0.00    +0.024 A 
ATOM     29  C   UNL     1       1.451  -0.221 -10.916  0.00  0.00    +0.067 A 
ATOM     30 CL   UNL     1       2.990   0.482 -10.526  0.00  0.00    -0.082 Cl
BRANCH  26  31
ATOM     31  N   UNL     1      -2.313  -1.932 -11.879  0.00  0.00    +0.056 N 
ATOM     32  O   UNL     1      -3.330  -1.426 -11.466  0.00  0.00    -0.126 OA
ATOM     33  O   UNL     1      -2.367  -2.924 -12.568  0.00  0.00    -0.126 OA
ENDBRANCH  26  31
ENDBRANCH  21  24
ENDBRANCH   4  21
TORSDOF 4
