REMARK  Name = ZINC09891891
REMARK  5 active torsions:
REMARK  status: ('A' for Active; 'I' for Inactive)
REMARK    1  A    between atoms: C_6  and  C_7
REMARK    2  A    between atoms: N_12  and  C_15
REMARK    3  A    between atoms: C_18  and  C_24
REMARK    4  A    between atoms: C_20  and  N_21
REMARK    5  A    between atoms: N_26  and  C_27
REMARK                            x       y       z     vdW  Elec       q    Type
REMARK                         _______ _______ _______ _____ _____    ______ ____
ROOT
ATOM      1  C   UNL     1       0.106   9.867   1.048  0.00  0.00    +0.060 A 
ATOM      2  C   UNL     1       1.154   9.966   1.960  0.00  0.00    +0.026 A 
ATOM      3  C   UNL     1       1.828   8.835   2.361  0.00  0.00    +0.015 A 
ATOM      4  C   UNL     1       1.468   7.588   1.843  0.00  0.00    +0.039 A 
ATOM      5  C   UNL     1       0.415   7.492   0.928  0.00  0.00    +0.047 A 
ATOM      6  C   UNL     1      -0.259   8.625   0.535  0.00  0.00    +0.148 A 
ENDROOT
BRANCH   1  12
ATOM      7  C   UNL     1      -1.245  15.030   0.639  0.00  0.00    +0.247 C 
ATOM      8  O   UNL     1      -0.500  15.725  -0.023  0.00  0.00    -0.270 OA
ATOM      9  N   UNL     1      -1.282  13.698   0.435  0.00  0.00    -0.295 N 
ATOM     10  C   UNL     1      -2.088  12.824   1.301  0.00  0.00    +0.127 C 
ATOM     11  C   UNL     1      -1.200  11.679   1.800  0.00  0.00    +0.124 C 
ATOM     12  N   UNL     1      -0.577  11.010   0.650  0.00  0.00    -0.325 N 
ATOM     13  C   UNL     1       0.309  11.925  -0.082  0.00  0.00    +0.124 C 
ATOM     14  C   UNL     1      -0.516  13.080  -0.658  0.00  0.00    +0.127 C 
BRANCH   7  20
ATOM     15  C   UNL     1      -3.371  15.107   1.934  0.00  0.00    +0.014 A 
ATOM     16  C   UNL     1      -4.172  15.681   2.899  0.00  0.00    +0.021 A 
ATOM     17  C   UNL     1      -3.733  16.796   3.594  0.00  0.00    +0.041 A 
ATOM     18  C   UNL     1      -2.486  17.337   3.329  0.00  0.00    +0.021 A 
ATOM     19  C   UNL     1      -1.673  16.768   2.371  0.00  0.00    +0.014 A 
ATOM     20  C   UNL     1      -2.111  15.644   1.667  0.00  0.00    +0.037 A 
ATOM     21 CL   UNL     1      -4.750  17.517   4.802  0.00  0.00    -0.084 Cl
ENDBRANCH   7  20
ENDBRANCH   1  12
BRANCH   4  22
ATOM     22  C   UNL     1       2.192   6.375   2.266  0.00  0.00    +0.245 C 
ATOM     23  O   UNL     1       1.875   5.289   1.818  0.00  0.00    -0.270 OA
ATOM     24  N   UNL     1       3.207   6.469   3.149  0.00  0.00    -0.306 N 
ATOM     25  H   UNL     1       3.460   7.334   3.506  0.00  0.00    +0.150 HD
BRANCH  24  26
ATOM     26  C   UNL     1       3.926   5.264   3.569  0.00  0.00    +0.036 C 
ATOM     27  C   UNL     1       4.561   4.597   2.347  0.00  0.00    +0.029 C 
ATOM     28  C   UNL     1       5.312   3.338   2.785  0.00  0.00    -0.008 C 
ATOM     29  C   UNL     1       6.407   3.720   3.784  0.00  0.00    +0.007 C 
ATOM     30  C   UNL     1       5.773   4.387   5.006  0.00  0.00    -0.008 C 
ATOM     31  C   UNL     1       5.021   5.646   4.567  0.00  0.00    +0.029 C 
ATOM     32  C   UNL     1       4.795   3.414   5.668  0.00  0.00    +0.007 C 
ATOM     33  C   UNL     1       3.701   3.032   4.670  0.00  0.00    -0.008 C 
ATOM     34  C   UNL     1       4.335   2.365   3.448  0.00  0.00    +0.007 C 
ATOM     35  C   UNL     1       2.949   4.291   4.231  0.00  0.00    +0.029 C 
ENDBRANCH  24  26
ENDBRANCH   4  22
BRANCH   6  36
ATOM     36  N   UNL     1      -1.373   8.525  -0.435  0.00  0.00    +0.058 N 
ATOM     37  O   UNL     1      -1.692   7.439  -0.884  0.00  0.00    -0.126 OA
ATOM     38  O   UNL     1      -1.970   9.528  -0.783  0.00  0.00    -0.126 OA
ENDBRANCH   6  36
TORSDOF 5
