REMARK  Name = ZINC43641405
REMARK  4 active torsions:
REMARK  status: ('A' for Active; 'I' for Inactive)
REMARK    1  A    between atoms: C_1  and  C_2
REMARK    2  A    between atoms: N_4  and  C_5
REMARK    3  A    between atoms: C_8  and  C_10
REMARK    4  A    between atoms: N_16  and  C_24
REMARK                            x       y       z     vdW  Elec       q    Type
REMARK                         _______ _______ _______ _____ _____    ______ ____
ROOT
ATOM      1  C   UNL     1      -2.070  -6.175  -0.017  0.00  0.00    -0.029 C 
ATOM      2  C   UNL     1      -2.560  -6.568  -1.435  0.00  0.00    -0.006 C 
ATOM      3  C   UNL     1      -3.551  -7.715  -1.116  0.00  0.00    +0.003 C 
ATOM      4  C   UNL     1      -4.720  -7.678  -2.118  0.00  0.00    +0.110 C 
ATOM      5  N   UNL     1      -5.725  -6.778  -1.542  0.00  0.00    -0.299 N 
ATOM      6  C   UNL     1      -5.487  -6.546  -0.239  0.00  0.00    +0.206 C 
ATOM      7  O   UNL     1      -6.196  -5.880   0.486  0.00  0.00    -0.277 OA
ATOM      8  C   UNL     1      -4.204  -7.239   0.204  0.00  0.00    +0.018 C 
ATOM      9  N   UNL     1      -3.261  -6.306   0.850  0.00  0.00    +0.394 N 
ATOM     10  C   UNL     1      -2.855  -6.895   2.147  0.00  0.00    -0.077 C 
ATOM     11  C   UNL     1      -4.025  -7.832   2.540  0.00  0.00    -0.019 C 
ATOM     12  C   UNL     1      -4.445  -8.412   1.158  0.00  0.00    -0.004 C 
ATOM     13  H   UNL     1      -3.696  -5.406   0.987  0.00  0.00    -0.079 HD
ENDROOT
BRANCH   5  14
ATOM     14  C   UNL     1      -6.845  -6.205  -2.292  0.00  0.00    +0.085 C 
ATOM     15  C   UNL     1      -6.880  -4.669  -2.137  0.00  0.00    +0.058 C 
ATOM     16  C   UNL     1      -8.350  -4.307  -2.113  0.00  0.00    -0.042 A 
ATOM     17  C   UNL     1      -8.977  -3.088  -2.308  0.00  0.00    +0.004 A 
ATOM     18  C   UNL     1     -10.353  -2.994  -2.239  0.00  0.00    +0.000 A 
ATOM     19  C   UNL     1     -11.108  -4.122  -1.972  0.00  0.00    +0.000 A 
ATOM     20  C   UNL     1     -10.485  -5.338  -1.777  0.00  0.00    +0.004 A 
ATOM     21  C   UNL     1      -9.104  -5.434  -1.847  0.00  0.00    -0.042 A 
ATOM     22  C   UNL     1      -8.194  -6.630  -1.674  0.00  0.00    +0.058 C 
ENDBRANCH   5  14
BRANCH   1  26
ATOM     23  C   UNL     1      -1.137  -2.091   0.002  0.00  0.00    +0.072 A 
ATOM     24  C   UNL     1      -0.067  -2.935  -0.007  0.00  0.00    +0.031 A 
ATOM     25  C   UNL     1      -0.295  -4.299  -0.014  0.00  0.00    +0.011 A 
ATOM     26  C   UNL     1      -1.571  -4.753  -0.011  0.00  0.00    -0.022 A 
ATOM     27  S   UNL     1      -2.508  -3.234   0.009  0.00  0.00    -0.080 S 
BRANCH  23  31
ATOM     28  C   UNL     1      -0.018   1.503   0.010  0.00  0.00    +0.109 C 
ATOM     29  C   UNL     1       0.002  -0.004   0.002  0.00  0.00    +0.214 C 
ATOM     30  O   UNL     1       1.061  -0.596  -0.011  0.00  0.00    -0.276 OA
ATOM     31  N   UNL     1      -1.156  -0.694   0.009  0.00  0.00    -0.280 N 
ATOM     32  H   UNL     1      -2.002  -0.220   0.020  0.00  0.00    +0.155 HD
ENDBRANCH  23  31
ENDBRANCH   1  26
TORSDOF 3
