REMARK  Name = ZINC44713664
REMARK  8 active torsions:
REMARK  status: ('A' for Active; 'I' for Inactive)
REMARK    1  A    between atoms: C_1  and  C_2
REMARK    2  A    between atoms: C_3  and  C_9
REMARK    3  A    between atoms: C_4  and  C_8
REMARK    4  A    between atoms: C_9  and  C_11
REMARK    5  A    between atoms: C_9  and  N_12
REMARK    6  A    between atoms: C_13  and  C_15
REMARK    7  A    between atoms: C_26  and  C_28
REMARK    8  A    between atoms: C_34  and  C_36
REMARK                            x       y       z     vdW  Elec       q    Type
REMARK                         _______ _______ _______ _____ _____    ______ ____
ROOT
ATOM      1  C   UNL     1       2.526  -1.343  -5.213  0.00  0.00    +0.100 C 
ATOM      2  C   UNL     1       1.927  -2.694  -5.663  0.00  0.00    +0.121 C 
ATOM      3  N   UNL     1       1.417  -2.441  -7.031  0.00  0.00    -0.299 N 
ATOM      4  C   UNL     1       2.442  -1.566  -7.650  0.00  0.00    +0.115 C 
ATOM      5  C   UNL     1       2.866  -0.607  -6.520  0.00  0.00    -0.004 C 
ATOM      6  C   UNL     1       4.364  -0.331  -6.596  0.00  0.00    -0.010 C 
ATOM      7  C   UNL     1       4.670   0.453  -7.876  0.00  0.00    -0.082 C 
ATOM      8  N   UNL     1       3.919   1.714  -7.871  0.00  0.00    +0.379 N 
ATOM      9  C   UNL     1       2.478   1.438  -7.892  0.00  0.00    -0.082 C 
ATOM     10  C   UNL     1       2.079   0.697  -6.613  0.00  0.00    -0.010 C 
ATOM     11  C   UNL     1       0.280  -2.902  -7.588  0.00  0.00    +0.236 C 
ATOM     12  O   UNL     1      -0.001  -2.604  -8.729  0.00  0.00    -0.274 OA
ATOM     13  H   UNL     1       4.149   2.237  -7.039  0.00  0.00    -0.086 HD
ATOM     14  H   UNL     1       4.169   2.255  -8.685  0.00  0.00    -0.086 HD
ENDROOT
BRANCH  11  15
ATOM     15  C   UNL     1      -0.643  -3.788  -6.791  0.00  0.00    +0.162 C 
ATOM     16  C   UNL     1      -0.113  -5.238  -6.797  0.00  0.00    +0.033 C 
ATOM     17  C   UNL     1      -1.411  -6.082  -6.906  0.00  0.00    +0.021 C 
ATOM     18  C   UNL     1      -2.285  -5.190  -7.823  0.00  0.00    +0.109 C 
ATOM     19  N   UNL     1      -1.977  -3.805  -7.410  0.00  0.00    -0.283 N 
ATOM     20  C   UNL     1      -2.781  -2.736  -7.572  0.00  0.00    +0.320 C 
ATOM     21  O   UNL     1      -2.421  -1.643  -7.191  0.00  0.00    -0.266 OA
BRANCH  20  22
ATOM     22  C   UNL     1      -4.129  -2.900  -8.226  0.00  0.00    +0.470 C 
ATOM     23  F   UNL     1      -4.774  -1.660  -8.280  0.00  0.00    -0.162 F 
ATOM     24  F   UNL     1      -3.961  -3.396  -9.523  0.00  0.00    -0.162 F 
ATOM     25  F   UNL     1      -4.904  -3.796  -7.480  0.00  0.00    -0.162 F 
ENDBRANCH  20  22
ENDBRANCH  11  15
BRANCH   1  27
ATOM     26  N   UNL     1       1.926   0.317  -3.480  0.00  0.00    -0.308 N 
ATOM     27  C   UNL     1       1.514  -0.559  -4.418  0.00  0.00    +0.219 C 
ATOM     28  O   UNL     1       0.329  -0.716  -4.622  0.00  0.00    -0.275 OA
ATOM     29  H   UNL     1       2.874   0.443  -3.317  0.00  0.00    +0.149 HD
BRANCH  26  30
ATOM     30  C   UNL     1       0.942   1.079  -2.707  0.00  0.00    +0.104 C 
ATOM     31  C   UNL     1       0.475   0.245  -1.513  0.00  0.00    +0.033 C 
BRANCH  30  34
ATOM     32  C   UNL     1      -0.350   3.926  -2.801  0.00  0.00    +0.065 C 
ATOM     33  C   UNL     1       1.012   3.587  -2.253  0.00  0.00    +0.038 A 
ATOM     34  C   UNL     1       1.571   2.356  -2.212  0.00  0.00    +0.015 A 
ATOM     35  C   UNL     1       2.837   2.477  -1.630  0.00  0.00    +0.065 A 
ATOM     36  N   UNL     1       3.031   3.736  -1.331  0.00  0.00    -0.179 NA
ATOM     37  N   UNL     1       1.895   4.458  -1.720  0.00  0.00    -0.281 N 
ATOM     38  H   UNL     1       1.764   5.414  -1.622  0.00  0.00    +0.189 HD
ATOM     39  C   UNL     1       3.810   1.352  -1.387  0.00  0.00    +0.068 C 
ENDBRANCH  30  34
ENDBRANCH  26  30
ENDBRANCH   1  27
TORSDOF 5
