REMARK  Name = ZINC20347930
REMARK  13 active torsions:
REMARK  status: ('A' for Active; 'I' for Inactive)
REMARK    1  A    between atoms: C_1  and  C_2
REMARK    2  A    between atoms: C_5  and  N_8
REMARK    3  A    between atoms: C_9  and  C_11
REMARK    4  A    between atoms: C_11  and  S_12
REMARK    5  A    between atoms: S_12  and  C_13
REMARK    6  A    between atoms: C_14  and  C_38
REMARK    7  A    between atoms: C_15  and  C_33
REMARK    8  A    between atoms: C_17  and  C_21
REMARK    9  A    between atoms: C_18  and  C_20
REMARK   10  A    between atoms: N_23  and  C_24
REMARK   11  A    between atoms: C_25  and  C_32
REMARK   12  A    between atoms: C_27  and  C_31
REMARK   13  A    between atoms: C_29  and  C_30
REMARK                            x       y       z     vdW  Elec       q    Type
REMARK                         _______ _______ _______ _____ _____    ______ ____
ROOT
ATOM      1  C   UNL     1       8.326  -2.068  -1.153  0.00  0.00    +0.080 C 
ATOM      2  C   UNL     1       7.344  -2.829  -0.600  0.00  0.00    +0.072 C 
ATOM      3  C   UNL     1       6.067  -2.213  -0.103  0.00  0.00    +0.134 C 
ATOM      4  C   UNL     1       5.897  -0.824  -0.648  0.00  0.00    +0.047 C 
ATOM      5  C   UNL     1       6.920  -0.150  -1.197  0.00  0.00    +0.015 C 
ATOM      6  N   UNL     1       8.168  -0.706  -1.279  0.00  0.00    -0.312 N 
ATOM      7  C   UNL     1       6.693   1.243  -1.726  0.00  0.00    +0.061 C 
ATOM      8  H   UNL     1       9.045  -0.064  -1.445  0.00  0.00    +0.152 HD
ENDROOT
BRANCH   3   9
ATOM      9  C   UNL     1       4.903  -3.064  -0.540  0.00  0.00    +0.118 A 
ATOM     10  C   UNL     1       3.997  -3.636   0.273  0.00  0.00    +0.045 A 
ATOM     11  C   UNL     1       3.088  -4.335  -0.554  0.00  0.00    +0.041 A 
ATOM     12  C   UNL     1       3.497  -4.155  -1.822  0.00  0.00    +0.195 A 
ATOM     13  O   UNL     1       4.597  -3.384  -1.808  0.00  0.00    -0.467 OA
ENDBRANCH   3   9
BRANCH   4  14
ATOM     14  C   UNL     1       4.622  -0.212  -0.588  0.00  0.00    +0.247 C 
ATOM     15  O   UNL     1       4.212   0.239   0.466  0.00  0.00    -0.270 OA
ATOM     16  N   UNL     1       3.862  -0.128  -1.698  0.00  0.00    -0.281 N 
ATOM     17  H   UNL     1       4.188  -0.618  -2.627  0.00  0.00    +0.155 HD
BRANCH  16  18
ATOM     18  C   UNL     1       2.658   0.583  -1.669  0.00  0.00    +0.040 A 
ATOM     19  C   UNL     1       2.434   1.611  -2.575  0.00  0.00    -0.029 A 
ATOM     20  C   UNL     1       1.244   2.311  -2.544  0.00  0.00    +0.008 A 
ATOM     21  C   UNL     1       0.276   1.990  -1.611  0.00  0.00    -0.050 A 
ATOM     22  C   UNL     1       0.495   0.967  -0.707  0.00  0.00    +0.008 A 
ATOM     23  C   UNL     1       1.683   0.263  -0.733  0.00  0.00    -0.029 A 
ATOM     24  C   UNL     1       1.921  -0.852   0.252  0.00  0.00    +0.045 C 
ATOM     25  C   UNL     1      -1.019   2.759  -1.576  0.00  0.00    +0.044 C 
ATOM     26  C   UNL     1       3.490   1.963  -3.592  0.00  0.00    +0.045 C 
ENDBRANCH  16  18
ENDBRANCH   4  14
BRANCH   2  27
ATOM     27  C   UNL     1       7.531  -4.245  -0.488  0.00  0.00    +0.098 C 
ATOM     28  N   UNL     1       7.678  -5.368  -0.400  0.00  0.00    -0.191 NA
ENDBRANCH   2  27
BRANCH   1  29
ATOM     29  S   UNL     1       9.813  -2.831  -1.713  0.00  0.00    -0.100 S 
BRANCH  29  30
ATOM     30  C   UNL     1      10.701  -1.378  -2.325  0.00  0.00    +0.171 C 
BRANCH  30  32
ATOM     31  N   UNL     1      12.881  -0.879  -3.381  0.00  0.00    -0.285 N 
ATOM     32  C   UNL     1      12.041  -1.800  -2.868  0.00  0.00    +0.227 C 
ATOM     33  O   UNL     1      12.365  -2.969  -2.845  0.00  0.00    -0.275 OA
ATOM     34  H   UNL     1      12.627   0.190  -3.323  0.00  0.00    +0.155 HD
BRANCH  31  39
ATOM     35  C   UNL     1      17.726  -2.514  -5.838  0.00  0.00    +0.044 C 
ATOM     36  C   UNL     1      16.439  -2.079  -5.185  0.00  0.00    -0.050 A 
ATOM     37  C   UNL     1      15.312  -2.873  -5.288  0.00  0.00    +0.005 A 
ATOM     38  C   UNL     1      14.131  -2.478  -4.691  0.00  0.00    +0.023 A 
ATOM     39  C   UNL     1      14.076  -1.282  -3.987  0.00  0.00    +0.033 A 
ATOM     40  C   UNL     1      15.209  -0.484  -3.891  0.00  0.00    +0.023 A 
ATOM     41  C   UNL     1      16.389  -0.888  -4.485  0.00  0.00    +0.005 A 
ENDBRANCH  31  39
ENDBRANCH  30  32
ENDBRANCH  29  30
ENDBRANCH   1  29
TORSDOF 8
