REMARK  Name = ZINC39748090
REMARK  11 active torsions:
REMARK  status: ('A' for Active; 'I' for Inactive)
REMARK    1  A    between atoms: C_1  and  C_2
REMARK    2  A    between atoms: C_2  and  C_3
REMARK    3  A    between atoms: C_3  and  C_5
REMARK    4  A    between atoms: C_3  and  S_18
REMARK    5  A    between atoms: N_7  and  C_8
REMARK    6  A    between atoms: S_18  and  C_19
REMARK    7  A    between atoms: C_22  and  C_25
REMARK    8  A    between atoms: N_23  and  C_24
REMARK    9  A    between atoms: C_25  and  N_26
REMARK   10  A    between atoms: C_27  and  C_29
REMARK   11  A    between atoms: C_30  and  C_31
REMARK                            x       y       z     vdW  Elec       q    Type
REMARK                         _______ _______ _______ _____ _____    ______ ____
ROOT
ATOM      1  C   UNL     1      -2.750   1.250   1.746  0.00  0.00    +0.192 A 
ATOM      2  N   UNL     1      -2.653   2.116   0.764  0.00  0.00    -0.122 NA
ATOM      3  N   UNL     1      -3.067   3.268   1.156  0.00  0.00    -0.132 NA
ATOM      4  C   UNL     1      -3.450   3.206   2.400  0.00  0.00    +0.151 A 
ATOM      5  N   UNL     1      -3.267   1.917   2.819  0.00  0.00    -0.308 N 
ATOM      6  C   UNL     1      -3.561   1.367   4.145  0.00  0.00    +0.152 C 
ENDROOT
BRANCH   1   7
ATOM      7  S   UNL     1      -2.304  -0.454   1.688  0.00  0.00    -0.073 S 
BRANCH   7   8
ATOM      8  C   UNL     1      -1.567  -0.659   0.043  0.00  0.00    +0.140 C 
BRANCH   8   9
ATOM      9  C   UNL     1      -2.613  -0.402  -1.012  0.00  0.00    +0.231 C 
ATOM     10  O   UNL     1      -3.790  -0.469  -0.727  0.00  0.00    -0.274 OA
ATOM     11  N   UNL     1      -2.241  -0.098  -2.271  0.00  0.00    -0.284 N 
ATOM     12  H   UNL     1      -1.303   0.032  -2.481  0.00  0.00    +0.155 HD
BRANCH  11  13
ATOM     13  C   UNL     1      -3.205   0.029  -3.272  0.00  0.00    +0.041 A 
ATOM     14  C   UNL     1      -4.446  -0.551  -3.120  0.00  0.00    +0.024 A 
ATOM     15  C   UNL     1      -5.414  -0.430  -4.113  0.00  0.00    +0.002 A 
ATOM     16  C   UNL     1      -5.164   0.263  -5.258  0.00  0.00    +0.008 A 
ATOM     17  C   UNL     1      -3.912   0.869  -5.452  0.00  0.00    -0.016 A 
ATOM     18  C   UNL     1      -2.920   0.757  -4.447  0.00  0.00    +0.003 A 
ATOM     19  C   UNL     1      -1.671   1.368  -4.640  0.00  0.00    +0.010 A 
ATOM     20  C   UNL     1      -1.430   2.063  -5.785  0.00  0.00    +0.001 A 
ATOM     21  C   UNL     1      -2.407   2.178  -6.772  0.00  0.00    +0.001 A 
ATOM     22  C   UNL     1      -3.625   1.590  -6.624  0.00  0.00    +0.008 A 
ENDBRANCH  11  13
ENDBRANCH   8   9
BRANCH   8  24
ATOM     23  C   UNL     1       0.120  -2.302   0.875  0.00  0.00    +0.005 C 
ATOM     24  C   UNL     1      -1.035  -2.086  -0.104  0.00  0.00    +0.020 C 
ENDBRANCH   8  24
ENDBRANCH   7   8
ENDBRANCH   1   7
BRANCH   4  25
ATOM     25  C   UNL     1      -3.998   4.343   3.223  0.00  0.00    +0.181 C 
BRANCH  25  26
ATOM     26  N   UNL     1      -5.456   4.390   3.081  0.00  0.00    -0.305 N 
ATOM     27  C   UNL     1      -6.166   5.333   3.732  0.00  0.00    +0.237 C 
ATOM     28  O   UNL     1      -5.597   6.144   4.437  0.00  0.00    -0.271 OA
ATOM     29  H   UNL     1      -5.909   3.743   2.518  0.00  0.00    +0.149 HD
BRANCH  27  30
ATOM     30  C   UNL     1      -7.622   5.380   3.589  0.00  0.00    +0.068 C 
ATOM     31  C   UNL     1      -8.333   6.323   4.240  0.00  0.00    +0.014 C 
BRANCH  31  32
ATOM     32  C   UNL     1      -9.797   6.370   4.098  0.00  0.00    -0.007 A 
ATOM     33  C   UNL     1     -10.455   5.435   3.292  0.00  0.00    +0.009 A 
ATOM     34  C   UNL     1     -11.827   5.486   3.164  0.00  0.00    +0.001 A 
ATOM     35  C   UNL     1     -12.553   6.458   3.829  0.00  0.00    +0.001 A 
ATOM     36  C   UNL     1     -11.911   7.387   4.628  0.00  0.00    +0.020 A 
ATOM     37  C   UNL     1     -10.538   7.347   4.771  0.00  0.00    +0.048 A 
ATOM     38 CL   UNL     1      -9.734   8.509   5.780  0.00  0.00    -0.083 Cl
ENDBRANCH  31  32
ENDBRANCH  27  30
ENDBRANCH  25  26
ENDBRANCH   4  25
TORSDOF 9
