REMARK  Name = ZINC09822863
REMARK  5 active torsions:
REMARK  status: ('A' for Active; 'I' for Inactive)
REMARK    1  A    between atoms: C_1  and  C_2
REMARK    2  A    between atoms: C_9  and  C_13
REMARK    3  A    between atoms: C_13  and  N_56
REMARK    4  A    between atoms: N_16  and  S_19
REMARK    5  A    between atoms: S_19  and  C_22
REMARK                            x       y       z     vdW  Elec       q    Type
REMARK                         _______ _______ _______ _____ _____    ______ ____
ROOT
ATOM      1  C   UNL     1       4.426   0.267  -3.675  0.00  0.00    -0.061 C 
ATOM      2  C   UNL     1       5.143  -0.080  -2.366  0.00  0.00    +0.091 C 
ATOM      3  N   UNL     1       4.338  -1.074  -1.640  0.00  0.00    -0.180 NA
ATOM      4  C   UNL     1       3.907  -2.281  -2.362  0.00  0.00    +0.091 C 
ATOM      5  C   UNL     1       3.233  -1.845  -3.672  0.00  0.00    -0.061 C 
ATOM      6  N   UNL     1       4.173  -0.984  -4.423  0.00  0.00    +0.385 N 
ATOM      7  H   UNL     1       5.061  -1.485  -4.543  0.00  0.00    -0.081 HD
ENDROOT
BRANCH   3   8
ATOM      8  S   UNL     1       3.931  -0.843  -0.052  0.00  0.00    +0.061 S 
ATOM      9  O   UNL     1       4.904   0.039   0.492  0.00  0.00    -0.153 OA
ATOM     10  O   UNL     1       3.679  -2.130   0.494  0.00  0.00    -0.153 OA
BRANCH   8  11
ATOM     11  C   UNL     1       2.397   0.024  -0.027  0.00  0.00    +0.109 A 
ATOM     12  C   UNL     1       1.207  -0.680  -0.016  0.00  0.00    +0.032 A 
ATOM     13  C   UNL     1       0.002  -0.004   0.002  0.00  0.00    +0.051 A 
ATOM     14  C   UNL     1      -0.017   1.383   0.010  0.00  0.00    +0.162 A 
ATOM     15  C   UNL     1       1.179   2.090   0.002  0.00  0.00    +0.164 A 
ATOM     16  C   UNL     1       2.385   1.406  -0.018  0.00  0.00    +0.078 A 
ATOM     17  O   UNL     1       1.184   3.451   0.018  0.00  0.00    -0.485 OA
ATOM     18  C   UNL     1      -0.040   4.103  -0.340  0.00  0.00    +0.270 C 
ATOM     19  C   UNL     1      -1.189   3.413   0.408  0.00  0.00    +0.270 C 
ATOM     20  O   UNL     1      -1.212   2.035   0.019  0.00  0.00    -0.485 OA
ENDBRANCH   8  11
ENDBRANCH   3   8
BRANCH   6  21
ATOM     21  C   UNL     1       3.615  -0.670  -5.755  0.00  0.00    -0.022 C 
BRANCH  21  30
ATOM     22  C   UNL     1       5.944  -4.854  -7.231  0.00  0.00    +0.047 C 
ATOM     23  C   UNL     1       4.484  -5.054  -7.546  0.00  0.00    -0.008 A 
ATOM     24  C   UNL     1       4.059  -6.214  -8.122  0.00  0.00    +0.008 A 
ATOM     25  C   UNL     1       2.698  -6.385  -8.410  0.00  0.00    +0.019 A 
ATOM     26  C   UNL     1       1.813  -5.405  -8.117  0.00  0.00    +0.096 A 
ATOM     27  N   UNL     1       2.228  -4.242  -7.542  0.00  0.00    -0.268 N 
ATOM     28  C   UNL     1       3.549  -4.046  -7.249  0.00  0.00    +0.143 A 
ATOM     29  N   UNL     1       3.962  -2.913  -6.686  0.00  0.00    -0.236 NA
ATOM     30  C   UNL     1       3.114  -1.940  -6.391  0.00  0.00    +0.032 A 
ATOM     31  C   UNL     1       1.768  -2.092  -6.662  0.00  0.00    +0.092 A 
ATOM     32  C   UNL     1       1.326  -3.278  -7.259  0.00  0.00    +0.258 A 
ATOM     33  O   UNL     1       0.144  -3.441  -7.515  0.00  0.00    -0.267 OA
ENDBRANCH  21  30
ENDBRANCH   6  21
TORSDOF 4
