REMARK  Name = ZINC10060685
REMARK  7 active torsions:
REMARK  status: ('A' for Active; 'I' for Inactive)
REMARK    1  A    between atoms: C_1  and  S_2
REMARK    2  A    between atoms: S_2  and  C_3
REMARK    3  A    between atoms: N_11  and  C_12
REMARK    4  A    between atoms: C_12  and  C_14
REMARK    5  A    between atoms: C_14  and  C_15
REMARK    6  A    between atoms: N_20  and  C_21
REMARK    7  A    between atoms: C_21  and  C_22
REMARK                            x       y       z     vdW  Elec       q    Type
REMARK                         _______ _______ _______ _____ _____    ______ ____
ROOT
ATOM      1  C   UNL     1       3.555   2.961   3.427  0.00  0.00    +0.009 A 
ATOM      2  C   UNL     1       2.289   2.408   3.590  0.00  0.00    +0.017 A 
ATOM      3  C   UNL     1       1.534   2.031   2.506  0.00  0.00    +0.028 A 
ATOM      4  C   UNL     1       2.016   2.199   1.198  0.00  0.00    +0.059 A 
ATOM      5  C   UNL     1       3.297   2.753   1.062  0.00  0.00    +0.040 A 
ATOM      6  C   UNL     1       4.058   3.132   2.142  0.00  0.00    +0.032 A 
ATOM      7  S   UNL     1       3.540   2.789  -0.697  0.00  0.00    -0.052 S 
ATOM      8  C   UNL     1       2.022   2.100  -1.176  0.00  0.00    +0.167 A 
ATOM      9  N   UNL     1       1.579   1.856  -2.408  0.00  0.00    -0.156 NA
ATOM     10  N   UNL     1       1.394   1.870   0.006  0.00  0.00    -0.310 N 
ENDROOT
BRANCH   1  12
ATOM     11  C   UNL     1       3.448   3.026   6.242  0.00  0.00    +0.090 C 
ATOM     12  S   UNL     1       4.509   3.439   4.830  0.00  0.00    -0.129 S 
ENDBRANCH   1  12
BRANCH   9  13
ATOM     13  C   UNL     1       0.319   1.482  -2.599  0.00  0.00    +0.243 C 
ATOM     14  O   UNL     1      -0.588   2.254  -2.354  0.00  0.00    -0.273 OA
BRANCH  13  15
ATOM     15  C   UNL     1       0.013   0.101  -3.118  0.00  0.00    +0.140 C 
BRANCH  15  16
ATOM     16  C   UNL     1      -1.479  -0.070  -3.244  0.00  0.00    -0.001 A 
ATOM     17  C   UNL     1      -2.283   0.201  -4.301  0.00  0.00    +0.011 A 
ATOM     18  C   UNL     1      -3.639  -0.041  -4.190  0.00  0.00    +0.008 A 
ATOM     19  C   UNL     1      -4.127  -0.531  -3.025  0.00  0.00    +0.045 A 
ATOM     20  S   UNL     1      -2.647  -0.674  -2.036  0.00  0.00    -0.101 S 
ENDBRANCH  15  16
ENDBRANCH  13  15
ENDBRANCH   9  13
BRANCH  10  21
ATOM     21  C   UNL     1       0.054   1.278   0.019  0.00  0.00    +0.212 C 
BRANCH  21  22
ATOM     22  C   UNL     1      -0.954   2.349   0.080  0.00  0.00    -0.084 C 
ATOM     23  C   UNL     1      -1.758   3.203   0.129  0.00  0.00    +0.005 C 
ENDBRANCH  21  22
ENDBRANCH  10  21
TORSDOF 6
