REMARK  Name = ZINC05156535
REMARK  5 active torsions:
REMARK  status: ('A' for Active; 'I' for Inactive)
REMARK    1  A    between atoms: C_3  and  N_27
REMARK    2  A    between atoms: C_6  and  C_7
REMARK    3  A    between atoms: C_7  and  O_9
REMARK    4  A    between atoms: O_9  and  C_10
REMARK    5  A    between atoms: C_18  and  C_19
REMARK                            x       y       z     vdW  Elec       q    Type
REMARK                         _______ _______ _______ _____ _____    ______ ____
ROOT
ATOM      1  C   UNL     1      -4.747   0.827  -0.029  0.00  0.00    +0.135 A 
ATOM      2  C   UNL     1      -4.553  -0.550   0.035  0.00  0.00    +0.047 A 
ATOM      3  C   UNL     1      -5.627  -1.392   0.095  0.00  0.00    +0.019 A 
ATOM      4  C   UNL     1      -6.921  -0.871   0.083  0.00  0.00    +0.068 A 
ATOM      5  C   UNL     1      -7.130   0.516   0.012  0.00  0.00    +0.143 A 
ATOM      6  C   UNL     1      -6.027   1.359  -0.044  0.00  0.00    +0.093 A 
ATOM      7  O   UNL     1      -8.455   0.780   0.014  0.00  0.00    -0.451 OA
ATOM      8  C   UNL     1      -9.194  -0.351   0.081  0.00  0.00    +0.176 C 
ATOM      9  C   UNL     1     -10.547  -0.424   0.100  0.00  0.00    +0.058 C 
ATOM     10  C   UNL     1      -8.258  -1.490   0.130  0.00  0.00    +0.231 C 
ATOM     11  O   UNL     1      -8.529  -2.676   0.196  0.00  0.00    -0.283 OA
ENDROOT
BRANCH   9  12
ATOM     12  C   UNL     1     -11.352   0.795  -0.071  0.00  0.00    -0.019 A 
ATOM     13  C   UNL     1     -12.748   0.728  -0.185  0.00  0.00    +0.028 A 
ATOM     14  C   UNL     1     -13.463   1.897  -0.340  0.00  0.00    +0.111 A 
ATOM     15  N   UNL     1     -12.850   3.064  -0.391  0.00  0.00    -0.263 NA
ATOM     16  C   UNL     1     -11.539   3.174  -0.293  0.00  0.00    +0.111 A 
ATOM     17  C   UNL     1     -10.745   2.058  -0.131  0.00  0.00    +0.028 A 
ENDBRANCH   9  12
BRANCH   1  18
ATOM     18  O   UNL     1      -3.673   1.656  -0.085  0.00  0.00    -0.422 OA
BRANCH  18  19
ATOM     19  C   UNL     1      -3.362   2.329   1.040  0.00  0.00    +0.344 C 
ATOM     20  O   UNL     1      -4.082   2.250   2.015  0.00  0.00    -0.245 OA
BRANCH  19  26
ATOM     21  C   UNL     1      -1.818   3.862   2.253  0.00  0.00    +0.017 A 
ATOM     22  C   UNL     1      -0.676   4.635   2.292  0.00  0.00    +0.033 A 
ATOM     23  C   UNL     1       0.143   4.723   1.181  0.00  0.00    +0.126 A 
ATOM     24  C   UNL     1      -0.177   4.037   0.022  0.00  0.00    +0.033 A 
ATOM     25  C   UNL     1      -1.316   3.261  -0.032  0.00  0.00    +0.017 A 
ATOM     26  C   UNL     1      -2.144   3.163   1.089  0.00  0.00    +0.060 A 
BRANCH  23  27
ATOM     27  N   UNL     1       1.367   5.554   1.231  0.00  0.00    +0.056 N 
ATOM     28  O   UNL     1       1.651   6.158   2.249  0.00  0.00    -0.126 OA
ATOM     29  O   UNL     1       2.090   5.633   0.254  0.00  0.00    -0.126 OA
ENDBRANCH  23  27
ENDBRANCH  19  26
ENDBRANCH  18  19
ENDBRANCH   1  18
TORSDOF 5
