REMARK  Name = ZINC34978606
REMARK  9 active torsions:
REMARK  status: ('A' for Active; 'I' for Inactive)
REMARK    1  A    between atoms: C_1  and  C_2
REMARK    2  A    between atoms: N_11  and  C_12
REMARK    3  A    between atoms: C_12  and  C_13
REMARK    4  A    between atoms: C_12  and  C_14
REMARK    5  A    between atoms: C_15  and  C_17
REMARK    6  A    between atoms: C_17  and  C_19
REMARK    7  A    between atoms: C_17  and  N_26
REMARK    8  A    between atoms: C_19  and  C_20
REMARK    9  A    between atoms: C_27  and  C_29
REMARK                            x       y       z     vdW  Elec       q    Type
REMARK                         _______ _______ _______ _____ _____    ______ ____
ROOT
ATOM      1  C   UNL     1       0.460  -4.396  -1.930  0.00  0.00    +0.164 C 
ENDROOT
BRANCH   1  12
ATOM      2  C   UNL     1      -0.472   1.200   0.430  0.00  0.00    +0.030 C 
ATOM      3  C   UNL     1      -0.437  -0.321   0.267  0.00  0.00    +0.092 C 
ATOM      4  C   UNL     1       0.423  -0.689  -0.949  0.00  0.00    +0.130 C 
ATOM      5  N   UNL     1       0.657  -2.139  -0.936  0.00  0.00    -0.297 N 
ATOM      6  C   UNL     1       1.251  -2.751   0.261  0.00  0.00    +0.127 C 
ATOM      7  C   UNL     1       0.391  -2.383   1.477  0.00  0.00    +0.128 C 
ATOM      8  N   UNL     1       0.153  -0.932   1.466  0.00  0.00    -0.280 N 
ATOM      9  C   UNL     1       0.474  -0.176   2.535  0.00  0.00    +0.303 C 
ATOM     10  O   UNL     1       0.183   1.004   2.553  0.00  0.00    -0.253 OA
ATOM     11  N   UNL     1       1.116  -0.729   3.583  0.00  0.00    -0.297 N 
ATOM     12  C   UNL     1       0.335  -2.896  -2.004  0.00  0.00    +0.236 C 
ATOM     13  O   UNL     1      -0.057  -2.369  -3.024  0.00  0.00    -0.274 OA
ATOM     14  H   UNL     1       1.283  -1.684   3.601  0.00  0.00    +0.150 HD
BRANCH  11  15
ATOM     15  C   UNL     1       1.563   0.114   4.695  0.00  0.00    +0.068 C 
ATOM     16  C   UNL     1       0.414   0.302   5.686  0.00  0.00    +0.027 C 
ATOM     17  C   UNL     1       2.742  -0.558   5.402  0.00  0.00    +0.027 C 
ENDBRANCH  11  15
ENDBRANCH   1  12
BRANCH   1  18
ATOM     18  N   UNL     1      -0.123  -4.994  -3.134  0.00  0.00    -0.300 N 
ATOM     19  C   UNL     1      -0.587  -6.259  -3.101  0.00  0.00    +0.245 C 
ATOM     20  O   UNL     1      -0.522  -6.903  -2.072  0.00  0.00    -0.270 OA
ATOM     21  H   UNL     1      -0.174  -4.480  -3.955  0.00  0.00    +0.150 HD
BRANCH  19  22
ATOM     22  C   UNL     1      -1.173  -6.861  -4.313  0.00  0.00    +0.044 A 
ATOM     23  C   UNL     1      -1.140  -6.180  -5.521  0.00  0.00    +0.013 A 
ATOM     24  C   UNL     1      -1.691  -6.742  -6.666  0.00  0.00    +0.001 A 
ATOM     25  C   UNL     1      -2.276  -7.972  -6.637  0.00  0.00    +0.008 A 
ATOM     26  C   UNL     1      -2.332  -8.698  -5.434  0.00  0.00    -0.017 A 
ATOM     27  C   UNL     1      -1.771  -8.145  -4.258  0.00  0.00    -0.006 A 
ATOM     28  C   UNL     1      -1.823  -8.872  -3.061  0.00  0.00    +0.009 A 
ATOM     29  C   UNL     1      -2.406 -10.103  -3.044  0.00  0.00    +0.001 A 
ATOM     30  C   UNL     1      -2.953 -10.652  -4.202  0.00  0.00    +0.001 A 
ATOM     31  C   UNL     1      -2.931  -9.969  -5.379  0.00  0.00    +0.008 A 
ENDBRANCH  19  22
ENDBRANCH   1  18
BRANCH   1  32
ATOM     32  C   UNL     1       1.938  -4.780  -1.834  0.00  0.00    +0.067 C 
BRANCH  32  33
ATOM     33  C   UNL     1       2.060  -6.276  -1.699  0.00  0.00    -0.045 A 
ATOM     34  C   UNL     1       2.059  -6.859  -0.446  0.00  0.00    +0.004 A 
ATOM     35  C   UNL     1       2.171  -8.231  -0.322  0.00  0.00    +0.000 A 
ATOM     36  C   UNL     1       2.284  -9.020  -1.451  0.00  0.00    +0.000 A 
ATOM     37  C   UNL     1       2.284  -8.437  -2.705  0.00  0.00    +0.000 A 
ATOM     38  C   UNL     1       2.167  -7.065  -2.829  0.00  0.00    +0.004 A 
ENDBRANCH  32  33
ENDBRANCH   1  32
TORSDOF 6
