REMARK  Name = ZINC39337673
REMARK  13 active torsions:
REMARK  status: ('A' for Active; 'I' for Inactive)
REMARK    1  A    between atoms: C_1  and  C_2
REMARK    2  A    between atoms: C_2  and  C_3
REMARK    3  A    between atoms: C_3  and  C_5
REMARK    4  A    between atoms: C_3  and  N_6
REMARK    5  A    between atoms: N_6  and  C_7
REMARK    6  A    between atoms: N_13  and  C_31
REMARK    7  A    between atoms: C_14  and  C_27
REMARK    8  A    between atoms: C_16  and  N_18
REMARK    9  A    between atoms: C_19  and  C_21
REMARK   10  A    between atoms: C_27  and  O_29
REMARK   11  A    between atoms: O_29  and  C_30
REMARK   12  A    between atoms: C_31  and  C_32
REMARK   13  A    between atoms: C_32  and  C_33
REMARK                            x       y       z     vdW  Elec       q    Type
REMARK                         _______ _______ _______ _____ _____    ______ ____
ROOT
ATOM      1  C   UNL     1       2.851   0.057  -2.397  0.00  0.00    +0.044 A 
ATOM      2  C   UNL     1       4.192   0.438  -2.367  0.00  0.00    +0.033 A 
ATOM      3  C   UNL     1       4.866   0.571  -3.566  0.00  0.00    +0.015 A 
ATOM      4  C   UNL     1       4.209   0.327  -4.764  0.00  0.00    +0.105 A 
ATOM      5  N   UNL     1       2.926  -0.035  -4.747  0.00  0.00    -0.348 N 
ATOM      6  C   UNL     1       2.252  -0.177  -3.626  0.00  0.00    +0.107 A 
ATOM      7  N   UNL     1       5.053   0.513  -5.856  0.00  0.00    -0.301 N 
ATOM      8  C   UNL     1       6.388   0.912  -5.403  0.00  0.00    +0.208 C 
ATOM      9  C   UNL     1       6.295   0.960  -3.868  0.00  0.00    +0.138 C 
ATOM     10  H   UNL     1       2.476  -0.203  -5.590  0.00  0.00    +0.167 HD
ENDROOT
BRANCH   9  11
ATOM     11  N   UNL     1       7.224  -0.001  -3.269  0.00  0.00    -0.306 N 
ATOM     12  C   UNL     1       7.629   0.159  -1.994  0.00  0.00    +0.219 C 
ATOM     13  O   UNL     1       7.223   1.097  -1.341  0.00  0.00    -0.275 OA
ATOM     14  H   UNL     1       7.549  -0.751  -3.791  0.00  0.00    +0.149 HD
BRANCH  12  15
ATOM     15  C   UNL     1       8.585  -0.829  -1.377  0.00  0.00    +0.103 C 
ATOM     16  C   UNL     1       8.936  -0.412   0.072  0.00  0.00    +0.043 C 
ATOM     17  C   UNL     1      10.453  -0.721   0.141  0.00  0.00    +0.160 C 
ATOM     18  O   UNL     1      10.930  -0.362  -1.174  0.00  0.00    -0.379 OA
ATOM     19  C   UNL     1       9.937  -0.805  -2.118  0.00  0.00    +0.172 C 
ENDBRANCH  12  15
ENDBRANCH   9  11
BRANCH   1  20
ATOM     20  N   UNL     1       2.125  -0.091  -1.209  0.00  0.00    -0.340 N 
ATOM     21  H   UNL     1       2.553   0.075  -0.355  0.00  0.00    +0.146 HD
BRANCH  20  22
ATOM     22  C   UNL     1       0.718  -0.497  -1.257  0.00  0.00    +0.067 C 
ATOM     23  C   UNL     1       0.630  -2.023  -1.329  0.00  0.00    +0.028 C 
BRANCH  22  25
ATOM     24  C   UNL     1      -0.019   1.526   0.010  0.00  0.00    +0.005 C 
ATOM     25  C   UNL     1       0.002  -0.004   0.002  0.00  0.00    +0.018 C 
ENDBRANCH  22  25
ENDBRANCH  20  22
ENDBRANCH   1  20
BRANCH   8  26
ATOM     26  C   UNL     1       7.413  -0.104  -5.835  0.00  0.00    +0.330 C 
ATOM     27  O   UNL     1       7.063  -1.215  -6.157  0.00  0.00    -0.249 OA
BRANCH  26  28
ATOM     28  O   UNL     1       8.714   0.224  -5.862  0.00  0.00    -0.467 OA
ATOM     29  C   UNL     1       9.630  -0.789  -6.282  0.00  0.00    +0.280 C 
ENDBRANCH  26  28
ENDBRANCH   8  26
BRANCH   7  30
ATOM     30  C   UNL     1       4.663   0.335  -7.257  0.00  0.00    +0.112 C 
BRANCH  30  31
ATOM     31  C   UNL     1       4.135   1.659  -7.812  0.00  0.00    +0.056 C 
BRANCH  31  32
ATOM     32  C   UNL     1       3.733   1.475  -9.253  0.00  0.00    -0.021 A 
ATOM     33  C   UNL     1       2.444   0.980  -9.742  0.00  0.00    +0.003 A 
ATOM     34  C   UNL     1       1.269   0.554  -9.120  0.00  0.00    +0.010 A 
ATOM     35  C   UNL     1       0.211   0.140  -9.880  0.00  0.00    +0.001 A 
ATOM     36  C   UNL     1       0.296   0.139 -11.265  0.00  0.00    +0.002 A 
ATOM     37  C   UNL     1       1.446   0.556 -11.899  0.00  0.00    +0.026 A 
ATOM     38  C   UNL     1       2.534   0.982 -11.146  0.00  0.00    +0.047 A 
ATOM     39  N   UNL     1       3.789   1.446 -11.472  0.00  0.00    -0.360 N 
ATOM     40  C   UNL     1       4.487   1.740 -10.332  0.00  0.00    +0.087 A 
ATOM     41  H   UNL     1       4.127   1.552 -12.375  0.00  0.00    +0.165 HD
ENDBRANCH  31  32
ENDBRANCH  30  31
ENDBRANCH   7  30
TORSDOF 10
