REMARK  Name = ZINC39671520
REMARK  7 active torsions:
REMARK  status: ('A' for Active; 'I' for Inactive)
REMARK    1  A    between atoms: C_1  and  O_2
REMARK    2  A    between atoms: O_2  and  C_3
REMARK    3  A    between atoms: C_6  and  C_13
REMARK    4  A    between atoms: C_8  and  C_9
REMARK    5  A    between atoms: C_17  and  C_26
REMARK    6  A    between atoms: N_28  and  C_29
REMARK    7  A    between atoms: C_29  and  C_30
REMARK                            x       y       z     vdW  Elec       q    Type
REMARK                         _______ _______ _______ _____ _____    ______ ____
ROOT
ATOM      1  C   UNL     1      -4.954  -2.614   0.034  0.00  0.00    +0.247 C 
ATOM      2  O   UNL     1      -5.004  -3.824  -0.076  0.00  0.00    -0.270 OA
ATOM      3  N   UNL     1      -6.092  -1.900   0.145  0.00  0.00    -0.296 N 
ATOM      4  C   UNL     1      -6.241  -0.426   0.159  0.00  0.00    +0.121 C 
ATOM      5  C   UNL     1      -7.519  -0.155  -0.666  0.00  0.00    +0.100 C 
ATOM      6  C   UNL     1      -8.326  -1.461  -0.580  0.00  0.00    -0.004 C 
ATOM      7  C   UNL     1      -7.477  -2.412   0.276  0.00  0.00    +0.115 C 
ATOM      8  C   UNL     1      -8.526  -2.052  -1.973  0.00  0.00    -0.010 C 
ATOM      9  C   UNL     1      -9.379  -3.319  -1.867  0.00  0.00    -0.082 C 
ATOM     10  N   UNL     1     -10.675  -2.989  -1.263  0.00  0.00    +0.379 N 
ATOM     11  C   UNL     1     -10.480  -2.509   0.111  0.00  0.00    -0.082 C 
ATOM     12  C   UNL     1      -9.673  -1.207   0.088  0.00  0.00    -0.010 C 
ATOM     13  H   UNL     1     -11.126  -2.270  -1.808  0.00  0.00    -0.086 HD
ATOM     14  H   UNL     1     -11.258  -3.812  -1.250  0.00  0.00    -0.086 HD
ENDROOT
BRANCH   1  18
ATOM     15  C   UNL     1      -1.195  -0.639   0.065  0.00  0.00    +0.132 A 
ATOM     16  C   UNL     1      -2.296  -0.043   0.668  0.00  0.00    +0.047 A 
ATOM     17  C   UNL     1      -3.517  -0.680   0.660  0.00  0.00    +0.016 A 
ATOM     18  C   UNL     1      -3.648  -1.927   0.044  0.00  0.00    +0.038 A 
ATOM     19  C   UNL     1      -2.538  -2.523  -0.561  0.00  0.00    +0.029 A 
ATOM     20  C   UNL     1      -1.322  -1.877  -0.553  0.00  0.00    +0.097 A 
BRANCH  20  21
ATOM     21  C   UNL     1      -0.126  -2.516  -1.211  0.00  0.00    +0.421 C 
ATOM     22  F   UNL     1      -0.498  -3.748  -1.759  0.00  0.00    -0.166 F 
ATOM     23  F   UNL     1       0.351  -1.679  -2.225  0.00  0.00    -0.166 F 
ATOM     24  F   UNL     1       0.879  -2.715  -0.258  0.00  0.00    -0.166 F 
ENDBRANCH  20  21
BRANCH  15  26
ATOM     25  C   UNL     1       0.067   1.262   0.727  0.00  0.00    +0.277 C 
ATOM     26  O   UNL     1       0.006  -0.007   0.074  0.00  0.00    -0.495 OA
ENDBRANCH  15  26
ENDBRANCH   1  18
BRANCH   5  27
ATOM     27  C   UNL     1      -8.298   0.987  -0.067  0.00  0.00    +0.219 C 
ATOM     28  O   UNL     1      -8.181   1.249   1.111  0.00  0.00    -0.275 OA
ATOM     29  N   UNL     1      -9.126   1.717  -0.841  0.00  0.00    -0.309 N 
ATOM     30  H   UNL     1      -9.220   1.507  -1.784  0.00  0.00    +0.149 HD
BRANCH  29  31
ATOM     31  C   UNL     1      -9.884   2.827  -0.259  0.00  0.00    +0.157 C 
BRANCH  31  32
ATOM     32  C   UNL     1     -10.727   3.474  -1.327  0.00  0.00    +0.034 A 
ATOM     33  H   UNL     1      -9.403   4.827  -2.194  0.00  0.00    +0.166 HD
ATOM     34  C   UNL     1     -12.014   3.183  -1.574  0.00  0.00    +0.032 A 
ATOM     35  C   UNL     1     -12.441   4.039  -2.685  0.00  0.00    -0.000 A 
ATOM     36  C   UNL     1     -13.640   4.199  -3.381  0.00  0.00    +0.010 A 
ATOM     37  C   UNL     1     -13.717   5.109  -4.398  0.00  0.00    +0.001 A 
ATOM     38  C   UNL     1     -12.613   5.875  -4.744  0.00  0.00    +0.002 A 
ATOM     39  C   UNL     1     -11.420   5.733  -4.070  0.00  0.00    +0.026 A 
ATOM     40  C   UNL     1     -11.318   4.813  -3.032  0.00  0.00    +0.047 A 
ATOM     41  N   UNL     1     -10.296   4.450  -2.184  0.00  0.00    -0.357 N 
ENDBRANCH  31  32
ENDBRANCH  29  31
ENDBRANCH   5  27
TORSDOF 6
