REMARK  Name = ZINC05011235
REMARK  4 active torsions:
REMARK  status: ('A' for Active; 'I' for Inactive)
REMARK    1  A    between atoms: C_1  and  S_2
REMARK    2  A    between atoms: S_2  and  C_3
REMARK    3  A    between atoms: C_6  and  C_9
REMARK    4  A    between atoms: N_18  and  C_19
REMARK                            x       y       z     vdW  Elec       q    Type
REMARK                         _______ _______ _______ _____ _____    ______ ____
ROOT
ATOM      1  C   UNL     1      -0.795   0.533  -2.208  0.00  0.00    +0.059 C 
ATOM      2  C   UNL     1      -0.013   1.086   0.008  0.00  0.00    -0.075 C 
ATOM      3  C   UNL     1      -0.760   1.596   1.251  0.00  0.00    -0.020 C 
ATOM      4  C   UNL     1      -2.169   1.979   0.758  0.00  0.00    -0.008 C 
ATOM      5  C   UNL     1      -2.179   1.686  -0.749  0.00  0.00    +0.023 C 
ATOM      6  C   UNL     1      -2.747   0.310  -1.008  0.00  0.00    +0.205 C 
ATOM      7  O   UNL     1      -3.769  -0.137  -0.531  0.00  0.00    -0.277 OA
ATOM      8  N   UNL     1      -1.924  -0.337  -1.859  0.00  0.00    -0.282 N 
ATOM      9  N   UNL     1      -0.802   1.545  -1.157  0.00  0.00    +0.403 N 
ATOM     10  H   UNL     1      -0.429   2.435  -1.508  0.00  0.00    -0.077 HD
ENDROOT
BRANCH   8  11
ATOM     11  C   UNL     1      -2.118  -1.638  -2.337  0.00  0.00    +0.036 A 
ATOM     12  C   UNL     1      -1.203  -2.200  -3.218  0.00  0.00    +0.023 A 
ATOM     13  C   UNL     1      -1.394  -3.485  -3.684  0.00  0.00    +0.003 A 
ATOM     14  C   UNL     1      -2.501  -4.211  -3.283  0.00  0.00    +0.020 A 
ATOM     15  C   UNL     1      -3.418  -3.653  -2.409  0.00  0.00    +0.043 A 
ATOM     16  C   UNL     1      -3.229  -2.368  -1.935  0.00  0.00    +0.043 A 
ATOM     17 CL   UNL     1      -4.806  -4.567  -1.908  0.00  0.00    -0.083 Cl
ENDBRANCH   8  11
BRANCH   1  21
ATOM     18  C   UNL     1      -1.421   2.287  -6.055  0.00  0.00    +0.008 A 
ATOM     19  C   UNL     1      -1.888   1.005  -5.790  0.00  0.00    +0.015 A 
ATOM     20  C   UNL     1      -1.684   0.442  -4.546  0.00  0.00    +0.004 A 
ATOM     21  C   UNL     1      -1.015   1.152  -3.565  0.00  0.00    -0.043 A 
ATOM     22  C   UNL     1      -0.554   2.429  -3.824  0.00  0.00    +0.004 A 
ATOM     23  C   UNL     1      -0.750   2.997  -5.067  0.00  0.00    +0.015 A 
BRANCH  18  25
ATOM     24  C   UNL     1      -0.910   4.648  -7.508  0.00  0.00    +0.090 C 
ATOM     25  S   UNL     1      -1.679   3.010  -7.641  0.00  0.00    -0.129 S 
ENDBRANCH  18  25
ENDBRANCH   1  21
TORSDOF 3
