REMARK  Name = ZINC00680334
REMARK  8 active torsions:
REMARK  status: ('A' for Active; 'I' for Inactive)
REMARK    1  A    between atoms: C_1  and  C_2
REMARK    2  A    between atoms: C_2  and  O_3
REMARK    3  A    between atoms: O_3  and  C_4
REMARK    4  A    between atoms: C_4  and  C_6
REMARK    5  A    between atoms: C_7  and  C_38
REMARK    6  A    between atoms: C_14  and  C_15
REMARK    7  A    between atoms: C_18  and  N_20
REMARK    8  A    between atoms: C_27  and  C_29
REMARK                            x       y       z     vdW  Elec       q    Type
REMARK                         _______ _______ _______ _____ _____    ______ ____
ROOT
ATOM      1  C   UNL     1      -1.735  -0.964   1.169  0.00  0.00    +0.085 C 
ATOM      2  C   UNL     1      -1.955  -2.193   1.726  0.00  0.00    +0.053 C 
ATOM      3  N   UNL     1      -1.697  -3.300   1.042  0.00  0.00    -0.228 NA
ATOM      4  C   UNL     1      -1.227  -3.331  -0.181  0.00  0.00    +0.178 A 
ATOM      5  N   UNL     1      -0.938  -2.209  -0.920  0.00  0.00    -0.275 N 
ATOM      6  C   UNL     1      -0.461  -2.376  -2.161  0.00  0.00    +0.268 A 
ATOM      7  O   UNL     1      -0.188  -1.417  -2.862  0.00  0.00    -0.266 OA
ATOM      8  C   UNL     1      -0.285  -3.698  -2.636  0.00  0.00    +0.084 A 
ATOM      9  C   UNL     1       0.184  -4.133  -3.858  0.00  0.00    +0.067 C 
ATOM     10  S   UNL     1      -0.830  -4.651  -1.229  0.00  0.00    -0.046 S 
ATOM     11  C   UNL     1      -1.193  -0.909  -0.241  0.00  0.00    +0.162 C 
ATOM     12  C   UNL     1      -2.495  -2.292   3.130  0.00  0.00    +0.066 C 
ENDROOT
BRANCH  11  13
ATOM     13  C   UNL     1       0.103  -0.140  -0.210  0.00  0.00    -0.016 A 
ATOM     14  C   UNL     1       1.280  -0.784   0.124  0.00  0.00    +0.010 A 
ATOM     15  C   UNL     1       2.470  -0.083   0.153  0.00  0.00    +0.050 A 
ATOM     16  C   UNL     1       2.487   1.269  -0.152  0.00  0.00    +0.166 A 
ATOM     17  C   UNL     1       1.301   1.918  -0.488  0.00  0.00    +0.167 A 
ATOM     18  C   UNL     1       0.112   1.208  -0.516  0.00  0.00    +0.055 A 
ATOM     19  O   UNL     1       1.579   3.229  -0.744  0.00  0.00    -0.453 OA
ATOM     20  C   UNL     1       2.876   3.467  -0.165  0.00  0.00    +0.466 C 
ATOM     21  O   UNL     1       3.508   2.174  -0.197  0.00  0.00    -0.453 OA
ENDBRANCH  11  13
BRANCH   9  22
ATOM     22  C   UNL     1       0.280  -5.510  -4.125  0.00  0.00    +0.131 A 
ATOM     23  C   UNL     1       0.731  -6.084  -5.303  0.00  0.00    +0.051 A 
ATOM     24  C   UNL     1       0.659  -7.467  -5.128  0.00  0.00    +0.066 A 
ATOM     25  C   UNL     1       0.174  -7.692  -3.872  0.00  0.00    +0.189 A 
ATOM     26  O   UNL     1      -0.046  -6.510  -3.274  0.00  0.00    -0.442 OA
BRANCH  25  27
ATOM     27  N   UNL     1      -0.049  -8.931  -3.307  0.00  0.00    -0.301 N 
ATOM     28  C   UNL     1      -0.945  -9.738  -4.145  0.00  0.00    +0.108 C 
ATOM     29  C   UNL     1      -1.053 -11.150  -3.565  0.00  0.00    +0.019 C 
ATOM     30  C   UNL     1      -1.595 -11.070  -2.136  0.00  0.00    +0.003 C 
ATOM     31  C   UNL     1      -0.670 -10.184  -1.296  0.00  0.00    +0.019 C 
ATOM     32  C   UNL     1      -0.573  -8.800  -1.941  0.00  0.00    +0.108 C 
ENDBRANCH  25  27
ENDBRANCH   9  22
BRANCH   1  33
ATOM     33  C   UNL     1      -2.005   0.213   1.885  0.00  0.00    +0.339 C 
ATOM     34  O   UNL     1      -2.363   0.149   3.048  0.00  0.00    -0.245 OA
BRANCH  33  35
ATOM     35  O   UNL     1      -1.867   1.415   1.286  0.00  0.00    -0.462 OA
BRANCH  35  37
ATOM     36  C   UNL     1      -1.948   3.830   1.232  0.00  0.00    +0.048 C 
ATOM     37  C   UNL     1      -2.159   2.571   2.075  0.00  0.00    +0.229 C 
ENDBRANCH  35  37
ENDBRANCH  33  35
ENDBRANCH   1  33
TORSDOF 6
