REMARK  Name = ZINC03021652
REMARK  11 active torsions:
REMARK  status: ('A' for Active; 'I' for Inactive)
REMARK    1  A    between atoms: C_1  and  C_2
REMARK    2  A    between atoms: C_2  and  N_3
REMARK    3  A    between atoms: N_3  and  C_4
REMARK    4  A    between atoms: N_3  and  S_6
REMARK    5  A    between atoms: C_4  and  C_5
REMARK    6  A    between atoms: S_6  and  C_9
REMARK    7  A    between atoms: C_20  and  S_23
REMARK    8  A    between atoms: S_23  and  C_24
REMARK    9  A    between atoms: C_24  and  C_25
REMARK   10  A    between atoms: N_27  and  C_28
REMARK   11  A    between atoms: C_31  and  C_35
REMARK                            x       y       z     vdW  Elec       q    Type
REMARK                         _______ _______ _______ _____ _____    ______ ____
ROOT
ATOM      1  C   UNL     1     -12.691   7.855  -0.726  0.00  0.00    +0.106 A 
ATOM      2  C   UNL     1     -13.641   6.848  -0.806  0.00  0.00    +0.030 A 
ATOM      3  C   UNL     1     -13.262   5.523  -0.784  0.00  0.00    +0.028 A 
ATOM      4  C   UNL     1     -11.917   5.185  -0.681  0.00  0.00    +0.050 A 
ATOM      5  C   UNL     1     -10.956   6.204  -0.600  0.00  0.00    +0.031 A 
ATOM      6  C   UNL     1     -11.353   7.539  -0.623  0.00  0.00    +0.040 A 
ATOM      7  C   UNL     1      -9.648   5.535  -0.503  0.00  0.00    +0.137 A 
ATOM      8  C   UNL     1      -9.909   4.149  -0.531  0.00  0.00    +0.162 A 
ATOM      9  N   UNL     1     -11.265   3.963  -0.637  0.00  0.00    -0.338 N 
ATOM     10  H   UNL     1     -11.704   3.099  -0.677  0.00  0.00    +0.167 HD
ATOM     11  N   UNL     1      -8.879   3.311  -0.462  0.00  0.00    -0.201 NA
ATOM     12  C   UNL     1      -7.650   3.801  -0.358  0.00  0.00    +0.212 A 
ATOM     13  N   UNL     1      -7.429   5.111  -0.333  0.00  0.00    -0.122 NA
ATOM     14  N   UNL     1      -8.397   5.960  -0.403  0.00  0.00    -0.143 NA
ENDROOT
BRANCH   1  15
ATOM     15  S   UNL     1     -13.195   9.543  -0.755  0.00  0.00    +0.061 S 
ATOM     16  O   UNL     1     -14.543   9.572  -0.308  0.00  0.00    -0.153 OA
ATOM     17  O   UNL     1     -12.165  10.285  -0.118  0.00  0.00    -0.153 OA
BRANCH  15  18
ATOM     18  N   UNL     1     -13.212  10.021  -2.341  0.00  0.00    -0.177 NA
BRANCH  18  20
ATOM     19  C   UNL     1     -15.223  11.178  -3.115  0.00  0.00    +0.022 C 
ATOM     20  C   UNL     1     -14.432   9.869  -3.138  0.00  0.00    +0.106 C 
ENDBRANCH  18  20
BRANCH  18  21
ATOM     21  C   UNL     1     -12.008  10.596  -2.946  0.00  0.00    +0.106 C 
ATOM     22  C   UNL     1     -11.225   9.497  -3.666  0.00  0.00    +0.022 C 
ENDBRANCH  18  21
ENDBRANCH  15  18
ENDBRANCH   1  15
BRANCH  12  23
ATOM     23  S   UNL     1      -6.284   2.692  -0.259  0.00  0.00    -0.075 S 
BRANCH  23  24
ATOM     24  C   UNL     1      -4.923   3.881  -0.146  0.00  0.00    +0.173 C 
BRANCH  24  25
ATOM     25  C   UNL     1      -3.615   3.139  -0.049  0.00  0.00    +0.227 C 
ATOM     26  O   UNL     1      -3.604   1.926  -0.055  0.00  0.00    -0.275 OA
ATOM     27  N   UNL     1      -2.457   3.822   0.045  0.00  0.00    -0.285 N 
ATOM     28  H   UNL     1      -2.470   4.789   0.127  0.00  0.00    +0.155 HD
BRANCH  27  29
ATOM     29  C   UNL     1      -1.237   3.138   0.024  0.00  0.00    +0.035 A 
ATOM     30  C   UNL     1      -0.161   3.611   0.765  0.00  0.00    +0.023 A 
ATOM     31  C   UNL     1       1.044   2.938   0.738  0.00  0.00    +0.006 A 
ATOM     32  C   UNL     1       1.178   1.787  -0.017  0.00  0.00    -0.032 A 
ATOM     33  C   UNL     1       0.107   1.310  -0.752  0.00  0.00    +0.046 A 
ATOM     34  C   UNL     1      -1.100   1.983  -0.733  0.00  0.00    +0.043 A 
ATOM     35 CL   UNL     1       0.280  -0.135  -1.699  0.00  0.00    -0.083 Cl
ATOM     36  C   UNL     1       2.493   1.052  -0.040  0.00  0.00    +0.045 C 
ENDBRANCH  27  29
ENDBRANCH  24  25
ENDBRANCH  23  24
ENDBRANCH  12  23
TORSDOF 8
