REMARK  Name = ZINC20914319
REMARK  14 active torsions:
REMARK  status: ('A' for Active; 'I' for Inactive)
REMARK    1  A    between atoms: C_1  and  C_2
REMARK    2  A    between atoms: C_2  and  C_34
REMARK    3  A    between atoms: C_4  and  N_10
REMARK    4  A    between atoms: C_6  and  C_8
REMARK    5  A    between atoms: C_6  and  C_9
REMARK    6  A    between atoms: C_11  and  C_13
REMARK    7  A    between atoms: C_13  and  S_14
REMARK    8  A    between atoms: S_14  and  C_15
REMARK    9  A    between atoms: N_19  and  N_20
REMARK   10  A    between atoms: N_21  and  N_22
REMARK   11  A    between atoms: C_23  and  C_24
REMARK   12  A    between atoms: C_27  and  C_30
REMARK   13  A    between atoms: C_30  and  O_32
REMARK   14  A    between atoms: O_32  and  C_33
REMARK                            x       y       z     vdW  Elec       q    Type
REMARK                         _______ _______ _______ _____ _____    ______ ____
ROOT
ATOM      1  C   UNL     1      -0.282   1.806  -2.292  0.00  0.00    +0.210 A 
ATOM      2  N   UNL     1      -1.310   2.232  -2.984  0.00  0.00    -0.119 NA
ATOM      3  N   UNL     1      -2.369   2.213  -2.257  0.00  0.00    -0.109 NA
ATOM      4  C   UNL     1      -2.083   1.769  -1.058  0.00  0.00    +0.254 A 
ATOM      5  N   UNL     1      -0.741   1.490  -1.041  0.00  0.00    -0.211 N 
ATOM      6  N   UNL     1      -2.971   1.611  -0.004  0.00  0.00    -0.204 N 
ATOM      7  H   UNL     1      -2.614   1.227   0.963  0.00  0.00    +0.177 HD
ENDROOT
BRANCH   5   8
ATOM      8  N   UNL     1      -0.012   1.005   0.008  0.00  0.00    -0.294 N 
ATOM      9  H   UNL     1      -0.504   0.791   0.968  0.00  0.00    +0.163 HD
ATOM     10  H   UNL     1       1.068   0.828  -0.108  0.00  0.00    +0.163 HD
ENDBRANCH   5   8
BRANCH   6  11
ATOM     11  N   UNL     1      -4.323   1.940  -0.172  0.00  0.00    -0.188 NA
ATOM     12  C   UNL     1      -5.155   1.791   0.816  0.00  0.00    +0.138 C 
BRANCH  12  13
ATOM     13  C   UNL     1      -6.575   2.137   0.640  0.00  0.00    -0.005 A 
ATOM     14  C   UNL     1      -7.028   2.631  -0.588  0.00  0.00    +0.010 A 
ATOM     15  C   UNL     1      -8.346   2.947  -0.752  0.00  0.00    +0.015 A 
ATOM     16  C   UNL     1      -9.241   2.788   0.310  0.00  0.00    +0.059 A 
ATOM     17  C   UNL     1      -8.788   2.298   1.540  0.00  0.00    +0.015 A 
ATOM     18  C   UNL     1      -7.471   1.977   1.704  0.00  0.00    +0.010 A 
BRANCH  16  19
ATOM     19  C   UNL     1     -10.663   3.135   0.135  0.00  0.00    +0.339 C 
ATOM     20  O   UNL     1     -11.441   2.997   1.058  0.00  0.00    -0.245 OA
BRANCH  19  21
ATOM     21  O   UNL     1     -11.100   3.607  -1.050  0.00  0.00    -0.464 OA
ATOM     22  C   UNL     1     -12.512   3.928  -1.151  0.00  0.00    +0.280 C 
ENDBRANCH  19  21
ENDBRANCH  16  19
ENDBRANCH  12  13
ENDBRANCH   6  11
BRANCH   1  23
ATOM     23  S   UNL     1       1.378   1.662  -2.866  0.00  0.00    -0.075 S 
BRANCH  23  24
ATOM     24  C   UNL     1       1.176   2.254  -4.564  0.00  0.00    +0.173 C 
BRANCH  24  26
ATOM     25  N   UNL     1       2.600   2.617  -6.554  0.00  0.00    -0.312 N 
ATOM     26  C   UNL     1       2.507   2.219  -5.270  0.00  0.00    +0.224 C 
ATOM     27  O   UNL     1       3.495   1.831  -4.682  0.00  0.00    -0.275 OA
ATOM     28  H   UNL     1       1.704   2.969  -7.087  0.00  0.00    +0.149 HD
BRANCH  25  32
ATOM     29  C   UNL     1       5.666   1.081  -9.320  0.00  0.00    -0.010 C 
ATOM     30  C   UNL     1       4.998   2.451  -9.492  0.00  0.00    -0.072 C 
ATOM     31  C   UNL     1       3.665   2.466  -8.748  0.00  0.00    +0.009 C 
ATOM     32  C   UNL     1       3.897   2.583  -7.242  0.00  0.00    +0.070 C 
ATOM     33  C   UNL     1       4.648   3.885  -6.965  0.00  0.00    +0.009 C 
ATOM     34  C   UNL     1       5.994   3.886  -7.686  0.00  0.00    -0.072 C 
ATOM     35  N   UNL     1       5.886   3.520  -9.083  0.00  0.00    +0.386 N 
ATOM     36  C   UNL     1       6.972   2.966  -6.946  0.00  0.00    -0.010 C 
ATOM     37  C   UNL     1       6.564   5.319  -7.606  0.00  0.00    -0.010 C 
ATOM     38  C   UNL     1       4.693   2.625 -10.996  0.00  0.00    -0.010 C 
ATOM     39  H   UNL     1       6.918   3.269  -9.370  0.00  0.00    -0.084 HD
ATOM     40  H   UNL     1       5.585   4.455  -9.578  0.00  0.00    -0.084 HD
ENDBRANCH  25  32
ENDBRANCH  24  26
ENDBRANCH  23  24
ENDBRANCH   1  23
TORSDOF 9
