REMARK  Name = ZINC22988989
REMARK  10 active torsions:
REMARK  status: ('A' for Active; 'I' for Inactive)
REMARK    1  A    between atoms: C_1  and  C_2
REMARK    2  A    between atoms: C_4  and  C_12
REMARK    3  A    between atoms: C_6  and  C_11
REMARK    4  A    between atoms: C_12  and  O_14
REMARK    5  A    between atoms: O_14  and  C_15
REMARK    6  A    between atoms: C_15  and  C_16
REMARK    7  A    between atoms: C_16  and  C_18
REMARK    8  A    between atoms: C_18  and  C_30
REMARK    9  A    between atoms: N_20  and  C_29
REMARK   10  A    between atoms: N_27  and  C_28
REMARK                            x       y       z     vdW  Elec       q    Type
REMARK                         _______ _______ _______ _____ _____    ______ ____
ROOT
ATOM      1  C   UNL     1      -0.549   3.863  -1.326  0.00  0.00    +0.214 C 
ATOM      2  O   UNL     1      -0.651   5.059  -1.520  0.00  0.00    -0.288 OA
ENDROOT
BRANCH   1   3
ATOM      3  C   UNL     1       0.723   3.276  -1.212  0.00  0.00    +0.134 C 
ATOM      4  C   UNL     1       1.583   3.240  -2.324  0.00  0.00    +0.118 C 
ATOM      5  N   UNL     1       1.261   3.643  -3.581  0.00  0.00    -0.289 N 
ATOM      6  C   UNL     1       2.371   3.455  -4.397  0.00  0.00    +0.056 A 
ATOM      7  C   UNL     1       2.608   3.690  -5.744  0.00  0.00    +0.025 A 
ATOM      8  C   UNL     1       3.840   3.389  -6.288  0.00  0.00    +0.002 A 
ATOM      9  C   UNL     1       4.841   2.852  -5.496  0.00  0.00    +0.002 A 
ATOM     10  C   UNL     1       4.616   2.614  -4.155  0.00  0.00    +0.025 A 
ATOM     11  C   UNL     1       3.381   2.914  -3.598  0.00  0.00    +0.056 A 
ATOM     12  N   UNL     1       2.864   2.790  -2.313  0.00  0.00    -0.289 N 
ATOM     13  C   UNL     1       3.579   2.266  -1.147  0.00  0.00    +0.137 C 
ATOM     14  C   UNL     1      -0.032   4.187  -4.003  0.00  0.00    +0.137 C 
BRANCH   3  15
ATOM     15  C   UNL     1       1.141   2.710   0.035  0.00  0.00    +0.106 C 
ATOM     16  N   UNL     1       1.472   2.261   1.024  0.00  0.00    -0.191 NA
ENDBRANCH   3  15
ENDBRANCH   1   3
BRANCH   1  17
ATOM     17  C   UNL     1      -1.786   3.010  -1.209  0.00  0.00    +0.312 C 
BRANCH  17  18
ATOM     18  O   UNL     1      -2.965   3.844  -1.361  0.00  0.00    -0.453 OA
BRANCH  18  19
ATOM     19  C   UNL     1      -4.162   3.231  -1.282  0.00  0.00    +0.340 C 
ATOM     20  O   UNL     1      -4.219   2.033  -1.090  0.00  0.00    -0.245 OA
BRANCH  19  24
ATOM     21  C   UNL     1      -6.707   7.041  -3.276  0.00  0.00    +0.066 C 
ATOM     22  C   UNL     1      -6.648   5.838  -2.372  0.00  0.00    +0.043 A 
ATOM     23  C   UNL     1      -5.461   5.131  -2.264  0.00  0.00    +0.039 A 
ATOM     24  C   UNL     1      -5.406   4.016  -1.427  0.00  0.00    +0.075 A 
ATOM     25  C   UNL     1      -6.577   3.661  -0.730  0.00  0.00    +0.077 A 
ATOM     26  C   UNL     1      -6.914   2.599   0.219  0.00  0.00    +0.091 A 
ATOM     27  N   UNL     1      -8.158   2.760   0.554  0.00  0.00    -0.080 NA
ATOM     28  O   UNL     1      -8.691   3.885  -0.116  0.00  0.00    -0.334 OA
ATOM     29  C   UNL     1      -7.737   4.437  -0.893  0.00  0.00    +0.260 A 
ATOM     30  N   UNL     1      -7.725   5.485  -1.703  0.00  0.00    -0.215 NA
ATOM     31  C   UNL     1      -5.989   1.516   0.712  0.00  0.00    +0.070 C 
ENDBRANCH  19  24
ENDBRANCH  18  19
ENDBRANCH  17  18
ENDBRANCH   1  17
TORSDOF 6
