REMARK  Name = ZINC39638159
REMARK  11 active torsions:
REMARK  status: ('A' for Active; 'I' for Inactive)
REMARK    1  A    between atoms: C_1  and  C_2
REMARK    2  A    between atoms: C_2  and  C_3
REMARK    3  A    between atoms: C_3  and  C_5
REMARK    4  A    between atoms: C_3  and  N_8
REMARK    5  A    between atoms: C_5  and  O_6
REMARK    6  A    between atoms: O_6  and  C_7
REMARK    7  A    between atoms: C_9  and  C_11
REMARK    8  A    between atoms: C_22  and  C_24
REMARK    9  A    between atoms: C_26  and  C_31
REMARK   10  A    between atoms: N_28  and  C_29
REMARK   11  A    between atoms: C_29  and  C_30
REMARK                            x       y       z     vdW  Elec       q    Type
REMARK                         _______ _______ _______ _____ _____    ______ ____
ROOT
ATOM      1  C   UNL     1      -0.803   1.599  -4.314  0.00  0.00    +0.100 C 
ATOM      2  C   UNL     1      -0.563   0.473  -5.345  0.00  0.00    +0.121 C 
ATOM      3  N   UNL     1      -0.412   1.177  -6.640  0.00  0.00    -0.295 N 
ATOM      4  C   UNL     1       0.374   2.391  -6.310  0.00  0.00    +0.115 C 
ATOM      5  C   UNL     1      -0.186   2.856  -4.951  0.00  0.00    -0.004 C 
ATOM      6  C   UNL     1       0.941   3.394  -4.074  0.00  0.00    -0.010 C 
ATOM      7  C   UNL     1       1.500   4.676  -4.698  0.00  0.00    -0.082 C 
ATOM      8  N   UNL     1       0.428   5.671  -4.818  0.00  0.00    +0.379 N 
ATOM      9  C   UNL     1      -0.607   5.184  -5.738  0.00  0.00    -0.082 C 
ATOM     10  C   UNL     1      -1.256   3.923  -5.158  0.00  0.00    -0.010 C 
ATOM     11  C   UNL     1      -0.882   0.800  -7.845  0.00  0.00    +0.266 C 
ATOM     12  O   UNL     1      -0.596   1.442  -8.838  0.00  0.00    -0.268 OA
ATOM     13  H   UNL     1       0.019   5.835  -3.910  0.00  0.00    -0.086 HD
ATOM     14  H   UNL     1       0.811   6.535  -5.173  0.00  0.00    -0.086 HD
ENDROOT
BRANCH  11  15
ATOM     15  C   UNL     1      -1.742  -0.388  -7.960  0.00  0.00    +0.138 A 
ATOM     16  C   UNL     1      -1.337  -1.683  -8.235  0.00  0.00    +0.071 A 
ATOM     17  C   UNL     1      -2.510  -2.444  -8.240  0.00  0.00    +0.075 A 
ATOM     18  N   UNL     1      -3.510  -1.640  -7.986  0.00  0.00    -0.175 NA
ATOM     19  N   UNL     1      -3.100  -0.435  -7.812  0.00  0.00    -0.258 N 
ATOM     20  C   UNL     1      -2.605  -3.926  -8.492  0.00  0.00    +0.069 C 
ATOM     21 BR   UNL     1       0.427  -2.294  -8.539  0.00  0.00    -0.046 Br
BRANCH  19  22
ATOM     22  C   UNL     1      -3.956   0.713  -7.506  0.00  0.00    +0.141 C 
ATOM     23  C   UNL     1      -4.521   1.289  -8.806  0.00  0.00    +0.029 C 
ENDBRANCH  19  22
ENDBRANCH  11  15
BRANCH   1  25
ATOM     24  N   UNL     1      -0.604   1.753  -1.853  0.00  0.00    -0.310 N 
ATOM     25  C   UNL     1      -0.112   1.276  -3.014  0.00  0.00    +0.218 C 
ATOM     26  O   UNL     1       0.886   0.587  -3.013  0.00  0.00    -0.275 OA
ATOM     27  H   UNL     1      -1.352   2.370  -1.861  0.00  0.00    +0.149 HD
BRANCH  24  28
ATOM     28  C   UNL     1      -0.008   1.339  -0.581  0.00  0.00    +0.098 C 
BRANCH  28  30
ATOM     29  C   UNL     1       2.070   2.670  -0.976  0.00  0.00    +0.006 C 
ATOM     30  C   UNL     1       0.876   2.466  -0.041  0.00  0.00    +0.021 C 
ENDBRANCH  28  30
BRANCH  28  31
ATOM     31  C   UNL     1      -1.118   1.035   0.427  0.00  0.00    +0.181 C 
BRANCH  31  32
ATOM     32  O   UNL     1      -1.838   2.234   0.719  0.00  0.00    -0.381 OA
ATOM     33  C   UNL     1      -2.903   2.059   1.656  0.00  0.00    +0.194 C 
ENDBRANCH  31  32
ENDBRANCH  28  31
ENDBRANCH  24  28
ENDBRANCH   1  25
TORSDOF 7
