REMARK  Name = ZINC15996942
REMARK  6 active torsions:
REMARK  status: ('A' for Active; 'I' for Inactive)
REMARK    1  A    between atoms: C_1  and  C_2
REMARK    2  A    between atoms: C_8  and  C_43
REMARK    3  A    between atoms: C_13  and  C_35
REMARK    4  A    between atoms: C_15  and  C_27
REMARK    5  A    between atoms: C_27  and  C_29
REMARK    6  A    between atoms: C_35  and  C_37
REMARK                            x       y       z     vdW  Elec       q    Type
REMARK                         _______ _______ _______ _____ _____    ______ ____
ROOT
ATOM      1  C   UNL     1      -1.309  -0.015  -0.593  0.00  0.00    +0.044 C 
ATOM      2  C   UNL     1      -1.089   1.470  -0.460  0.00  0.00    -0.050 A 
ATOM      3  C   UNL     1       0.162   2.005  -0.713  0.00  0.00    +0.005 A 
ATOM      4  C   UNL     1       0.381   3.366  -0.598  0.00  0.00    +0.024 A 
ATOM      5  C   UNL     1      -0.656   4.200  -0.229  0.00  0.00    +0.038 A 
ATOM      6  C   UNL     1      -1.932   3.657   0.036  0.00  0.00    -0.001 A 
ATOM      7  C   UNL     1      -2.138   2.290  -0.090  0.00  0.00    +0.013 A 
ATOM      8  C   UNL     1      -3.024   4.574   0.440  0.00  0.00    -0.044 C 
ATOM      9  C   UNL     1      -2.926   5.861   0.060  0.00  0.00    +0.000 C 
ATOM     10  C   UNL     1      -1.709   6.224  -0.735  0.00  0.00    +0.118 C 
ATOM     11  N   UNL     1      -0.530   5.564  -0.109  0.00  0.00    -0.311 N 
ATOM     12  C   UNL     1       0.620   6.225  -0.736  0.00  0.00    +0.157 C 
ATOM     13  C   UNL     1       0.203   7.723  -0.768  0.00  0.00    +0.110 C 
ATOM     14  C   UNL     1      -1.339   7.699  -0.729  0.00  0.00    +0.108 C 
ATOM     15  C   UNL     1      -1.870   8.428   0.457  0.00  0.00    -0.008 A 
ATOM     16  C   UNL     1      -1.699   8.235   1.811  0.00  0.00    +0.006 A 
ATOM     17  C   UNL     1      -2.352   9.118   2.664  0.00  0.00    +0.000 A 
ATOM     18  C   UNL     1      -3.135  10.144   2.174  0.00  0.00    +0.002 A 
ATOM     19  C   UNL     1      -3.313  10.346   0.815  0.00  0.00    +0.023 A 
ATOM     20  C   UNL     1      -2.664   9.466  -0.052  0.00  0.00    +0.038 A 
ATOM     21  N   UNL     1      -2.666   9.436  -1.437  0.00  0.00    -0.284 N 
ATOM     22  C   UNL     1      -1.910   8.425  -1.921  0.00  0.00    +0.231 C 
ATOM     23  O   UNL     1      -1.726   8.155  -3.089  0.00  0.00    -0.274 OA
ATOM     24  C   UNL     1      -4.199   4.083   1.246  0.00  0.00    +0.044 C 
ATOM     25  H   UNL     1      -3.151  10.065  -1.993  0.00  0.00    +0.155 HD
ENDROOT
BRANCH  13  26
ATOM     26  C   UNL     1       0.686   8.377  -2.037  0.00  0.00    +0.170 C 
ATOM     27  O   UNL     1       0.594   7.792  -3.091  0.00  0.00    -0.292 OA
BRANCH  26  28
ATOM     28  C   UNL     1       1.272   9.730  -1.994  0.00  0.00    +0.021 A 
ATOM     29  C   UNL     1       1.278  10.474  -0.807  0.00  0.00    +0.031 A 
ATOM     30  C   UNL     1       1.842  11.735  -0.812  0.00  0.00    +0.111 A 
ATOM     31  N   UNL     1       2.358  12.243  -1.913  0.00  0.00    -0.263 NA
ATOM     32  C   UNL     1       2.368  11.580  -3.053  0.00  0.00    +0.111 A 
ATOM     33  C   UNL     1       1.831  10.310  -3.139  0.00  0.00    +0.031 A 
ENDBRANCH  26  28
ENDBRANCH  13  26
BRANCH  12  34
ATOM     34  C   UNL     1       0.835   5.704  -2.134  0.00  0.00    +0.184 C 
ATOM     35  O   UNL     1      -0.097   5.243  -2.759  0.00  0.00    -0.290 OA
BRANCH  34  36
ATOM     36  C   UNL     1       2.174   5.756  -2.741  0.00  0.00    +0.019 A 
ATOM     37  C   UNL     1       3.268   6.203  -1.993  0.00  0.00    +0.011 A 
ATOM     38  C   UNL     1       4.521   6.243  -2.567  0.00  0.00    +0.001 A 
ATOM     39  C   UNL     1       4.696   5.854  -3.884  0.00  0.00    +0.000 A 
ATOM     40  C   UNL     1       3.617   5.416  -4.633  0.00  0.00    +0.001 A 
ATOM     41  C   UNL     1       2.359   5.364  -4.071  0.00  0.00    +0.011 A 
ENDBRANCH  34  36
ENDBRANCH  12  34
TORSDOF 4
