REMARK  Name = ZINC20686772
REMARK  15 active torsions:
REMARK  status: ('A' for Active; 'I' for Inactive)
REMARK    1  A    between atoms: C_1  and  C_2
REMARK    2  A    between atoms: N_8  and  S_9
REMARK    3  A    between atoms: S_9  and  C_12
REMARK    4  A    between atoms: C_18  and  C_24
REMARK    5  A    between atoms: N_26  and  C_27
REMARK    6  A    between atoms: C_27  and  C_28
REMARK    7  A    between atoms: C_28  and  N_29
REMARK    8  A    between atoms: N_29  and  C_30
REMARK    9  A    between atoms: N_29  and  C_34
REMARK   10  A    between atoms: C_30  and  C_31
REMARK   11  A    between atoms: C_31  and  C_32
REMARK   12  A    between atoms: C_31  and  C_33
REMARK   13  A    between atoms: C_34  and  C_35
REMARK   14  A    between atoms: C_35  and  C_36
REMARK   15  A    between atoms: C_35  and  C_37
REMARK                            x       y       z     vdW  Elec       q    Type
REMARK                         _______ _______ _______ _____ _____    ______ ____
ROOT
ATOM      1  C   UNL     1       5.218  -1.884  -2.137  0.00  0.00    +0.106 A 
ATOM      2  C   UNL     1       6.190  -0.911  -2.330  0.00  0.00    +0.030 A 
ATOM      3  C   UNL     1       6.437  -0.406  -3.588  0.00  0.00    +0.028 A 
ATOM      4  C   UNL     1       5.708  -0.875  -4.678  0.00  0.00    +0.050 A 
ATOM      5  C   UNL     1       4.725  -1.860  -4.477  0.00  0.00    +0.012 A 
ATOM      6  C   UNL     1       4.495  -2.362  -3.192  0.00  0.00    +0.039 A 
ATOM      7  C   UNL     1       3.953  -2.357  -5.626  0.00  0.00    +0.051 A 
ATOM      8  C   UNL     1       4.218  -1.841  -6.862  0.00  0.00    +0.083 A 
ATOM      9  C   UNL     1       5.252  -0.818  -7.007  0.00  0.00    +0.250 A 
ATOM     10  O   UNL     1       5.488  -0.357  -8.109  0.00  0.00    -0.268 OA
ATOM     11  N   UNL     1       5.945  -0.379  -5.942  0.00  0.00    -0.322 N 
ATOM     12  H   UNL     1       6.715   0.391  -6.095  0.00  0.00    +0.169 HD
ENDROOT
BRANCH   7  13
ATOM     13  C   UNL     1       2.910  -3.396  -5.446  0.00  0.00    +0.245 C 
ATOM     14  O   UNL     1       2.761  -3.927  -4.363  0.00  0.00    -0.270 OA
ATOM     15  N   UNL     1       2.126  -3.751  -6.484  0.00  0.00    -0.313 N 
ATOM     16  H   UNL     1       2.313  -3.331  -7.483  0.00  0.00    +0.149 HD
BRANCH  15  17
ATOM     17  C   UNL     1       1.025  -4.696  -6.280  0.00  0.00    +0.086 C 
BRANCH  17  18
ATOM     18  C   UNL     1       0.378  -5.021  -7.628  0.00  0.00    -0.060 C 
BRANCH  18  19
ATOM     19  N   UNL     1      -0.790  -5.886  -7.413  0.00  0.00    +0.381 N 
ATOM     20  H   UNL     1      -0.620  -6.463  -6.492  0.00  0.00    -0.082 HD
BRANCH  19  21
ATOM     21  C   UNL     1      -2.009  -5.088  -7.226  0.00  0.00    -0.076 C 
BRANCH  21  22
ATOM     22  C   UNL     1      -1.948  -4.372  -5.875  0.00  0.00    -0.034 C 
ATOM     23  C   UNL     1      -3.232  -3.567  -5.666  0.00  0.00    +0.005 C 
ATOM     24  C   UNL     1      -1.807  -5.407  -4.757  0.00  0.00    +0.005 C 
ENDBRANCH  21  22
ENDBRANCH  19  21
BRANCH  19  25
ATOM     25  C   UNL     1      -0.950  -6.839  -8.520  0.00  0.00    -0.076 C 
BRANCH  25  26
ATOM     26  C   UNL     1       0.087  -7.956  -8.384  0.00  0.00    -0.034 C 
ATOM     27  C   UNL     1      -0.154  -8.721  -7.081  0.00  0.00    +0.005 C 
ATOM     28  C   UNL     1      -0.039  -8.915  -9.569  0.00  0.00    +0.005 C 
ENDBRANCH  25  26
ENDBRANCH  19  25
ENDBRANCH  18  19
ENDBRANCH  17  18
ENDBRANCH  15  17
ENDBRANCH   7  13
BRANCH   1  29
ATOM     29  S   UNL     1       4.922  -2.513  -0.518  0.00  0.00    +0.061 S 
ATOM     30  O   UNL     1       6.032  -2.123   0.279  0.00  0.00    -0.153 OA
ATOM     31  O   UNL     1       4.535  -3.871  -0.674  0.00  0.00    -0.153 OA
BRANCH  29  38
ATOM     32  C   UNL     1       5.191   0.099   0.549  0.00  0.00    +0.026 C 
ATOM     33  C   UNL     1       3.752  -0.393   0.714  0.00  0.00    +0.077 C 
ATOM     34  C   UNL     1       2.792   0.589   0.034  0.00  0.00    +0.020 C 
ATOM     35  C   UNL     1       1.371   0.025   0.084  0.00  0.00    +0.003 C 
ATOM     36  C   UNL     1       1.320  -1.303  -0.674  0.00  0.00    +0.017 C 
ATOM     37  C   UNL     1       2.262  -2.307  -0.002  0.00  0.00    +0.110 C 
ATOM     38  N   UNL     1       3.603  -1.712   0.084  0.00  0.00    -0.174 NA
ENDBRANCH  29  38
ENDBRANCH   1  29
TORSDOF 10
