REMARK  Name = ZINC23846692
REMARK  11 active torsions:
REMARK  status: ('A' for Active; 'I' for Inactive)
REMARK    1  A    between atoms: C_1  and  C_2
REMARK    2  A    between atoms: C_7  and  C_9
REMARK    3  A    between atoms: C_7  and  C_10
REMARK    4  A    between atoms: N_13  and  C_17
REMARK    5  A    between atoms: C_17  and  N_18
REMARK    6  A    between atoms: N_18  and  C_19
REMARK    7  A    between atoms: N_18  and  C_32
REMARK    8  A    between atoms: C_19  and  C_20
REMARK    9  A    between atoms: C_23  and  C_25
REMARK   10  A    between atoms: C_32  and  C_33
REMARK   11  A    between atoms: C_32  and  C_34
REMARK                            x       y       z     vdW  Elec       q    Type
REMARK                         _______ _______ _______ _____ _____    ______ ____
ROOT
ATOM      1  N   UNL     1      -4.177  -4.030  -3.019  0.00  0.00    +0.398 N 
ATOM      2  H   UNL     1      -3.956  -4.133  -3.998  0.00  0.00    -0.078 HD
ENDROOT
BRANCH   1   3
ATOM      3  C   UNL     1      -4.823  -2.730  -2.797  0.00  0.00    -0.072 C 
ATOM      4  C   UNL     1      -5.976  -2.556  -3.788  0.00  0.00    -0.013 C 
ATOM      5  C   UNL     1      -5.366  -2.668  -1.368  0.00  0.00    -0.013 C 
ENDBRANCH   1   3
BRANCH   1   6
ATOM      6  C   UNL     1      -2.942  -4.106  -2.227  0.00  0.00    +0.044 C 
BRANCH   6  18
ATOM      7  C   UNL     1      -0.697   2.052  -4.927  0.00  0.00    +0.007 C 
ATOM      8  C   UNL     1      -0.165   0.716  -4.404  0.00  0.00    -0.011 C 
ATOM      9  C   UNL     1      -1.220   0.061  -3.508  0.00  0.00    +0.038 C 
ATOM     10  C   UNL     1      -0.682  -1.260  -2.971  0.00  0.00    +0.113 C 
ATOM     11  C   UNL     1       0.602  -1.039  -2.180  0.00  0.00    +0.041 C 
ATOM     12  C   UNL     1       1.651  -0.381  -3.081  0.00  0.00    -0.032 C 
ATOM     13  C   UNL     1       1.112   0.956  -3.596  0.00  0.00    +0.009 C 
ATOM     14  C   UNL     1       1.954  -1.299  -4.266  0.00  0.00    +0.011 C 
ATOM     15  C   UNL     1       2.932  -0.140  -2.280  0.00  0.00    +0.011 C 
ATOM     16  C   UNL     1      -1.721  -1.941  -2.110  0.00  0.00    +0.245 C 
ATOM     17  O   UNL     1      -2.216  -1.522  -1.086  0.00  0.00    -0.273 OA
ATOM     18  N   UNL     1      -1.984  -3.115  -2.722  0.00  0.00    -0.241 N 
ATOM     19  C   UNL     1      -1.258  -3.261  -3.838  0.00  0.00    +0.308 C 
ATOM     20  O   UNL     1      -1.321  -4.236  -4.561  0.00  0.00    -0.252 OA
ATOM     21  N   UNL     1      -0.453  -2.207  -4.069  0.00  0.00    -0.285 N 
ATOM     22  H   UNL     1       0.158  -2.095  -4.814  0.00  0.00    +0.151 HD
ENDBRANCH   6  18
ENDBRANCH   1   6
BRANCH   1  23
ATOM     23  C   UNL     1      -5.089  -5.106  -2.608  0.00  0.00    +0.023 C 
BRANCH  23  24
ATOM     24  C   UNL     1      -6.255  -5.168  -3.561  0.00  0.00    +0.202 A 
ATOM     25  N   UNL     1      -6.216  -5.569  -4.801  0.00  0.00    -0.114 NA
ATOM     26  N   UNL     1      -7.392  -5.490  -5.316  0.00  0.00    -0.107 NA
ATOM     27  C   UNL     1      -8.229  -5.032  -4.415  0.00  0.00    +0.248 A 
ATOM     28  O   UNL     1      -7.525  -4.825  -3.284  0.00  0.00    -0.422 OA
BRANCH  27  29
ATOM     29  C   UNL     1      -9.676  -4.793  -4.603  0.00  0.00    +0.039 A 
ATOM     30  C   UNL     1     -10.446  -4.295  -3.551  0.00  0.00    +0.014 A 
ATOM     31  C   UNL     1     -11.796  -4.074  -3.732  0.00  0.00    +0.021 A 
ATOM     32  C   UNL     1     -12.386  -4.346  -4.955  0.00  0.00    +0.041 A 
ATOM     33  C   UNL     1     -11.627  -4.841  -6.002  0.00  0.00    +0.021 A 
ATOM     34  C   UNL     1     -10.276  -5.061  -5.834  0.00  0.00    +0.014 A 
ATOM     35 CL   UNL     1     -14.085  -4.065  -5.176  0.00  0.00    -0.084 Cl
ENDBRANCH  27  29
ENDBRANCH  23  24
ENDBRANCH   1  23
TORSDOF 6
