REMARK  Name = ZINC19804565
REMARK  9 active torsions:
REMARK  status: ('A' for Active; 'I' for Inactive)
REMARK    1  A    between atoms: C_1  and  C_2
REMARK    2  A    between atoms: C_3  and  C_35
REMARK    3  A    between atoms: C_4  and  C_17
REMARK    4  A    between atoms: C_20  and  O_24
REMARK    5  A    between atoms: O_24  and  C_25
REMARK    6  A    between atoms: C_25  and  C_26
REMARK    7  A    between atoms: C_30  and  N_32
REMARK    8  A    between atoms: C_35  and  O_37
REMARK    9  A    between atoms: O_37  and  C_38
REMARK                            x       y       z     vdW  Elec       q    Type
REMARK                         _______ _______ _______ _____ _____    ______ ____
ROOT
ATOM      1  C   UNL     1       5.834   4.896  -0.616  0.00  0.00    +0.061 C 
ATOM      2  C   UNL     1       4.378   5.115  -0.296  0.00  0.00    +0.016 C 
ATOM      3  C   UNL     1       3.904   6.369  -0.294  0.00  0.00    +0.065 C 
ATOM      4  C   UNL     1       2.471   6.707   0.021  0.00  0.00    +0.093 C 
ATOM      5  C   UNL     1       1.656   5.437   0.017  0.00  0.00    +0.034 C 
ATOM      6  C   UNL     1       2.230   4.196   0.002  0.00  0.00    +0.047 C 
ATOM      7  N   UNL     1       3.597   4.024  -0.018  0.00  0.00    -0.317 N 
ATOM      8  C   UNL     1       1.169   3.168   0.008  0.00  0.00    +0.007 A 
ATOM      9  C   UNL     1       1.184   1.784   0.000  0.00  0.00    +0.010 A 
ATOM     10  C   UNL     1      -0.013   1.076   0.008  0.00  0.00    +0.001 A 
ATOM     11  C   UNL     1      -1.217   1.745   0.017  0.00  0.00    +0.001 A 
ATOM     12  C   UNL     1      -1.246   3.136   0.032  0.00  0.00    +0.012 A 
ATOM     13  C   UNL     1      -0.064   3.848   0.024  0.00  0.00    +0.031 A 
ATOM     14  C   UNL     1       0.253   5.306   0.029  0.00  0.00    +0.193 C 
ATOM     15  O   UNL     1      -0.554   6.215   0.042  0.00  0.00    -0.287 OA
ATOM     16  H   UNL     1       4.065   3.048   0.179  0.00  0.00    +0.152 HD
ENDROOT
BRANCH   4  17
ATOM     17  C   UNL     1       2.393   7.355   1.379  0.00  0.00    -0.034 A 
ATOM     18  C   UNL     1       2.823   6.666   2.499  0.00  0.00    +0.008 A 
ATOM     19  C   UNL     1       2.757   7.259   3.744  0.00  0.00    +0.047 A 
ATOM     20  C   UNL     1       2.250   8.544   3.874  0.00  0.00    +0.139 A 
ATOM     21  C   UNL     1       1.815   9.232   2.750  0.00  0.00    +0.083 A 
ATOM     22  C   UNL     1       1.887   8.636   1.505  0.00  0.00    +0.028 A 
ATOM     23 CL   UNL     1       1.180  10.840   2.907  0.00  0.00    -0.080 Cl
BRANCH  20  24
ATOM     24  O   UNL     1       2.181   9.128   5.099  0.00  0.00    -0.486 OA
BRANCH  24  25
ATOM     25  C   UNL     1       2.647   8.361   6.211  0.00  0.00    +0.264 C 
BRANCH  25  26
ATOM     26  C   UNL     1       2.493   9.165   7.476  0.00  0.00    -0.008 A 
ATOM     27  C   UNL     1       1.323   9.086   8.208  0.00  0.00    +0.007 A 
ATOM     28  C   UNL     1       1.182   9.823   9.368  0.00  0.00    +0.003 A 
ATOM     29  C   UNL     1       2.211  10.640   9.798  0.00  0.00    +0.033 A 
ATOM     30  C   UNL     1       3.381  10.720   9.066  0.00  0.00    +0.127 A 
ATOM     31  C   UNL     1       3.524   9.978   7.908  0.00  0.00    +0.039 A 
BRANCH  30  32
ATOM     32  N   UNL     1       4.483  11.594   9.526  0.00  0.00    +0.056 N 
ATOM     33  O   UNL     1       4.359  12.244  10.549  0.00  0.00    -0.126 OA
ATOM     34  O   UNL     1       5.514  11.664   8.881  0.00  0.00    -0.126 OA
ENDBRANCH  30  32
ENDBRANCH  25  26
ENDBRANCH  24  25
ENDBRANCH  20  24
ENDBRANCH   4  17
BRANCH   3  35
ATOM     35  C   UNL     1       4.792   7.425  -0.605  0.00  0.00    +0.337 C 
ATOM     36  O   UNL     1       5.956   7.184  -0.865  0.00  0.00    -0.245 OA
BRANCH  35  37
ATOM     37  O   UNL     1       4.349   8.699  -0.613  0.00  0.00    -0.465 OA
ATOM     38  C   UNL     1       5.300   9.716  -0.936  0.00  0.00    +0.280 C 
ENDBRANCH  35  37
ENDBRANCH   3  35
TORSDOF 7
