REMARK  Name = ZINC16662476
REMARK  3 active torsions:
REMARK  status: ('A' for Active; 'I' for Inactive)
REMARK    1  A    between atoms: C_5  and  N_7
REMARK    2  A    between atoms: C_11  and  N_12
REMARK    3  A    between atoms: N_12  and  C_13
REMARK                            x       y       z     vdW  Elec       q    Type
REMARK                         _______ _______ _______ _____ _____    ______ ____
ROOT
ATOM      1  N   UNL     1       1.230  -2.083  -0.022  0.00  0.00    -0.188 N 
ATOM      2  C   UNL     1       1.239  -2.748   1.151  0.00  0.00    +0.265 C 
ATOM      3  O   UNL     1       1.212  -2.148   2.210  0.00  0.00    -0.269 OA
ATOM      4  C   UNL     1       1.281  -4.221   1.118  0.00  0.00    +0.113 C 
ATOM      5  C   UNL     1       1.292  -4.970   2.281  0.00  0.00    +0.090 C 
ATOM      6  C   UNL     1       1.312  -4.861  -0.209  0.00  0.00    +0.258 C 
ATOM      7  O   UNL     1       1.347  -6.072  -0.318  0.00  0.00    -0.270 OA
ATOM      8  N   UNL     1       1.299  -4.068  -1.300  0.00  0.00    -0.235 N 
ATOM      9  C   UNL     1       1.255  -2.732  -1.195  0.00  0.00    +0.320 C 
ATOM     10  O   UNL     1       1.241  -2.074  -2.217  0.00  0.00    -0.251 OA
ATOM     11  H   UNL     1       1.319  -4.473  -2.181  0.00  0.00    +0.159 HD
ENDROOT
BRANCH   1  16
ATOM     12  C   UNL     1      -0.068   1.359  -0.010  0.00  0.00    +0.002 A 
ATOM     13  C   UNL     1       1.109   2.084  -0.001  0.00  0.00    +0.002 A 
ATOM     14  C   UNL     1       2.327   1.430   0.001  0.00  0.00    +0.022 A 
ATOM     15  C   UNL     1       2.371   0.049  -0.006  0.00  0.00    +0.063 A 
ATOM     16  C   UNL     1       1.190  -0.682  -0.015  0.00  0.00    +0.064 A 
ATOM     17  C   UNL     1      -0.031  -0.022  -0.017  0.00  0.00    +0.025 A 
ATOM     18 CL   UNL     1       3.901  -0.772  -0.004  0.00  0.00    -0.082 Cl
ENDBRANCH   1  16
BRANCH   5  19
ATOM     19  N   UNL     1       1.389  -4.355   3.477  0.00  0.00    -0.320 N 
ATOM     20  H   UNL     1       1.375  -3.387   3.528  0.00  0.00    +0.152 HD
BRANCH  19  21
ATOM     21  C   UNL     1       1.512  -5.115   4.646  0.00  0.00    +0.035 A 
ATOM     22  C   UNL     1       1.538  -6.502   4.573  0.00  0.00    +0.027 A 
ATOM     23  C   UNL     1       1.660  -7.253   5.726  0.00  0.00    +0.051 A 
ATOM     24  C   UNL     1       1.756  -6.626   6.958  0.00  0.00    +0.166 A 
ATOM     25  C   UNL     1       1.729  -5.236   7.034  0.00  0.00    +0.168 A 
ATOM     26  C   UNL     1       1.612  -4.483   5.878  0.00  0.00    +0.072 A 
ATOM     27  O   UNL     1       1.837  -4.868   8.345  0.00  0.00    -0.453 OA
ATOM     28  C   UNL     1       1.520  -6.051   9.103  0.00  0.00    +0.466 C 
ATOM     29  O   UNL     1       1.881  -7.130   8.221  0.00  0.00    -0.453 OA
ENDBRANCH  19  21
ENDBRANCH   5  19
TORSDOF 3
