REMARK  Name = ZINC02532037
REMARK  10 active torsions:
REMARK  status: ('A' for Active; 'I' for Inactive)
REMARK    1  A    between atoms: C_1  and  O_2
REMARK    2  A    between atoms: O_2  and  C_3
REMARK    3  A    between atoms: C_6  and  C_9
REMARK    4  A    between atoms: C_9  and  O_11
REMARK    5  A    between atoms: O_11  and  C_12
REMARK    6  A    between atoms: C_15  and  C_18
REMARK    7  A    between atoms: N_19  and  N_20
REMARK    8  A    between atoms: C_21  and  C_23
REMARK    9  A    between atoms: C_23  and  N_24
REMARK   10  A    between atoms: C_25  and  C_27
REMARK                            x       y       z     vdW  Elec       q    Type
REMARK                         _______ _______ _______ _____ _____    ______ ____
ROOT
ATOM      1  C   UNL     1       3.138   5.132  -0.029  0.00  0.00    +0.138 C 
ATOM      2  N   UNL     1       2.903   3.858   0.049  0.00  0.00    -0.188 NA
ENDROOT
BRANCH   1   6
ATOM      3  C   UNL     1       7.136   6.558  -0.037  0.00  0.00    +0.132 A 
ATOM      4  C   UNL     1       6.080   7.457  -0.118  0.00  0.00    +0.047 A 
ATOM      5  C   UNL     1       4.781   6.999  -0.116  0.00  0.00    +0.013 A 
ATOM      6  C   UNL     1       4.526   5.627  -0.032  0.00  0.00    -0.005 A 
ATOM      7  C   UNL     1       5.591   4.727   0.055  0.00  0.00    +0.013 A 
ATOM      8  C   UNL     1       6.888   5.194   0.047  0.00  0.00    +0.047 A 
BRANCH   3   9
ATOM      9  O   UNL     1       8.416   7.014  -0.040  0.00  0.00    -0.422 OA
BRANCH   9  10
ATOM     10  C   UNL     1       8.824   7.696   1.049  0.00  0.00    +0.344 C 
ATOM     11  O   UNL     1       8.096   7.788   2.017  0.00  0.00    -0.245 OA
BRANCH  10  15
ATOM     12  C   UNL     1      12.657   9.521   1.096  0.00  0.00    +0.120 A 
ATOM     13  C   UNL     1      11.825   9.628   2.204  0.00  0.00    +0.046 A 
ATOM     14  C   UNL     1      10.581   9.038   2.193  0.00  0.00    +0.018 A 
ATOM     15  C   UNL     1      10.155   8.330   1.065  0.00  0.00    +0.060 A 
ATOM     16  C   UNL     1      10.998   8.221  -0.046  0.00  0.00    +0.018 A 
ATOM     17  C   UNL     1      12.238   8.818  -0.028  0.00  0.00    +0.046 A 
BRANCH  12  19
ATOM     18  C   UNL     1      14.687   9.954  -0.061  0.00  0.00    +0.277 C 
ATOM     19  O   UNL     1      13.883  10.104   1.111  0.00  0.00    -0.495 OA
ENDBRANCH  12  19
ENDBRANCH  10  15
ENDBRANCH   9  10
ENDBRANCH   3   9
ENDBRANCH   1   6
BRANCH   2  20
ATOM     20  N   UNL     1       1.583   3.388   0.052  0.00  0.00    -0.206 N 
ATOM     21  C   UNL     1       1.340   2.064   0.134  0.00  0.00    +0.249 C 
ATOM     22  O   UNL     1       2.263   1.281   0.204  0.00  0.00    -0.272 OA
ATOM     23  H   UNL     1       0.845   4.014  -0.004  0.00  0.00    +0.177 HD
BRANCH  21  24
ATOM     24  C   UNL     1      -0.080   1.558   0.137  0.00  0.00    +0.202 C 
BRANCH  24  25
ATOM     25  N   UNL     1      -0.076   0.097   0.232  0.00  0.00    -0.303 N 
ATOM     26  C   UNL     1      -1.242  -0.580   0.252  0.00  0.00    +0.244 C 
ATOM     27  O   UNL     1      -2.296   0.023   0.190  0.00  0.00    -0.270 OA
ATOM     28  H   UNL     1       0.764  -0.385   0.282  0.00  0.00    +0.150 HD
BRANCH  26  29
ATOM     29  C   UNL     1      -1.239  -2.055   0.348  0.00  0.00    +0.038 A 
ATOM     30  C   UNL     1      -0.030  -2.751   0.414  0.00  0.00    +0.013 A 
ATOM     31  C   UNL     1      -0.034  -4.127   0.509  0.00  0.00    +0.002 A 
ATOM     32  C   UNL     1      -1.232  -4.819   0.529  0.00  0.00    +0.015 A 
ATOM     33  C   UNL     1      -2.434  -4.136   0.459  0.00  0.00    +0.019 A 
ATOM     34  C   UNL     1      -2.444  -2.759   0.369  0.00  0.00    +0.028 A 
ATOM     35 BR   UNL     1      -4.066  -5.092   0.487  0.00  0.00    -0.050 Br
ENDBRANCH  26  29
ENDBRANCH  24  25
ENDBRANCH  21  24
ENDBRANCH   2  20
TORSDOF 9
