REMARK  Name = ZINC01064882
REMARK  14 active torsions:
REMARK  status: ('A' for Active; 'I' for Inactive)
REMARK    1  A    between atoms: C_1  and  C_2
REMARK    2  A    between atoms: C_5  and  N_37
REMARK    3  A    between atoms: C_7  and  N_8
REMARK    4  A    between atoms: C_11  and  C_18
REMARK    5  A    between atoms: C_13  and  C_16
REMARK    6  A    between atoms: C_14  and  N_15
REMARK    7  A    between atoms: C_20  and  O_28
REMARK    8  A    between atoms: C_21  and  O_26
REMARK    9  A    between atoms: C_22  and  O_24
REMARK   10  A    between atoms: O_24  and  C_25
REMARK   11  A    between atoms: O_26  and  C_27
REMARK   12  A    between atoms: O_28  and  C_29
REMARK   13  A    between atoms: C_33  and  C_35
REMARK   14  A    between atoms: C_33  and  C_36
REMARK                            x       y       z     vdW  Elec       q    Type
REMARK                         _______ _______ _______ _____ _____    ______ ____
ROOT
ATOM      1  N   UNL     1      -2.731   6.597   0.061  0.00  0.00    -0.260 N 
ATOM      2  C   UNL     1      -2.062   6.570  -1.135  0.00  0.00    +0.025 C 
ATOM      3  C   UNL     1      -0.788   6.128  -1.200  0.00  0.00    +0.025 C 
ATOM      4  C   UNL     1      -0.074   5.636   0.034  0.00  0.00    +0.098 C 
ATOM      5  C   UNL     1      -0.760   6.111   1.281  0.00  0.00    +0.077 C 
ATOM      6  C   UNL     1      -2.040   6.563   1.251  0.00  0.00    +0.107 C 
ATOM      7  C   UNL     1      -0.087   6.114  -2.419  0.00  0.00    +0.162 C 
ATOM      8  O   UNL     1       1.055   5.700  -2.445  0.00  0.00    -0.292 OA
ATOM      9  C   UNL     1      -0.725   6.601  -3.691  0.00  0.00    +0.086 C 
ATOM     10  C   UNL     1      -1.776   7.663  -3.347  0.00  0.00    -0.023 C 
ATOM     11  C   UNL     1      -2.782   7.050  -2.370  0.00  0.00    +0.058 C 
ATOM     12  C   UNL     1      -1.095   8.868  -2.695  0.00  0.00    +0.011 C 
ATOM     13  C   UNL     1      -2.498   8.103  -4.622  0.00  0.00    +0.011 C 
ENDROOT
BRANCH   1  20
ATOM     14  C   UNL     1      -3.962   9.163   0.079  0.00  0.00    +0.045 C 
ATOM     15  C   UNL     1      -4.771   7.891   0.081  0.00  0.00    -0.029 A 
ATOM     16  C   UNL     1      -6.151   7.950   0.092  0.00  0.00    +0.007 A 
ATOM     17  C   UNL     1      -6.894   6.784   0.093  0.00  0.00    +0.033 A 
ATOM     18  C   UNL     1      -6.258   5.556   0.085  0.00  0.00    +0.128 A 
ATOM     19  C   UNL     1      -4.879   5.490   0.069  0.00  0.00    +0.056 A 
ATOM     20  C   UNL     1      -4.129   6.660   0.072  0.00  0.00    +0.045 A 
BRANCH  18  21
ATOM     21  N   UNL     1      -7.057   4.310   0.086  0.00  0.00    +0.056 N 
ATOM     22  O   UNL     1      -8.274   4.367   0.096  0.00  0.00    -0.126 OA
ATOM     23  O   UNL     1      -6.498   3.228   0.079  0.00  0.00    -0.126 OA
ENDBRANCH  18  21
ENDBRANCH   1  20
BRANCH   4  24
ATOM     24  C   UNL     1      -0.054   4.129   0.025  0.00  0.00    -0.028 A 
ATOM     25  C   UNL     1       1.153   3.456   0.010  0.00  0.00    +0.054 A 
ATOM     26  C   UNL     1       1.177   2.070   0.002  0.00  0.00    +0.165 A 
ATOM     27  C   UNL     1      -0.016   1.357   0.009  0.00  0.00    +0.204 A 
ATOM     28  C   UNL     1      -1.228   2.037   0.019  0.00  0.00    +0.165 A 
ATOM     29  C   UNL     1      -1.243   3.424   0.033  0.00  0.00    +0.054 A 
BRANCH  28  30
ATOM     30  O   UNL     1      -2.398   1.344   0.020  0.00  0.00    -0.491 OA
ATOM     31  C   UNL     1      -3.605   2.109   0.030  0.00  0.00    +0.277 C 
ENDBRANCH  28  30
BRANCH  27  32
ATOM     32  O   UNL     1       0.002  -0.004   0.002  0.00  0.00    -0.488 OA
ATOM     33  C   UNL     1       0.023  -0.660   1.272  0.00  0.00    +0.277 C 
ENDBRANCH  27  32
BRANCH  26  34
ATOM     34  O   UNL     1       2.365   1.409  -0.013  0.00  0.00    -0.491 OA
ATOM     35  C   UNL     1       3.551   2.206  -0.020  0.00  0.00    +0.277 C 
ENDBRANCH  26  34
ENDBRANCH   4  24
BRANCH   6  36
ATOM     36  N   UNL     1      -2.646   6.986   2.409  0.00  0.00    -0.345 N 
ATOM     37  H   UNL     1      -3.561   7.308   2.388  0.00  0.00    +0.144 HD
ATOM     38  H   UNL     1      -2.160   6.962   3.248  0.00  0.00    +0.144 HD
ENDBRANCH   6  36
BRANCH   5  39
ATOM     39  C   UNL     1      -0.053   6.089   2.526  0.00  0.00    +0.099 C 
ATOM     40  N   UNL     1       0.509   6.071   3.513  0.00  0.00    -0.191 NA
ENDBRANCH   5  39
TORSDOF 8
