REMARK  Name = ZINC05178952
REMARK  7 active torsions:
REMARK  status: ('A' for Active; 'I' for Inactive)
REMARK    1  A    between atoms: C_1  and  C_2
REMARK    2  A    between atoms: C_2  and  O_3
REMARK    3  A    between atoms: O_3  and  C_4
REMARK    4  A    between atoms: C_4  and  C_35
REMARK    5  A    between atoms: C_15  and  C_34
REMARK    6  A    between atoms: C_17  and  O_33
REMARK    7  A    between atoms: C_31  and  C_32
REMARK                            x       y       z     vdW  Elec       q    Type
REMARK                         _______ _______ _______ _____ _____    ______ ____
ROOT
ATOM      1  C   UNL     1      -5.777   4.457  -4.587  0.00  0.00    +0.284 C 
ATOM      2  O   UNL     1      -6.637   3.434  -5.080  0.00  0.00    -0.319 OA
ATOM      3  C   UNL     1      -6.794   2.310  -4.209  0.00  0.00    +0.243 C 
ATOM      4  C   UNL     1      -5.410   1.732  -3.990  0.00  0.00    +0.191 C 
ATOM      5  O   UNL     1      -5.228   0.535  -4.040  0.00  0.00    -0.292 OA
ATOM      6  C   UNL     1      -4.280   2.684  -3.710  0.00  0.00    +0.140 C 
ATOM      7  O   UNL     1      -4.505   3.983  -4.203  0.00  0.00    -0.312 OA
ATOM      8  C   UNL     1      -2.985   2.124  -4.357  0.00  0.00    +0.044 C 
ATOM      9  C   UNL     1      -2.077   1.645  -3.192  0.00  0.00    +0.008 C 
ATOM     10  C   UNL     1      -3.079   1.471  -2.043  0.00  0.00    +0.002 C 
ATOM     11  C   UNL     1      -3.966   2.720  -2.200  0.00  0.00    +0.010 C 
ATOM     12  C   UNL     1      -5.173   2.637  -1.302  0.00  0.00    +0.041 C 
ATOM     13  C   UNL     1      -4.839   1.940   0.032  0.00  0.00    +0.120 C 
ATOM     14  C   UNL     1      -3.364   2.085   0.360  0.00  0.00    +0.035 C 
ATOM     15  C   UNL     1      -2.525   1.302  -0.660  0.00  0.00    -0.000 C 
ATOM     16  C   UNL     1      -1.050   1.657  -0.527  0.00  0.00    +0.008 C 
ATOM     17  C   UNL     1      -0.566   1.252   0.879  0.00  0.00    +0.032 C 
ATOM     18  C   UNL     1      -1.482   1.935   1.878  0.00  0.00    -0.056 C 
ATOM     19  C   UNL     1      -0.966   2.753   2.781  0.00  0.00    +0.051 C 
ATOM     20  C   UNL     1      -1.836   3.449   3.745  0.00  0.00    +0.179 C 
ATOM     21  O   UNL     1      -1.383   4.279   4.512  0.00  0.00    -0.288 OA
ATOM     22  C   UNL     1      -3.268   3.109   3.768  0.00  0.00    +0.047 C 
ATOM     23  C   UNL     1      -3.760   2.276   2.859  0.00  0.00    -0.012 C 
ATOM     24  C   UNL     1      -2.964   1.664   1.766  0.00  0.00    +0.013 C 
ATOM     25  C   UNL     1      -3.163   0.159   1.917  0.00  0.00    +0.020 C 
ATOM     26  C   UNL     1      -3.191   4.019  -1.962  0.00  0.00    +0.015 C 
ATOM     27  C   UNL     1      -6.457   5.184  -3.421  0.00  0.00    +0.110 C 
ENDROOT
BRANCH  13  28
ATOM     28  O   UNL     1      -5.647   2.539   1.052  0.00  0.00    -0.391 OA
ATOM     29  H   UNL     1      -6.598   2.455   0.899  0.00  0.00    +0.210 HD
ENDBRANCH  13  28
BRANCH   1  30
ATOM     30  O   UNL     1      -5.598   5.421  -5.646  0.00  0.00    -0.327 OA
BRANCH  30  32
ATOM     31  C   UNL     1      -4.875   5.986  -7.881  0.00  0.00    +0.034 C 
ATOM     32  C   UNL     1      -5.016   4.880  -6.833  0.00  0.00    +0.162 C 
ENDBRANCH  30  32
ENDBRANCH   1  30
TORSDOF 3
