REMARK  Name = ZINC43190519
REMARK  7 active torsions:
REMARK  status: ('A' for Active; 'I' for Inactive)
REMARK    1  A    between atoms: C_4  and  N_7
REMARK    2  A    between atoms: C_9  and  C_19
REMARK    3  A    between atoms: C_10  and  C_12
REMARK    4  A    between atoms: N_20  and  N_21
REMARK    5  A    between atoms: C_22  and  C_24
REMARK    6  A    between atoms: C_24  and  N_25
REMARK    7  A    between atoms: C_26  and  C_28
REMARK                            x       y       z     vdW  Elec       q    Type
REMARK                         _______ _______ _______ _____ _____    ______ ____
ROOT
ATOM      1  C   UNL     1       5.815  -3.566  -0.152  0.00  0.00    +0.142 C 
ATOM      2  N   UNL     1       7.105  -3.632  -0.278  0.00  0.00    -0.188 NA
ENDROOT
BRANCH   1   5
ATOM      3  N   UNL     1       3.617  -0.688   0.107  0.00  0.00    -0.239 N 
ATOM      4  C   UNL     1       3.819  -2.021   0.138  0.00  0.00    +0.124 A 
ATOM      5  C   UNL     1       5.147  -2.253  -0.096  0.00  0.00    +0.040 A 
ATOM      6  C   UNL     1       5.776  -0.942  -0.280  0.00  0.00    +0.102 A 
ATOM      7  N   UNL     1       4.827  -0.039  -0.156  0.00  0.00    -0.166 NA
BRANCH   6   8
ATOM      8  C   UNL     1       7.208  -0.683  -0.557  0.00  0.00    +0.003 A 
ATOM      9  C   UNL     1       7.886  -1.448  -1.506  0.00  0.00    +0.013 A 
ATOM     10  C   UNL     1       9.220  -1.203  -1.761  0.00  0.00    +0.039 A 
ATOM     11  C   UNL     1       9.885  -0.199  -1.077  0.00  0.00    +0.123 A 
ATOM     12  C   UNL     1       9.216   0.563  -0.133  0.00  0.00    +0.039 A 
ATOM     13  C   UNL     1       7.881   0.330   0.125  0.00  0.00    +0.013 A 
ATOM     14  F   UNL     1      11.191   0.037  -1.330  0.00  0.00    -0.205 F 
ENDBRANCH   6   8
BRANCH   3  18
ATOM     15  C   UNL     1      -0.052   1.203   0.686  0.00  0.00    +0.000 A 
ATOM     16  C   UNL     1       1.080   1.956   0.433  0.00  0.00    +0.002 A 
ATOM     17  C   UNL     1       2.298   1.332   0.240  0.00  0.00    +0.028 A 
ATOM     18  C   UNL     1       2.384  -0.052   0.302  0.00  0.00    +0.065 A 
ATOM     19  C   UNL     1       1.245  -0.806   0.556  0.00  0.00    +0.028 A 
ATOM     20  C   UNL     1       0.031  -0.176   0.748  0.00  0.00    +0.002 A 
ENDBRANCH   3  18
ENDBRANCH   1   5
BRANCH   2  21
ATOM     21  N   UNL     1       7.740  -4.880  -0.331  0.00  0.00    -0.206 N 
ATOM     22  C   UNL     1       9.080  -4.949  -0.462  0.00  0.00    +0.249 C 
ATOM     23  O   UNL     1       9.736  -3.931  -0.535  0.00  0.00    -0.272 OA
ATOM     24  H   UNL     1       7.216  -5.694  -0.273  0.00  0.00    +0.177 HD
BRANCH  22  25
ATOM     25  C   UNL     1       9.763  -6.291  -0.519  0.00  0.00    +0.202 C 
BRANCH  25  26
ATOM     26  N   UNL     1      11.208  -6.098  -0.663  0.00  0.00    -0.303 N 
ATOM     27  C   UNL     1      12.027  -7.166  -0.735  0.00  0.00    +0.245 C 
ATOM     28  O   UNL     1      11.566  -8.290  -0.681  0.00  0.00    -0.270 OA
ATOM     29  H   UNL     1      11.575  -5.201  -0.706  0.00  0.00    +0.150 HD
BRANCH  27  30
ATOM     30  C   UNL     1      13.485  -6.971  -0.880  0.00  0.00    +0.038 A 
ATOM     31  C   UNL     1      14.017  -5.681  -0.937  0.00  0.00    +0.014 A 
ATOM     32  C   UNL     1      15.378  -5.505  -1.072  0.00  0.00    +0.022 A 
ATOM     33  C   UNL     1      16.217  -6.604  -1.152  0.00  0.00    +0.059 A 
ATOM     34  C   UNL     1      15.695  -7.887  -1.097  0.00  0.00    +0.060 A 
ATOM     35  C   UNL     1      14.335  -8.075  -0.956  0.00  0.00    +0.034 A 
ATOM     36 CL   UNL     1      16.754  -9.258  -1.199  0.00  0.00    -0.082 Cl
ATOM     37 CL   UNL     1      17.929  -6.374  -1.324  0.00  0.00    -0.082 Cl
ENDBRANCH  27  30
ENDBRANCH  25  26
ENDBRANCH  22  25
ENDBRANCH   2  21
TORSDOF 7
