REMARK  Name = ZINC22530476
REMARK  7 active torsions:
REMARK  status: ('A' for Active; 'I' for Inactive)
REMARK    1  A    between atoms: C_1  and  C_2
REMARK    2  A    between atoms: N_5  and  S_8
REMARK    3  A    between atoms: S_8  and  C_11
REMARK    4  A    between atoms: C_14  and  N_20
REMARK    5  A    between atoms: C_15  and  N_17
REMARK    6  A    between atoms: N_24  and  S_27
REMARK    7  A    between atoms: S_27  and  C_30
REMARK                            x       y       z     vdW  Elec       q    Type
REMARK                         _______ _______ _______ _____ _____    ______ ____
ROOT
ATOM      1  C   UNL     1      -7.702   3.998   4.897  0.00  0.00    +0.108 A 
ATOM      2  C   UNL     1      -7.044   2.953   5.518  0.00  0.00    +0.030 A 
ATOM      3  C   UNL     1      -6.011   2.304   4.872  0.00  0.00    +0.027 A 
ATOM      4  C   UNL     1      -5.624   2.710   3.601  0.00  0.00    +0.060 A 
ATOM      5  C   UNL     1      -6.287   3.760   2.979  0.00  0.00    +0.149 A 
ATOM      6  C   UNL     1      -7.324   4.401   3.629  0.00  0.00    +0.063 A 
ENDROOT
BRANCH   4   7
ATOM      7  N   UNL     1      -4.575   2.059   2.947  0.00  0.00    -0.327 N 
ATOM      8  C   UNL     1      -3.336   2.236   3.657  0.00  0.00    +0.106 C 
ATOM      9  C   UNL     1      -2.295   2.541   2.586  0.00  0.00    +0.036 C 
ATOM     10  C   UNL     1      -1.623   1.353   2.049  0.00  0.00    +0.110 C 
ATOM     11  N   UNL     1      -2.693   0.461   1.486  0.00  0.00    -0.180 NA
ATOM     12  C   UNL     1      -3.617  -0.170   2.387  0.00  0.00    +0.128 C 
ATOM     13  C   UNL     1      -4.893   0.622   2.728  0.00  0.00    +0.122 C 
BRANCH  11  14
ATOM     14  S   UNL     1      -2.809   0.213  -0.148  0.00  0.00    +0.029 S 
ATOM     15  O   UNL     1      -2.236   1.375  -0.732  0.00  0.00    -0.158 OA
ATOM     16  O   UNL     1      -4.175  -0.110  -0.369  0.00  0.00    -0.158 OA
ATOM     17  C   UNL     1      -1.764  -1.232  -0.476  0.00  0.00    +0.215 C 
ENDBRANCH  11  14
ENDBRANCH   4   7
BRANCH   1  18
ATOM     18  S   UNL     1      -9.025   4.819   5.722  0.00  0.00    +0.061 S 
ATOM     19  O   UNL     1      -8.826   4.612   7.114  0.00  0.00    -0.153 OA
ATOM     20  O   UNL     1      -9.117   6.117   5.150  0.00  0.00    -0.153 OA
BRANCH  18  25
ATOM     21  C   UNL     1     -14.647   3.693   5.691  0.00  0.00    +0.007 C 
ATOM     22  C   UNL     1     -13.191   3.451   5.290  0.00  0.00    -0.012 C 
ATOM     23  C   UNL     1     -12.355   3.178   6.543  0.00  0.00    +0.020 C 
ATOM     24  C   UNL     1     -10.905   2.902   6.134  0.00  0.00    +0.110 C 
ATOM     25  N   UNL     1     -10.421   4.025   5.319  0.00  0.00    -0.177 NA
ATOM     26  C   UNL     1     -11.203   4.434   4.145  0.00  0.00    +0.110 C 
ATOM     27  C   UNL     1     -12.647   4.689   4.572  0.00  0.00    +0.020 C 
ENDBRANCH  18  25
ENDBRANCH   1  18
BRANCH   5  28
ATOM     28  N   UNL     1      -5.884   4.191   1.623  0.00  0.00    +0.058 N 
ATOM     29  O   UNL     1      -6.397   5.175   1.118  0.00  0.00    -0.126 OA
ATOM     30  O   UNL     1      -5.039   3.563   1.010  0.00  0.00    -0.126 OA
ENDBRANCH   5  28
TORSDOF 5
