REMARK  Name = ZINC08595217
REMARK  3 active torsions:
REMARK  status: ('A' for Active; 'I' for Inactive)
REMARK    1  A    between atoms: C_1  and  C_2
REMARK    2  A    between atoms: C_5  and  N_8
REMARK    3  A    between atoms: C_11  and  C_18
REMARK                            x       y       z     vdW  Elec       q    Type
REMARK                         _______ _______ _______ _____ _____    ______ ____
ROOT
ATOM      1  N   UNL     1      -1.313  -2.071   2.461  0.00  0.00    -0.326 N 
ATOM      2  C   UNL     1      -1.195  -2.774   3.643  0.00  0.00    +0.135 A 
ATOM      3  C   UNL     1      -1.782  -2.297   4.825  0.00  0.00    +0.108 A 
ATOM      4  C   UNL     1      -2.580  -1.118   5.180  0.00  0.00    +0.126 A 
ATOM      5  N   UNL     1      -2.852  -1.208   6.456  0.00  0.00    -0.075 NA
ATOM      6  O   UNL     1      -2.279  -2.390   6.979  0.00  0.00    -0.334 OA
ATOM      7  C   UNL     1      -1.634  -3.049   6.002  0.00  0.00    +0.264 A 
ATOM      8  N   UNL     1      -0.941  -4.183   5.950  0.00  0.00    -0.198 NA
ATOM      9  C   UNL     1      -0.405  -4.594   4.820  0.00  0.00    +0.227 A 
ATOM     10  N   UNL     1      -0.525  -3.923   3.690  0.00  0.00    -0.220 NA
ATOM     11  H   UNL     1      -1.733  -1.197   2.456  0.00  0.00    +0.148 HD
ENDROOT
BRANCH   1  16
ATOM     12  C   UNL     1       0.341   1.301  -0.141  0.00  0.00    +0.007 C 
ATOM     13  C   UNL     1       0.136  -0.215  -0.124  0.00  0.00    -0.014 C 
ATOM     14  C   UNL     1      -1.356  -0.526   0.011  0.00  0.00    +0.005 C 
ATOM     15  C   UNL     1      -1.561  -2.042   0.028  0.00  0.00    +0.022 C 
ATOM     16  C   UNL     1      -0.805  -2.646   1.213  0.00  0.00    +0.072 C 
ATOM     17  C   UNL     1       0.687  -2.335   1.078  0.00  0.00    +0.022 C 
ATOM     18  C   UNL     1       0.892  -0.819   1.061  0.00  0.00    +0.005 C 
ENDBRANCH   1  16
BRANCH   4  19
ATOM     19  C   UNL     1      -2.997  -0.028   4.265  0.00  0.00    +0.005 A 
ATOM     20  C   UNL     1      -3.534  -0.332   3.015  0.00  0.00    +0.013 A 
ATOM     21  C   UNL     1      -3.921   0.684   2.167  0.00  0.00    +0.039 A 
ATOM     22  C   UNL     1      -3.777   2.007   2.557  0.00  0.00    +0.123 A 
ATOM     23  C   UNL     1      -3.243   2.314   3.798  0.00  0.00    +0.039 A 
ATOM     24  C   UNL     1      -2.858   1.303   4.655  0.00  0.00    +0.013 A 
ATOM     25  F   UNL     1      -4.157   2.999   1.723  0.00  0.00    -0.205 F 
ENDBRANCH   4  19
TORSDOF 2
