REMARK  Name = ZINC40986854
REMARK  6 active torsions:
REMARK  status: ('A' for Active; 'I' for Inactive)
REMARK    1  A    between atoms: C_3  and  C_6
REMARK    2  A    between atoms: C_6  and  N_7
REMARK    3  A    between atoms: C_8  and  C_10
REMARK    4  A    between atoms: C_14  and  N_15
REMARK    5  A    between atoms: C_16  and  C_18
REMARK    6  A    between atoms: C_20  and  C_23
REMARK                            x       y       z     vdW  Elec       q    Type
REMARK                         _______ _______ _______ _____ _____    ______ ____
ROOT
ATOM      1  C   UNL     1       5.930   0.556   2.957  0.00  0.00    +0.069 A 
ATOM      2  C   UNL     1       6.165  -0.693   3.660  0.00  0.00    -0.023 A 
ATOM      3  C   UNL     1       6.627  -0.539   4.920  0.00  0.00    -0.004 A 
ATOM      4  S   UNL     1       6.739   1.211   5.147  0.00  0.00    -0.077 S 
ATOM      5  C   UNL     1       6.205   1.730   3.642  0.00  0.00    +0.085 A 
ATOM      6  C   UNL     1       6.963  -1.626   5.894  0.00  0.00    +0.043 C 
ATOM      7  C   UNL     1       6.348  -2.938   5.383  0.00  0.00    +0.005 C 
ATOM      8  C   UNL     1       6.695  -3.103   3.901  0.00  0.00    +0.005 C 
ATOM      9  C   UNL     1       5.928  -2.074   3.068  0.00  0.00    +0.037 C 
ENDROOT
BRANCH   1  11
ATOM     10  N   UNL     1       4.101   0.607   1.347  0.00  0.00    -0.304 N 
ATOM     11  C   UNL     1       5.428   0.575   1.580  0.00  0.00    +0.247 C 
ATOM     12  O   UNL     1       6.209   0.561   0.647  0.00  0.00    -0.270 OA
ATOM     13  H   UNL     1       3.478   0.617   2.090  0.00  0.00    +0.149 HD
BRANCH  10  14
ATOM     14  C   UNL     1       3.599   0.625  -0.029  0.00  0.00    +0.179 C 
BRANCH  14  17
ATOM     15  C   UNL     1      -0.016   1.341   0.009  0.00  0.00    +0.041 A 
ATOM     16  C   UNL     1       1.331   1.769  -0.001  0.00  0.00    +0.046 A 
ATOM     17  C   UNL     1       2.092   0.660  -0.014  0.00  0.00    +0.122 A 
ATOM     18  O   UNL     1       1.282  -0.411  -0.012  0.00  0.00    -0.466 OA
ATOM     19  C   UNL     1       0.002  -0.004   0.002  0.00  0.00    +0.195 A 
ENDBRANCH  14  17
ENDBRANCH  10  14
ENDBRANCH   1  11
BRANCH   5  20
ATOM     20  N   UNL     1       6.069   3.032   3.188  0.00  0.00    -0.274 N 
ATOM     21  C   UNL     1       6.386   4.063   3.996  0.00  0.00    +0.270 C 
ATOM     22  O   UNL     1       6.792   3.851   5.121  0.00  0.00    -0.268 OA
ATOM     23  H   UNL     1       5.744   3.201   2.290  0.00  0.00    +0.156 HD
BRANCH  21  24
ATOM     24  C   UNL     1       6.239   5.457   3.511  0.00  0.00    +0.169 A 
ATOM     25  C   UNL     1       6.538   6.626   4.244  0.00  0.00    +0.086 A 
ATOM     26  C   UNL     1       6.271   7.697   3.449  0.00  0.00    +0.168 A 
ATOM     27  O   UNL     1       5.822   7.235   2.267  0.00  0.00    -0.354 OA
ATOM     28  N   UNL     1       5.814   5.820   2.324  0.00  0.00    -0.073 NA
BRANCH  26  29
ATOM     29  C   UNL     1       6.441   9.118   3.819  0.00  0.00    +0.023 A 
ATOM     30  C   UNL     1       6.923   9.460   5.084  0.00  0.00    +0.014 A 
ATOM     31  C   UNL     1       7.081  10.787   5.425  0.00  0.00    +0.042 A 
ATOM     32  C   UNL     1       6.762  11.781   4.514  0.00  0.00    +0.158 A 
ATOM     33  C   UNL     1       6.282  11.448   3.255  0.00  0.00    +0.159 A 
ATOM     34  C   UNL     1       6.127  10.122   2.902  0.00  0.00    +0.053 A 
ATOM     35  F   UNL     1       5.973  12.423   2.372  0.00  0.00    -0.202 F 
ATOM     36  F   UNL     1       6.918  13.080   4.854  0.00  0.00    -0.202 F 
ENDBRANCH  26  29
ENDBRANCH  21  24
ENDBRANCH   5  20
TORSDOF 6
