REMARK  Name = ZINC38053448
REMARK  3 active torsions:
REMARK  status: ('A' for Active; 'I' for Inactive)
REMARK    1  A    between atoms: C_4  and  C_10
REMARK    2  A    between atoms: C_6  and  N_7
REMARK    3  A    between atoms: C_10  and  N_11
REMARK                            x       y       z     vdW  Elec       q    Type
REMARK                         _______ _______ _______ _____ _____    ______ ____
ROOT
ATOM      1  C   UNL     1      -0.017   1.378   0.010  0.00  0.00    +0.034 A 
ATOM      2  C   UNL     1       1.171   2.086   0.002  0.00  0.00    +0.022 A 
ATOM      3  C   UNL     1       2.378   1.410  -0.013  0.00  0.00    +0.046 A 
ATOM      4  C   UNL     1       2.396   0.027  -0.021  0.00  0.00    -0.006 A 
ATOM      5  C   UNL     1       1.208  -0.680  -0.013  0.00  0.00    +0.039 A 
ATOM      6  C   UNL     1       0.002  -0.004   0.002  0.00  0.00    +0.127 A 
ATOM      7 CL   UNL     1       3.870   2.298  -0.023  0.00  0.00    -0.083 Cl
ENDROOT
BRANCH   6   8
ATOM      8  N   UNL     1      -1.270  -0.761   0.011  0.00  0.00    +0.056 N 
ATOM      9  O   UNL     1      -2.325  -0.171   0.024  0.00  0.00    -0.126 OA
ATOM     10  O   UNL     1      -1.254  -1.970   0.004  0.00  0.00    -0.126 OA
ENDBRANCH   6   8
BRANCH   4  11
ATOM     11  C   UNL     1       3.711  -0.710  -0.038  0.00  0.00    +0.180 C 
BRANCH  11  12
ATOM     12  N   UNL     1       4.240  -0.732  -1.403  0.00  0.00    -0.266 N 
ATOM     13  C   UNL     1       5.461  -0.302  -1.789  0.00  0.00    +0.128 A 
ATOM     14  C   UNL     1       5.563  -0.494  -3.125  0.00  0.00    +0.078 A 
ATOM     15  C   UNL     1       4.363  -1.060  -3.571  0.00  0.00    +0.154 A 
ATOM     16  N   UNL     1       3.572  -1.208  -2.539  0.00  0.00    -0.178 NA
ATOM     17 CL   UNL     1       6.938  -0.106  -4.112  0.00  0.00    -0.080 Cl
ENDBRANCH  11  12
ENDBRANCH   4  11
TORSDOF 3
