REMARK  Name = ZINC15143789
REMARK  5 active torsions:
REMARK  status: ('A' for Active; 'I' for Inactive)
REMARK    1  A    between atoms: C_1  and  C_2
REMARK    2  A    between atoms: C_5  and  C_8
REMARK    3  A    between atoms: C_13  and  N_17
REMARK    4  A    between atoms: C_22  and  C_23
REMARK    5  A    between atoms: C_22  and  N_55
REMARK                            x       y       z     vdW  Elec       q    Type
REMARK                         _______ _______ _______ _____ _____    ______ ____
ROOT
ATOM      1  N   UNL     1      -1.012   2.332   0.471  0.00  0.00    -0.318 N 
ATOM      2  C   UNL     1      -0.971   3.348   1.532  0.00  0.00    +0.088 C 
ATOM      3  C   UNL     1      -2.265   4.165   1.503  0.00  0.00    -0.059 C 
ATOM      4  C   UNL     1      -3.455   2.249   0.624  0.00  0.00    -0.059 C 
ATOM      5  C   UNL     1      -2.161   1.432   0.652  0.00  0.00    +0.088 C 
ATOM      6  N   UNL     1      -3.409   3.252   1.709  0.00  0.00    +0.385 N 
ATOM      7  H   UNL     1      -3.293   2.767   2.606  0.00  0.00    -0.081 HD
ENDROOT
BRANCH   1  13
ATOM      8  C   UNL     1       0.973   2.682  -1.820  0.00  0.00    +0.002 A 
ATOM      9  C   UNL     1       1.976   2.680  -2.729  0.00  0.00    +0.056 A 
ATOM     10  S   UNL     1       3.127   1.486  -2.077  0.00  0.00    -0.076 S 
ATOM     11  C   UNL     1       2.247   1.019  -0.611  0.00  0.00    +0.114 A 
ATOM     12  C   UNL     1       1.075   1.802  -0.661  0.00  0.00    +0.055 A 
ATOM     13  C   UNL     1       0.172   1.619   0.420  0.00  0.00    +0.133 A 
ATOM     14  N   UNL     1       0.475   0.755   1.376  0.00  0.00    -0.220 NA
ATOM     15  C   UNL     1       1.594   0.053   1.359  0.00  0.00    +0.224 A 
ATOM     16  N   UNL     1       2.470   0.179   0.382  0.00  0.00    -0.228 NA
BRANCH   8  21
ATOM     17  C   UNL     1      -3.611   6.096  -2.519  0.00  0.00    +0.044 C 
ATOM     18  C   UNL     1      -2.411   5.202  -2.336  0.00  0.00    -0.050 A 
ATOM     19  C   UNL     1      -1.143   5.752  -2.293  0.00  0.00    +0.004 A 
ATOM     20  C   UNL     1      -0.040   4.939  -2.126  0.00  0.00    +0.009 A 
ATOM     21  C   UNL     1      -0.207   3.561  -2.000  0.00  0.00    -0.017 A 
ATOM     22  C   UNL     1      -1.488   3.012  -2.047  0.00  0.00    +0.009 A 
ATOM     23  C   UNL     1      -2.583   3.835  -2.210  0.00  0.00    +0.004 A 
ENDBRANCH   8  21
ENDBRANCH   1  13
BRANCH   6  24
ATOM     24  C   UNL     1      -4.671   4.022   1.738  0.00  0.00    -0.022 C 
BRANCH  24  25
ATOM     25  C   UNL     1      -4.690   4.877   2.979  0.00  0.00    +0.033 A 
ATOM     26  C   UNL     1      -4.687   6.252   2.884  0.00  0.00    +0.092 A 
ATOM     27  C   UNL     1      -4.710   7.027   4.044  0.00  0.00    +0.259 A 
ATOM     28  O   UNL     1      -4.712   8.245   3.965  0.00  0.00    -0.267 OA
ATOM     29  N   UNL     1      -4.725   6.420   5.268  0.00  0.00    -0.262 N 
ATOM     30  C   UNL     1      -4.742   7.042   6.494  0.00  0.00    +0.104 A 
ATOM     31  C   UNL     1      -4.755   6.336   7.624  0.00  0.00    +0.067 A 
ATOM     32  S   UNL     1      -4.744   4.660   7.008  0.00  0.00    -0.058 S 
ATOM     33  C   UNL     1      -4.722   5.051   5.271  0.00  0.00    +0.180 A 
ATOM     34  N   UNL     1      -4.705   4.317   4.186  0.00  0.00    -0.229 NA
ENDBRANCH  24  25
ENDBRANCH   6  24
TORSDOF 4
