REMARK  Name = ZINC39945822
REMARK  8 active torsions:
REMARK  status: ('A' for Active; 'I' for Inactive)
REMARK    1  A    between atoms: C_1  and  O_2
REMARK    2  A    between atoms: O_2  and  C_3
REMARK    3  A    between atoms: C_3  and  C_5
REMARK    4  A    between atoms: C_7  and  N_16
REMARK    5  A    between atoms: C_17  and  C_19
REMARK    6  A    between atoms: C_19  and  S_20
REMARK    7  A    between atoms: S_20  and  C_21
REMARK    8  A    between atoms: C_25  and  C_27
REMARK                            x       y       z     vdW  Elec       q    Type
REMARK                         _______ _______ _______ _____ _____    ______ ____
ROOT
ATOM      1  N   UNL     1       2.524  -1.653   0.467  0.00  0.00    -0.301 N 
ATOM      2  C   UNL     1       2.721  -1.407   1.778  0.00  0.00    +0.224 C 
ATOM      3  O   UNL     1       2.069  -2.001   2.610  0.00  0.00    -0.275 OA
ATOM      4  H   UNL     1       3.046  -1.178  -0.199  0.00  0.00    +0.150 HD
ENDROOT
BRANCH   1   6
ATOM      5  C   UNL     1       0.657  -2.104  -1.120  0.00  0.00    +0.155 C 
ATOM      6  C   UNL     1       1.522  -2.636   0.048  0.00  0.00    +0.153 C 
ATOM      7  S   UNL     1       2.297  -4.071  -0.808  0.00  0.00    -0.106 S 
ATOM      8  C   UNL     1       2.083  -3.518  -2.484  0.00  0.00    -0.013 C 
ATOM      9  C   UNL     1       1.226  -2.506  -2.457  0.00  0.00    -0.044 C 
ATOM     10  C   UNL     1       0.828  -1.781  -3.741  0.00  0.00    +0.032 C 
ATOM     11  C   UNL     1       1.860  -2.080  -4.827  0.00  0.00    +0.005 C 
ATOM     12  C   UNL     1       2.048  -3.596  -4.949  0.00  0.00    +0.005 C 
ATOM     13  C   UNL     1       2.760  -4.099  -3.693  0.00  0.00    +0.042 C 
BRANCH   5  14
ATOM     14  C   UNL     1       0.598  -0.600  -1.043  0.00  0.00    +0.317 C 
ATOM     15  O   UNL     1       1.474   0.066  -1.543  0.00  0.00    -0.250 OA
BRANCH  14  17
ATOM     16  C   UNL     1      -0.419   1.429  -0.383  0.00  0.00    +0.280 C 
ATOM     17  O   UNL     1      -0.427   0.001  -0.418  0.00  0.00    -0.467 OA
ENDBRANCH  14  17
ENDBRANCH   5  14
ENDBRANCH   1   6
BRANCH   2  18
ATOM     18  C   UNL     1       3.752  -0.396   2.208  0.00  0.00    +0.173 C 
BRANCH  18  19
ATOM     19  S   UNL     1       3.780  -0.294   4.019  0.00  0.00    -0.077 S 
BRANCH  19  20
ATOM     20  C   UNL     1       5.018   0.913   4.359  0.00  0.00    +0.185 A 
ATOM     21  N   UNL     1       5.404   1.330   5.585  0.00  0.00    -0.253 N 
ATOM     22  H   UNL     1       5.057   1.025   6.438  0.00  0.00    +0.191 HD
ATOM     23  N   UNL     1       6.407   2.291   5.382  0.00  0.00    -0.152 NA
ATOM     24  C   UNL     1       6.572   2.404   4.083  0.00  0.00    +0.184 A 
ATOM     25  N   UNL     1       5.731   1.562   3.465  0.00  0.00    -0.201 NA
BRANCH  24  26
ATOM     26  C   UNL     1       7.535   3.310   3.411  0.00  0.00    +0.039 A 
ATOM     27  C   UNL     1       7.610   3.342   2.019  0.00  0.00    +0.014 A 
ATOM     28  C   UNL     1       8.507   4.186   1.399  0.00  0.00    +0.021 A 
ATOM     29  C   UNL     1       9.332   5.002   2.155  0.00  0.00    +0.042 A 
ATOM     30  C   UNL     1       9.262   4.974   3.537  0.00  0.00    +0.040 A 
ATOM     31  C   UNL     1       8.364   4.136   4.168  0.00  0.00    +0.053 A 
ATOM     32 CL   UNL     1       8.272   4.107   5.902  0.00  0.00    -0.083 Cl
ATOM     33 CL   UNL     1      10.459   6.061   1.367  0.00  0.00    -0.083 Cl
ENDBRANCH  24  26
ENDBRANCH  19  20
ENDBRANCH  18  19
ENDBRANCH   2  18
TORSDOF 7
