REMARK  Name = ZINC28060723
REMARK  9 active torsions:
REMARK  status: ('A' for Active; 'I' for Inactive)
REMARK    1  A    between atoms: C_1  and  C_2
REMARK    2  A    between atoms: C_10  and  C_18
REMARK    3  A    between atoms: C_23  and  C_26
REMARK    4  A    between atoms: C_28  and  O_36
REMARK    5  A    between atoms: C_29  and  O_34
REMARK    6  A    between atoms: C_30  and  O_32
REMARK    7  A    between atoms: O_32  and  C_33
REMARK    8  A    between atoms: O_34  and  C_35
REMARK    9  A    between atoms: O_36  and  C_37
REMARK                            x       y       z     vdW  Elec       q    Type
REMARK                         _______ _______ _______ _____ _____    ______ ____
ROOT
ATOM      1  C   UNL     1      -2.391   0.088  -0.660  0.00  0.00    +0.044 C 
ATOM      2  C   UNL     1      -1.218   1.025  -0.527  0.00  0.00    -0.050 A 
ATOM      3  C   UNL     1      -1.433   2.390  -0.446  0.00  0.00    +0.007 A 
ATOM      4  C   UNL     1      -0.366   3.264  -0.332  0.00  0.00    +0.046 A 
ATOM      5  C   UNL     1       0.924   2.770  -0.291  0.00  0.00    +0.131 A 
ATOM      6  C   UNL     1       1.143   1.387  -0.363  0.00  0.00    +0.038 A 
ATOM      7  C   UNL     1       0.066   0.517  -0.479  0.00  0.00    +0.016 A 
ATOM      8  C   UNL     1       2.539   0.892  -0.310  0.00  0.00    +0.050 C 
ATOM      9  C   UNL     1       3.529   1.757  -0.537  0.00  0.00    +0.026 C 
ATOM     10  C   UNL     1       4.982   1.351  -0.497  0.00  0.00    +0.181 C 
ATOM     11  N   UNL     1       5.116   0.028   0.097  0.00  0.00    -0.201 N 
ATOM     12  C   UNL     1       4.073  -0.816   0.311  0.00  0.00    +0.240 A 
ATOM     13  N   UNL     1       4.555  -1.902   0.843  0.00  0.00    -0.092 NA
ATOM     14  N   UNL     1       5.832  -1.800   0.986  0.00  0.00    -0.021 NA
ATOM     15  N   UNL     1       6.244  -0.651   0.555  0.00  0.00    -0.042 NA
ATOM     16  N   UNL     1       2.777  -0.457  -0.019  0.00  0.00    -0.282 N 
ATOM     17  C   UNL     1       3.192   3.196  -0.857  0.00  0.00    +0.234 C 
ATOM     18  O   UNL     1       1.998   3.593  -0.183  0.00  0.00    -0.479 OA
ATOM     19  H   UNL     1       1.950  -1.182  -0.057  0.00  0.00    +0.155 HD
ENDROOT
BRANCH  17  20
ATOM     20  C   UNL     1       2.993   3.341  -2.344  0.00  0.00    +0.004 A 
ATOM     21  C   UNL     1       3.935   4.010  -3.103  0.00  0.00    +0.057 A 
ATOM     22  C   UNL     1       3.759   4.141  -4.472  0.00  0.00    +0.166 A 
ATOM     23  C   UNL     1       2.628   3.607  -5.079  0.00  0.00    +0.204 A 
ATOM     24  C   UNL     1       1.681   2.940  -4.312  0.00  0.00    +0.166 A 
ATOM     25  C   UNL     1       1.868   2.808  -2.944  0.00  0.00    +0.057 A 
BRANCH  24  26
ATOM     26  O   UNL     1       0.573   2.417  -4.901  0.00  0.00    -0.491 OA
ATOM     27  C   UNL     1      -0.411   1.843  -4.039  0.00  0.00    +0.277 C 
ENDBRANCH  24  26
BRANCH  23  28
ATOM     28  O   UNL     1       2.448   3.739  -6.422  0.00  0.00    -0.488 OA
ATOM     29  C   UNL     1       1.744   4.898  -6.872  0.00  0.00    +0.277 C 
ENDBRANCH  23  28
BRANCH  22  30
ATOM     30  O   UNL     1       4.688   4.795  -5.219  0.00  0.00    -0.491 OA
ATOM     31  C   UNL     1       5.825   5.317  -4.528  0.00  0.00    +0.277 C 
ENDBRANCH  22  30
ENDBRANCH  17  20
BRANCH  10  32
ATOM     32  C   UNL     1       5.531   1.323  -1.900  0.00  0.00    +0.019 A 
ATOM     33  C   UNL     1       6.499   2.094  -2.453  0.00  0.00    +0.013 A 
ATOM     34  C   UNL     1       6.848   1.886  -3.775  0.00  0.00    +0.008 A 
ATOM     35  C   UNL     1       6.204   0.925  -4.481  0.00  0.00    +0.045 A 
ATOM     36  S   UNL     1       5.070   0.272  -3.268  0.00  0.00    -0.099 S 
ENDBRANCH  10  32
TORSDOF 5
