REMARK  Name = ZINC54744561
REMARK  8 active torsions:
REMARK  status: ('A' for Active; 'I' for Inactive)
REMARK    1  A    between atoms: C_1  and  C_2
REMARK    2  A    between atoms: C_5  and  N_9
REMARK    3  A    between atoms: C_10  and  C_14
REMARK    4  A    between atoms: C_14  and  N_15
REMARK    5  A    between atoms: N_15  and  C_16
REMARK    6  A    between atoms: C_16  and  C_17
REMARK    7  A    between atoms: C_17  and  C_18
REMARK    8  A    between atoms: C_17  and  C_19
REMARK                            x       y       z     vdW  Elec       q    Type
REMARK                         _______ _______ _______ _____ _____    ______ ____
ROOT
ATOM      1  N   UNL     1       0.061  -4.174  -0.023  0.00  0.00    -0.197 N 
ATOM      2  C   UNL     1       0.163  -4.997   1.043  0.00  0.00    +0.140 A 
ATOM      3  N   UNL     1       0.138  -6.224   0.590  0.00  0.00    -0.115 NA
ATOM      4  N   UNL     1       0.027  -6.232  -0.689  0.00  0.00    -0.023 NA
ATOM      5  N   UNL     1      -0.032  -5.025  -1.139  0.00  0.00    -0.039 NA
ENDROOT
BRANCH   1  10
ATOM      6  C   UNL     1      -0.002   1.503  -0.002  0.00  0.00    +0.044 C 
ATOM      7  C   UNL     1       0.015  -0.004  -0.007  0.00  0.00    -0.048 A 
ATOM      8  C   UNL     1      -1.078  -0.704  -0.484  0.00  0.00    +0.020 A 
ATOM      9  C   UNL     1      -1.066  -2.086  -0.491  0.00  0.00    +0.045 A 
ATOM     10  C   UNL     1       0.046  -2.772  -0.018  0.00  0.00    +0.097 A 
ATOM     11  C   UNL     1       1.142  -2.065   0.460  0.00  0.00    +0.045 A 
ATOM     12  C   UNL     1       1.125  -0.683   0.459  0.00  0.00    +0.020 A 
ATOM     13 BR   UNL     1       2.658  -2.993   1.106  0.00  0.00    -0.048 Br
ATOM     14 BR   UNL     1      -2.561  -3.043  -1.143  0.00  0.00    -0.048 Br
ENDBRANCH   1  10
BRANCH   2  15
ATOM     15  C   UNL     1       0.284  -4.580   2.486  0.00  0.00    -0.003 C 
BRANCH  15  16
ATOM     16  N   UNL     1      -1.046  -4.584   3.109  0.00  0.00    +0.384 N 
ATOM     17  H   UNL     1      -1.671  -4.000   2.574  0.00  0.00    -0.085 HD
ATOM     18  H   UNL     1      -1.404  -5.527   3.132  0.00  0.00    -0.085 HD
BRANCH  16  19
ATOM     19  C   UNL     1      -0.946  -4.065   4.480  0.00  0.00    -0.079 C 
BRANCH  19  20
ATOM     20  C   UNL     1      -2.346  -3.948   5.085  0.00  0.00    -0.034 C 
ATOM     21  C   UNL     1      -2.960  -5.343   5.224  0.00  0.00    +0.005 C 
ATOM     22  C   UNL     1      -2.253  -3.292   6.464  0.00  0.00    +0.005 C 
ENDBRANCH  19  20
ENDBRANCH  16  19
ENDBRANCH  15  16
ENDBRANCH   2  15
TORSDOF 5
