REMARK  Name = ZINC36534670
REMARK  12 active torsions:
REMARK  status: ('A' for Active; 'I' for Inactive)
REMARK    1  A    between atoms: C_1  and  C_2
REMARK    2  A    between atoms: C_2  and  C_3
REMARK    3  A    between atoms: C_3  and  C_4
REMARK    4  A    between atoms: C_4  and  N_5
REMARK    5  A    between atoms: C_6  and  C_8
REMARK    6  A    between atoms: C_8  and  C_10
REMARK    7  A    between atoms: C_8  and  N_18
REMARK    8  A    between atoms: N_18  and  C_19
REMARK    9  A    between atoms: C_20  and  C_22
REMARK   10  A    between atoms: C_22  and  C_23
REMARK   11  A    between atoms: C_22  and  C_29
REMARK   12  A    between atoms: C_22  and  O_35
REMARK                            x       y       z     vdW  Elec       q    Type
REMARK                         _______ _______ _______ _____ _____    ______ ____
ROOT
ATOM      1  N   UNL     1       2.466  -5.790   3.356  0.00  0.00    -0.286 N 
ATOM      2  C   UNL     1       2.852  -6.237   2.016  0.00  0.00    +0.133 C 
ATOM      3  C   UNL     1       2.104  -6.692   4.290  0.00  0.00    +0.257 C 
ATOM      4  O   UNL     1       1.684  -6.318   5.364  0.00  0.00    -0.272 OA
ENDROOT
BRANCH   1   5
ATOM      5  C   UNL     1       2.473  -4.362   3.683  0.00  0.00    +0.195 C 
BRANCH   5   6
ATOM      6  C   UNL     1       3.812  -3.771   3.322  0.00  0.00    +0.018 A 
ATOM      7  C   UNL     1       4.972  -4.317   3.841  0.00  0.00    +0.048 A 
ATOM      8  C   UNL     1       6.200  -3.775   3.510  0.00  0.00    +0.020 A 
ATOM      9  C   UNL     1       6.269  -2.686   2.661  0.00  0.00    +0.003 A 
ATOM     10  C   UNL     1       5.111  -2.139   2.142  0.00  0.00    +0.020 A 
ATOM     11  C   UNL     1       3.881  -2.685   2.468  0.00  0.00    +0.048 A 
ATOM     12 CL   UNL     1       2.427  -2.003   1.810  0.00  0.00    -0.083 Cl
ATOM     13 CL   UNL     1       4.885  -5.684   4.909  0.00  0.00    -0.083 Cl
ENDBRANCH   5   6
BRANCH   5  15
ATOM     14  N   UNL     1       0.785  -2.573   3.417  0.00  0.00    -0.313 N 
ATOM     15  C   UNL     1       1.389  -3.663   2.903  0.00  0.00    +0.238 C 
ATOM     16  O   UNL     1       1.060  -4.080   1.813  0.00  0.00    -0.273 OA
ATOM     17  H   UNL     1       1.014  -2.267   4.309  0.00  0.00    +0.149 HD
BRANCH  14  18
ATOM     18  C   UNL     1      -0.217  -1.851   2.630  0.00  0.00    +0.104 C 
BRANCH  18  19
ATOM     19  C   UNL     1      -0.742  -0.663   3.438  0.00  0.00    +0.018 C 
BRANCH  19  21
ATOM     20  C   UNL     1      -2.314   1.279   3.425  0.00  0.00    +0.004 C 
ATOM     21  C   UNL     1      -1.789   0.091   2.616  0.00  0.00    -0.002 C 
ENDBRANCH  19  21
ENDBRANCH  18  19
ENDBRANCH  14  18
ENDBRANCH   5  15
ENDBRANCH   1   5
BRANCH   3  22
ATOM     22  C   UNL     1       2.220  -8.166   3.998  0.00  0.00    +0.192 C 
BRANCH  22  23
ATOM     23  C   UNL     1       2.272  -8.932   5.294  0.00  0.00    -0.003 A 
ATOM     24  C   UNL     1       1.108  -9.431   5.849  0.00  0.00    +0.007 A 
ATOM     25  C   UNL     1       1.156 -10.134   7.038  0.00  0.00    +0.000 A 
ATOM     26  C   UNL     1       2.367 -10.339   7.672  0.00  0.00    +0.000 A 
ATOM     27  C   UNL     1       3.531  -9.841   7.117  0.00  0.00    +0.000 A 
ATOM     28  C   UNL     1       3.484  -9.142   5.926  0.00  0.00    +0.007 A 
ENDBRANCH  22  23
BRANCH  22  29
ATOM     29  C   UNL     1       1.026  -8.615   3.196  0.00  0.00    -0.003 A 
ATOM     30  C   UNL     1      -0.173  -7.936   3.301  0.00  0.00    +0.007 A 
ATOM     31  C   UNL     1      -1.268  -8.348   2.566  0.00  0.00    +0.000 A 
ATOM     32  C   UNL     1      -1.164  -9.440   1.724  0.00  0.00    +0.000 A 
ATOM     33  C   UNL     1       0.035 -10.119   1.617  0.00  0.00    +0.000 A 
ATOM     34  C   UNL     1       1.132  -9.704   2.350  0.00  0.00    +0.007 A 
ENDBRANCH  22  29
BRANCH  22  35
ATOM     35  O   UNL     1       3.415  -8.411   3.252  0.00  0.00    -0.371 OA
ATOM     36  H   UNL     1       4.225  -8.145   3.708  0.00  0.00    +0.212 HD
ENDBRANCH  22  35
ENDBRANCH   3  22
TORSDOF 10
