REMARK  Name = ZINC65074832
REMARK  5 active torsions:
REMARK  status: ('A' for Active; 'I' for Inactive)
REMARK    1  A    between atoms: C_1  and  C_2
REMARK    2  A    between atoms: C_5  and  S_9
REMARK    3  A    between atoms: C_7  and  C_8
REMARK    4  A    between atoms: S_9  and  N_12
REMARK    5  A    between atoms: N_23  and  C_24
REMARK                            x       y       z     vdW  Elec       q    Type
REMARK                         _______ _______ _______ _____ _____    ______ ____
ROOT
ATOM      1  N   UNL     1       1.651  -4.999  -0.034  0.00  0.00    -0.176 NA
ATOM      2  C   UNL     1       2.364  -5.199  -1.303  0.00  0.00    +0.111 C 
ATOM      3  C   UNL     1       2.985  -6.599  -1.305  0.00  0.00    +0.047 C 
ATOM      4  C   UNL     1       3.862  -6.766  -0.061  0.00  0.00    +0.075 C 
ATOM      5  C   UNL     1       2.996  -6.624   1.194  0.00  0.00    +0.047 C 
ATOM      6  C   UNL     1       2.376  -5.218   1.225  0.00  0.00    +0.111 C 
ATOM      7  C   UNL     1       4.504  -8.124  -0.078  0.00  0.00    +0.089 C 
ATOM      8  N   UNL     1       5.729  -8.324  -0.387  0.00  0.00    -0.374 N 
ATOM      9  C   UNL     1       6.657  -7.259  -0.752  0.00  0.00    +0.129 C 
ATOM     10  C   UNL     1       5.884  -5.990  -1.117  0.00  0.00    +0.102 C 
ATOM     11  N   UNL     1       4.898  -5.723  -0.056  0.00  0.00    -0.303 NA
ATOM     12  N   UNL     1       3.735  -9.208   0.257  0.00  0.00    -0.330 N 
ATOM     13  H   UNL     1       4.489  -4.806  -0.164  0.00  0.00    +0.123 HD
ATOM     14  H   UNL     1       2.803  -9.086   0.496  0.00  0.00    +0.147 HD
ATOM     15  H   UNL     1       6.060  -9.235  -0.379  0.00  0.00    +0.161 HD
ENDROOT
BRANCH  12  16
ATOM     16  C   UNL     1       4.322 -10.550   0.254  0.00  0.00    +0.071 C 
ATOM     17  C   UNL     1       4.261 -11.130  -1.161  0.00  0.00    +0.022 C 
ATOM     18  C   UNL     1       4.873 -12.532  -1.165  0.00  0.00    +0.002 C 
ATOM     19  C   UNL     1       4.088 -13.434  -0.210  0.00  0.00    +0.000 C 
ATOM     20  C   UNL     1       4.148 -12.854   1.204  0.00  0.00    +0.002 C 
ATOM     21  C   UNL     1       3.536 -11.452   1.208  0.00  0.00    +0.022 C 
ENDBRANCH  12  16
BRANCH   1  22
ATOM     22  S   UNL     1       0.063  -4.530  -0.023  0.00  0.00    +0.061 S 
ATOM     23  O   UNL     1      -0.476  -4.950   1.223  0.00  0.00    -0.153 OA
ATOM     24  O   UNL     1      -0.490  -4.937  -1.267  0.00  0.00    -0.153 OA
BRANCH  22  29
ATOM     25  C   UNL     1      -0.018   1.503   0.010  0.00  0.00    +0.044 C 
ATOM     26  C   UNL     1       0.002  -0.004   0.002  0.00  0.00    -0.047 A 
ATOM     27  C   UNL     1       0.006  -0.689  -1.199  0.00  0.00    +0.005 A 
ATOM     28  C   UNL     1       0.025  -2.071  -1.207  0.00  0.00    +0.029 A 
ATOM     29  C   UNL     1       0.040  -2.768  -0.013  0.00  0.00    +0.106 A 
ATOM     30  C   UNL     1       0.037  -2.084   1.188  0.00  0.00    +0.032 A 
ATOM     31  C   UNL     1       0.023  -0.702   1.195  0.00  0.00    -0.046 A 
ATOM     32  C   UNL     1       0.025   0.045   2.504  0.00  0.00    +0.044 C 
ENDBRANCH  22  29
ENDBRANCH   1  22
TORSDOF 3
