REMARK  Name = ZINC63619750
REMARK  8 active torsions:
REMARK  status: ('A' for Active; 'I' for Inactive)
REMARK    1  A    between atoms: C_1  and  C_2
REMARK    2  A    between atoms: C_2  and  O_3
REMARK    3  A    between atoms: O_3  and  C_4
REMARK    4  A    between atoms: C_7  and  N_10
REMARK    5  A    between atoms: C_11  and  C_28
REMARK    6  A    between atoms: C_15  and  S_17
REMARK    7  A    between atoms: S_17  and  C_18
REMARK    8  A    between atoms: C_18  and  C_19
REMARK                            x       y       z     vdW  Elec       q    Type
REMARK                         _______ _______ _______ _____ _____    ______ ____
ROOT
ATOM      1  N   UNL     1       1.085  -6.072   1.567  0.00  0.00    -0.284 N 
ATOM      2  C   UNL     1       1.840  -6.918   2.506  0.00  0.00    +0.190 C 
ATOM      3  N   UNL     1       1.460  -8.319   2.213  0.00  0.00    -0.230 NA
ATOM      4  N   UNL     1       0.141  -8.212   1.569  0.00  0.00    -0.226 NA
ATOM      5  C   UNL     1       0.268  -6.986   0.743  0.00  0.00    +0.217 C 
ATOM      6  H   UNL     1       2.129  -8.754   1.596  0.00  0.00    +0.143 HD
ATOM      7  H   UNL     1      -0.048  -9.020   0.994  0.00  0.00    +0.143 HD
ENDROOT
BRANCH   1  11
ATOM      8  C   UNL     1       1.211  -1.914   1.299  0.00  0.00    +0.121 A 
ATOM      9  C   UNL     1       0.482  -2.646   0.374  0.00  0.00    +0.047 A 
ATOM     10  C   UNL     1       0.440  -4.024   0.462  0.00  0.00    +0.027 A 
ATOM     11  C   UNL     1       1.127  -4.676   1.477  0.00  0.00    +0.033 A 
ATOM     12  C   UNL     1       1.857  -3.942   2.403  0.00  0.00    +0.027 A 
ATOM     13  C   UNL     1       1.903  -2.565   2.310  0.00  0.00    +0.047 A 
BRANCH   8  14
ATOM     14  O   UNL     1       1.252  -0.557   1.212  0.00  0.00    -0.492 OA
BRANCH  14  16
ATOM     15  C   UNL     1       0.681   1.567   0.211  0.00  0.00    +0.048 C 
ATOM     16  C   UNL     1       0.516   0.047   0.147  0.00  0.00    +0.225 C 
ENDBRANCH  14  16
ENDBRANCH   8  14
ENDBRANCH   1  11
BRANCH   2  17
ATOM     17  C   UNL     1       3.321  -6.730   2.295  0.00  0.00    +0.007 A 
ATOM     18  C   UNL     1       3.786  -5.804   1.373  0.00  0.00    +0.010 A 
ATOM     19  C   UNL     1       5.156  -5.665   1.213  0.00  0.00    +0.020 A 
ATOM     20  C   UNL     1       6.006  -6.447   1.971  0.00  0.00    +0.111 A 
ATOM     21  N   UNL     1       5.528  -7.318   2.838  0.00  0.00    -0.263 NA
ATOM     22  C   UNL     1       4.231  -7.473   3.022  0.00  0.00    +0.117 A 
ENDBRANCH   2  17
BRANCH   5  23
ATOM     23  S   UNL     1       1.116  -7.363  -0.816  0.00  0.00    -0.118 S 
BRANCH  23  24
ATOM     24  C   UNL     1      -0.185  -8.071  -1.863  0.00  0.00    +0.119 C 
BRANCH  24  25
ATOM     25  C   UNL     1       0.370  -8.323  -3.267  0.00  0.00    +0.184 C 
ATOM     26  N   UNL     1       1.544  -9.202  -3.194  0.00  0.00    -0.363 N 
ATOM     27  C   UNL     1       2.556  -8.542  -3.679  0.00  0.00    +0.060 A 
ATOM     28  C   UNL     1       3.972  -8.884  -3.869  0.00  0.00    +0.027 A 
ATOM     29  C   UNL     1       4.809  -7.976  -4.410  0.00  0.00    +0.002 A 
ATOM     30  C   UNL     1       4.383  -6.696  -4.808  0.00  0.00    +0.002 A 
ATOM     31  C   UNL     1       3.107  -6.281  -4.678  0.00  0.00    +0.027 A 
ATOM     32  C   UNL     1       2.106  -7.187  -4.100  0.00  0.00    +0.060 A 
ATOM     33  N   UNL     1       0.833  -7.062  -3.859  0.00  0.00    -0.363 N 
ATOM     34  H   UNL     1       1.562 -10.107  -2.847  0.00  0.00    +0.162 HD
ATOM     35  H   UNL     1       0.289  -6.279  -4.039  0.00  0.00    +0.162 HD
ENDBRANCH  24  25
ENDBRANCH  23  24
ENDBRANCH   5  23
TORSDOF 7
