REMARK  Name = ZINC14183580
REMARK  8 active torsions:
REMARK  status: ('A' for Active; 'I' for Inactive)
REMARK    1  A    between atoms: C_1  and  C_2
REMARK    2  A    between atoms: C_7  and  N_8
REMARK    3  A    between atoms: C_9  and  C_11
REMARK    4  A    between atoms: C_11  and  N_12
REMARK    5  A    between atoms: N_12  and  C_13
REMARK    6  A    between atoms: C_14  and  C_16
REMARK    7  A    between atoms: C_18  and  C_26
REMARK    8  A    between atoms: C_22  and  C_25
REMARK                            x       y       z     vdW  Elec       q    Type
REMARK                         _______ _______ _______ _____ _____    ______ ____
ROOT
ATOM      1  N   UNL     1      -0.006   0.207  -0.112  0.00  0.00    -0.292 N 
ATOM      2  C   UNL     1      -0.054   1.667  -0.004  0.00  0.00    +0.133 C 
ATOM      3  C   UNL     1       0.056  -0.550   1.001  0.00  0.00    +0.248 C 
ATOM      4  O   UNL     1       0.182  -1.755   0.911  0.00  0.00    -0.270 OA
ENDROOT
BRANCH   3   5
ATOM      5  C   UNL     1      -0.029   0.088   2.334  0.00  0.00    +0.053 A 
ATOM      6  C   UNL     1       0.830   1.123   2.691  0.00  0.00    +0.042 A 
ATOM      7  C   UNL     1       0.711   1.699   3.958  0.00  0.00    +0.076 A 
ATOM      8  N   UNL     1      -0.193   1.274   4.827  0.00  0.00    -0.210 NA
ATOM      9  C   UNL     1      -1.030   0.291   4.541  0.00  0.00    +0.260 A 
ATOM     10  C   UNL     1      -0.979  -0.339   3.285  0.00  0.00    +0.076 A 
ATOM     11  C   UNL     1      -2.019  -1.366   3.288  0.00  0.00    +0.091 A 
ATOM     12  N   UNL     1      -2.606  -1.320   4.446  0.00  0.00    -0.080 NA
ATOM     13  O   UNL     1      -2.017  -0.308   5.239  0.00  0.00    -0.334 OA
ATOM     14  C   UNL     1      -2.350  -2.305   2.157  0.00  0.00    +0.070 C 
BRANCH   7  15
ATOM     15  C   UNL     1       1.620   2.806   4.340  0.00  0.00    +0.000 A 
ATOM     16  C   UNL     1       2.582   3.263   3.441  0.00  0.00    +0.010 A 
ATOM     17  C   UNL     1       3.422   4.298   3.800  0.00  0.00    +0.001 A 
ATOM     18  C   UNL     1       3.318   4.873   5.054  0.00  0.00    +0.000 A 
ATOM     19  C   UNL     1       2.369   4.420   5.953  0.00  0.00    +0.001 A 
ATOM     20  C   UNL     1       1.520   3.390   5.603  0.00  0.00    +0.010 A 
ENDBRANCH   7  15
ENDBRANCH   3   5
BRANCH   1  21
ATOM     21  C   UNL     1      -0.025  -0.431  -1.431  0.00  0.00    +0.203 C 
BRANCH  21  23
ATOM     22  N   UNL     1       1.617  -1.168  -3.128  0.00  0.00    -0.284 N 
ATOM     23  C   UNL     1       1.388  -0.599  -1.928  0.00  0.00    +0.235 C 
ATOM     24  O   UNL     1       2.319  -0.223  -1.247  0.00  0.00    -0.274 OA
ATOM     25  H   UNL     1       0.872  -1.419  -3.696  0.00  0.00    +0.155 HD
BRANCH  22  32
ATOM     26  C   UNL     1       2.079  -3.265  -4.994  0.00  0.00    +0.046 C 
ATOM     27  C   UNL     1       3.200  -2.408  -4.466  0.00  0.00    -0.028 A 
ATOM     28  C   UNL     1       4.497  -2.627  -4.890  0.00  0.00    +0.020 A 
ATOM     29  C   UNL     1       5.527  -1.844  -4.401  0.00  0.00    +0.018 A 
ATOM     30  C   UNL     1       5.262  -0.837  -3.490  0.00  0.00    +0.017 A 
ATOM     31  C   UNL     1       3.967  -0.610  -3.067  0.00  0.00    +0.024 A 
ATOM     32  C   UNL     1       2.931  -1.395  -3.556  0.00  0.00    +0.036 A 
ATOM     33 BR   UNL     1       7.301  -2.152  -4.978  0.00  0.00    -0.050 Br
ENDBRANCH  22  32
ENDBRANCH  21  23
ENDBRANCH   1  21
TORSDOF 5
