REMARK  Name = ZINC33937328
REMARK  12 active torsions:
REMARK  status: ('A' for Active; 'I' for Inactive)
REMARK    1  A    between atoms: C_1  and  C_2
REMARK    2  A    between atoms: C_9  and  C_14
REMARK    3  A    between atoms: C_14  and  N_15
REMARK    4  A    between atoms: N_15  and  C_16
REMARK    5  A    between atoms: N_15  and  C_23
REMARK    6  A    between atoms: C_16  and  C_17
REMARK    7  A    between atoms: C_23  and  C_25
REMARK    8  A    between atoms: C_23  and  C_37
REMARK    9  A    between atoms: N_29  and  C_30
REMARK   10  A    between atoms: C_30  and  C_31
REMARK   11  A    between atoms: C_37  and  C_38
REMARK   12  A    between atoms: C_37  and  C_39
REMARK                            x       y       z     vdW  Elec       q    Type
REMARK                         _______ _______ _______ _____ _____    ______ ____
ROOT
ATOM      1  N   UNL     1      -0.737  -5.896   3.909  0.00  0.00    +0.391 N 
ATOM      2  H   UNL     1      -0.928  -4.920   4.080  0.00  0.00    -0.080 HD
ENDROOT
BRANCH   1   3
ATOM      3  C   UNL     1       0.605  -6.038   3.327  0.00  0.00    -0.036 C 
BRANCH   3  12
ATOM      4  C   UNL     1       2.623   0.402   0.153  0.00  0.00    +0.044 C 
ATOM      5  C   UNL     1       2.027  -0.979   0.060  0.00  0.00    -0.050 A 
ATOM      6  C   UNL     1       1.572  -1.451  -1.164  0.00  0.00    +0.005 A 
ATOM      7  C   UNL     1       1.024  -2.711  -1.272  0.00  0.00    +0.026 A 
ATOM      8  C   UNL     1       0.924  -3.519  -0.145  0.00  0.00    +0.049 A 
ATOM      9  C   UNL     1       1.386  -3.037   1.094  0.00  0.00    -0.001 A 
ATOM     10  C   UNL     1       1.944  -1.757   1.180  0.00  0.00    +0.013 A 
ATOM     11  C   UNL     1       1.277  -3.896   2.275  0.00  0.00    +0.017 A 
ATOM     12  C   UNL     1       0.732  -5.129   2.131  0.00  0.00    +0.001 A 
ATOM     13  C   UNL     1       0.284  -5.565   0.866  0.00  0.00    +0.251 A 
ATOM     14  O   UNL     1      -0.203  -6.677   0.759  0.00  0.00    -0.268 OA
ATOM     15  N   UNL     1       0.380  -4.784  -0.224  0.00  0.00    -0.322 N 
ATOM     16  H   UNL     1       0.062  -5.114  -1.079  0.00  0.00    +0.169 HD
ENDBRANCH   3  12
ENDBRANCH   1   3
BRANCH   1  17
ATOM     17  C   UNL     1      -1.735  -6.434   2.975  0.00  0.00    -0.045 C 
BRANCH  17  18
ATOM     18  C   UNL     1      -3.138  -6.062   3.458  0.00  0.00    +0.102 C 
ATOM     19  C   UNL     1      -4.201  -6.520   2.428  0.00  0.00    +0.032 C 
ATOM     20  C   UNL     1      -5.453  -6.656   3.337  0.00  0.00    +0.030 C 
ATOM     21  C   UNL     1      -4.840  -7.138   4.669  0.00  0.00    +0.160 C 
ATOM     22  O   UNL     1      -3.454  -6.771   4.667  0.00  0.00    -0.378 OA
ENDBRANCH  17  18
ENDBRANCH   1  17
BRANCH   1  23
ATOM     23  C   UNL     1      -0.802  -6.638   5.175  0.00  0.00    +0.006 C 
BRANCH  23  24
ATOM     24  C   UNL     1       0.116  -7.831   5.106  0.00  0.00    +0.138 A 
ATOM     25  N   UNL     1       1.330  -7.858   4.612  0.00  0.00    -0.115 NA
ATOM     26  N   UNL     1       1.784  -9.057   4.737  0.00  0.00    -0.023 NA
ATOM     27  N   UNL     1       0.891  -9.796   5.297  0.00  0.00    -0.044 NA
ATOM     28  N   UNL     1      -0.150  -9.076   5.545  0.00  0.00    -0.228 N 
BRANCH  28  29
ATOM     29  C   UNL     1      -1.389  -9.528   6.181  0.00  0.00    +0.178 C 
BRANCH  29  30
ATOM     30  C   UNL     1      -2.305 -10.153   5.128  0.00  0.00    +0.140 C 
ATOM     31  C   UNL     1      -3.603 -10.657   5.794  0.00  0.00    +0.035 C 
ATOM     32  C   UNL     1      -3.864 -11.991   5.043  0.00  0.00    +0.031 C 
ATOM     33  C   UNL     1      -2.414 -12.477   4.795  0.00  0.00    +0.160 C 
ATOM     34  O   UNL     1      -1.657 -11.283   4.530  0.00  0.00    -0.375 OA
ENDBRANCH  29  30
ENDBRANCH  28  29
ENDBRANCH  23  24
BRANCH  23  35
ATOM     35  C   UNL     1      -0.366  -5.725   6.323  0.00  0.00    -0.024 C 
ATOM     36  C   UNL     1       1.022  -5.155   6.023  0.00  0.00    +0.006 C 
ATOM     37  C   UNL     1      -1.368  -4.579   6.472  0.00  0.00    +0.006 C 
ENDBRANCH  23  35
ENDBRANCH   1  23
TORSDOF 9
