REMARK  Name = ZINC39683286
REMARK  12 active torsions:
REMARK  status: ('A' for Active; 'I' for Inactive)
REMARK    1  A    between atoms: C_1  and  C_2
REMARK    2  A    between atoms: C_2  and  C_3
REMARK    3  A    between atoms: C_2  and  C_4
REMARK    4  A    between atoms: C_4  and  O_5
REMARK    5  A    between atoms: O_5  and  C_6
REMARK    6  A    between atoms: C_6  and  C_7
REMARK    7  A    between atoms: C_7  and  C_8
REMARK    8  A    between atoms: C_8  and  N_9
REMARK    9  A    between atoms: C_10  and  C_12
REMARK   10  A    between atoms: C_23  and  C_25
REMARK   11  A    between atoms: C_27  and  O_32
REMARK   12  A    between atoms: O_32  and  C_33
REMARK                            x       y       z     vdW  Elec       q    Type
REMARK                         _______ _______ _______ _____ _____    ______ ____
ROOT
ATOM      1  C   UNL     1      -5.197  -7.949  -0.363  0.00  0.00    +0.100 C 
ATOM      2  C   UNL     1      -4.192  -8.607   0.610  0.00  0.00    +0.121 C 
ATOM      3  N   UNL     1      -5.038  -9.256   1.639  0.00  0.00    -0.296 N 
ATOM      4  C   UNL     1      -6.180  -9.817   0.878  0.00  0.00    +0.115 C 
ATOM      5  C   UNL     1      -6.499  -8.749  -0.186  0.00  0.00    -0.004 C 
ATOM      6  C   UNL     1      -6.894  -9.414  -1.501  0.00  0.00    -0.010 C 
ATOM      7  C   UNL     1      -8.221 -10.154  -1.315  0.00  0.00    -0.082 C 
ATOM      8  N   UNL     1      -9.258  -9.205  -0.894  0.00  0.00    +0.379 N 
ATOM      9  C   UNL     1      -8.916  -8.639   0.417  0.00  0.00    -0.082 C 
ATOM     10  C   UNL     1      -7.618  -7.834   0.304  0.00  0.00    -0.010 C 
ATOM     11  C   UNL     1      -4.818  -9.322   2.967  0.00  0.00    +0.248 C 
ATOM     12  O   UNL     1      -5.559  -9.976   3.675  0.00  0.00    -0.270 OA
ATOM     13  H   UNL     1      -9.327  -8.461  -1.572  0.00  0.00    -0.086 HD
ATOM     14  H   UNL     1     -10.145  -9.683  -0.831  0.00  0.00    -0.086 HD
ENDROOT
BRANCH  11  15
ATOM     15  C   UNL     1      -3.676  -8.598   3.564  0.00  0.00    +0.054 A 
ATOM     16  C   UNL     1      -2.472  -8.492   2.866  0.00  0.00    +0.059 A 
ATOM     17  C   UNL     1      -1.407  -7.812   3.431  0.00  0.00    +0.121 A 
ATOM     18  C   UNL     1      -1.537  -7.237   4.688  0.00  0.00    +0.047 A 
ATOM     19  C   UNL     1      -2.728  -7.340   5.381  0.00  0.00    +0.019 A 
ATOM     20  C   UNL     1      -3.799  -8.012   4.826  0.00  0.00    +0.030 A 
ATOM     21 BR   UNL     1      -5.429  -8.144   5.775  0.00  0.00    -0.050 Br
BRANCH  17  22
ATOM     22  O   UNL     1      -0.233  -7.707   2.754  0.00  0.00    -0.495 OA
ATOM     23  C   UNL     1       0.825  -6.992   3.396  0.00  0.00    +0.277 C 
ENDBRANCH  17  22
ENDBRANCH  11  15
BRANCH   1  25
ATOM     24  N   UNL     1      -5.774  -5.614  -0.940  0.00  0.00    -0.315 N 
ATOM     25  C   UNL     1      -5.414  -6.504   0.006  0.00  0.00    +0.218 C 
ATOM     26  O   UNL     1      -5.266  -6.142   1.154  0.00  0.00    -0.275 OA
ATOM     27  H   UNL     1      -5.893  -5.904  -1.858  0.00  0.00    +0.149 HD
BRANCH  24  28
ATOM     28  C   UNL     1      -5.985  -4.210  -0.582  0.00  0.00    +0.106 C 
BRANCH  28  29
ATOM     29  C   UNL     1      -6.383  -3.419  -1.830  0.00  0.00    +0.047 C 
BRANCH  29  30
ATOM     30  C   UNL     1      -6.603  -1.952  -1.456  0.00  0.00    +0.161 C 
BRANCH  30  31
ATOM     31  O   UNL     1      -6.974  -1.214  -2.622  0.00  0.00    -0.379 OA
BRANCH  31  32
ATOM     32  C   UNL     1      -7.205   0.176  -2.381  0.00  0.00    +0.162 C 
BRANCH  32  34
ATOM     33  C   UNL     1      -7.962   2.322  -3.413  0.00  0.00    +0.009 C 
ATOM     34  C   UNL     1      -7.594   0.863  -3.691  0.00  0.00    +0.009 C 
ATOM     35  C   UNL     1      -6.414   0.811  -4.664  0.00  0.00    +0.009 C 
ENDBRANCH  32  34
ENDBRANCH  31  32
ENDBRANCH  30  31
ENDBRANCH  29  30
ENDBRANCH  28  29
ENDBRANCH  24  28
ENDBRANCH   1  25
TORSDOF 9
