REMARK  Name = ZINC41586310
REMARK  9 active torsions:
REMARK  status: ('A' for Active; 'I' for Inactive)
REMARK    1  A    between atoms: C_1  and  C_2
REMARK    2  A    between atoms: C_2  and  O_3
REMARK    3  A    between atoms: O_3  and  C_4
REMARK    4  A    between atoms: C_4  and  C_6
REMARK    5  A    between atoms: N_9  and  C_12
REMARK    6  A    between atoms: C_12  and  C_13
REMARK    7  A    between atoms: C_14  and  O_32
REMARK    8  A    between atoms: C_20  and  C_31
REMARK    9  A    between atoms: C_21  and  C_24
REMARK                            x       y       z     vdW  Elec       q    Type
REMARK                         _______ _______ _______ _____ _____    ______ ____
ROOT
ATOM      1  C   UNL     1      -5.976  -6.238   1.600  0.00  0.00    +0.020 A 
ATOM      2  C   UNL     1      -5.942  -7.041   0.473  0.00  0.00    +0.122 A 
ATOM      3  C   UNL     1      -5.782  -8.420   0.589  0.00  0.00    +0.046 A 
ATOM      4  C   UNL     1      -5.652  -8.998   1.820  0.00  0.00    +0.019 A 
ATOM      5  C   UNL     1      -5.682  -8.201   2.963  0.00  0.00    +0.065 A 
ATOM      6  C   UNL     1      -5.844  -6.808   2.859  0.00  0.00    +0.144 A 
ATOM      7  O   UNL     1      -5.883  -6.043   3.967  0.00  0.00    -0.459 OA
ATOM      8  C   UNL     1      -5.472  -6.500   5.152  0.00  0.00    +0.114 A 
ATOM      9  C   UNL     1      -5.281  -7.821   5.404  0.00  0.00    +0.067 A 
ATOM     10  C   UNL     1      -5.538  -8.783   4.312  0.00  0.00    +0.200 A 
ATOM     11  O   UNL     1      -5.612  -9.983   4.509  0.00  0.00    -0.286 OA
ATOM     12  C   UNL     1      -5.208  -5.508   6.256  0.00  0.00    +0.087 C 
ENDROOT
BRANCH   9  13
ATOM     13  C   UNL     1      -4.839  -8.286   6.742  0.00  0.00    -0.011 A 
ATOM     14  C   UNL     1      -3.583  -7.927   7.226  0.00  0.00    +0.010 A 
ATOM     15  C   UNL     1      -3.177  -8.361   8.472  0.00  0.00    +0.016 A 
ATOM     16  C   UNL     1      -4.014  -9.152   9.239  0.00  0.00    +0.018 A 
ATOM     17  C   UNL     1      -5.263  -9.511   8.762  0.00  0.00    +0.016 A 
ATOM     18  C   UNL     1      -5.681  -9.077   7.520  0.00  0.00    +0.010 A 
ATOM     19 BR   UNL     1      -3.451  -9.743  10.944  0.00  0.00    -0.050 Br
ENDBRANCH   9  13
BRANCH   2  20
ATOM     20  O   UNL     1      -6.066  -6.480  -0.756  0.00  0.00    -0.506 OA
ATOM     21  H   UNL     1      -5.226  -6.219  -1.157  0.00  0.00    +0.292 HD
ENDBRANCH   2  20
BRANCH   1  22
ATOM     22  C   UNL     1      -6.150  -4.747   1.460  0.00  0.00    -0.036 C 
BRANCH  22  26
ATOM     23  C   UNL     1      -2.881  -2.427   0.017  0.00  0.00    +0.094 C 
ATOM     24  C   UNL     1      -3.621  -1.980   1.281  0.00  0.00    -0.004 C 
ATOM     25  C   UNL     1      -4.996  -2.651   1.324  0.00  0.00    -0.078 C 
ATOM     26  N   UNL     1      -4.832  -4.110   1.340  0.00  0.00    +0.383 N 
ATOM     27  C   UNL     1      -4.188  -4.552   0.098  0.00  0.00    -0.078 C 
ATOM     28  C   UNL     1      -2.782  -3.955   0.007  0.00  0.00    -0.004 C 
ATOM     29  H   UNL     1      -4.260  -4.374   2.128  0.00  0.00    -0.081 HD
BRANCH  23  30
ATOM     30  C   UNL     1      -1.496  -1.832   0.006  0.00  0.00    +0.310 C 
ATOM     31  O   UNL     1      -0.528  -2.555  -0.007  0.00  0.00    -0.251 OA
BRANCH  30  32
ATOM     32  O   UNL     1      -1.339  -0.499   0.012  0.00  0.00    -0.465 OA
BRANCH  32  34
ATOM     33  C   UNL     1      -0.019   1.526   0.010  0.00  0.00    +0.048 C 
ATOM     34  C   UNL     1       0.002  -0.004   0.002  0.00  0.00    +0.229 C 
ENDBRANCH  32  34
ENDBRANCH  30  32
ENDBRANCH  23  30
ENDBRANCH  22  26
ENDBRANCH   1  22
TORSDOF 7
