REMARK  Name = ZINC20569549
REMARK  9 active torsions:
REMARK  status: ('A' for Active; 'I' for Inactive)
REMARK    1  A    between atoms: C_1  and  C_2
REMARK    2  A    between atoms: C_2  and  C_3
REMARK    3  A    between atoms: C_3  and  N_4
REMARK    4  A    between atoms: C_10  and  N_15
REMARK    5  A    between atoms: C_11  and  C_12
REMARK    6  A    between atoms: C_16  and  C_18
REMARK    7  A    between atoms: C_23  and  N_24
REMARK    8  A    between atoms: N_24  and  S_25
REMARK    9  A    between atoms: S_25  and  C_28
REMARK                            x       y       z     vdW  Elec       q    Type
REMARK                         _______ _______ _______ _____ _____    ______ ____
ROOT
ATOM      1  N   UNL     1       2.943  -1.253  -5.574  0.00  0.00    -0.275 N 
ATOM      2  C   UNL     1       3.385  -1.217  -4.302  0.00  0.00    +0.250 C 
ATOM      3  O   UNL     1       3.225  -2.179  -3.575  0.00  0.00    -0.270 OA
ATOM      4  H   UNL     1       3.087  -0.383  -6.232  0.00  0.00    +0.156 HD
ENDROOT
BRANCH   1  11
ATOM      5  N   UNL     1      -0.287  -6.287  -7.679  0.00  0.00    +0.383 N 
ATOM      6  C   UNL     1       0.406  -5.845  -8.898  0.00  0.00    -0.074 C 
ATOM      7  C   UNL     1       0.547  -4.320  -8.899  0.00  0.00    +0.018 C 
ATOM      8  C   UNL     1       1.165  -3.899  -7.571  0.00  0.00    -0.027 A 
ATOM      9  C   UNL     1       1.159  -4.751  -6.520  0.00  0.00    -0.021 A 
ATOM     10  S   UNL     1       1.973  -3.869  -5.221  0.00  0.00    -0.079 S 
ATOM     11  C   UNL     1       2.307  -2.387  -6.055  0.00  0.00    +0.085 A 
ATOM     12  C   UNL     1       1.787  -2.612  -7.323  0.00  0.00    +0.068 A 
ATOM     13  C   UNL     1       0.584  -6.132  -6.499  0.00  0.00    -0.035 C 
ATOM     14  H   UNL     1      -1.173  -5.650  -7.542  0.00  0.00    -0.081 HD
BRANCH  12  15
ATOM     15  C   UNL     1       1.864  -1.590  -8.370  0.00  0.00    +0.244 C 
ATOM     16  O   UNL     1       2.825  -1.555  -9.116  0.00  0.00    -0.270 OA
ATOM     17  N   UNL     1       0.872  -0.689  -8.508  0.00  0.00    -0.325 N 
ATOM     18  H   UNL     1       0.930   0.078  -9.294  0.00  0.00    +0.145 HD
ATOM     19  H   UNL     1       0.003  -0.721  -7.833  0.00  0.00    +0.145 HD
ENDBRANCH  12  15
BRANCH   5  20
ATOM     20  C   UNL     1      -0.752  -7.674  -7.812  0.00  0.00    -0.079 C 
BRANCH  20  22
ATOM     21  C   UNL     1      -0.044 -10.030  -8.255  0.00  0.00    +0.002 C 
ATOM     22  C   UNL     1       0.440  -8.585  -8.117  0.00  0.00    -0.022 C 
ENDBRANCH  20  22
ENDBRANCH   5  20
ENDBRANCH   1  11
BRANCH   2  23
ATOM     23  C   UNL     1       4.061  -0.011  -3.791  0.00  0.00    +0.059 A 
ATOM     24  C   UNL     1       4.242   1.099  -4.621  0.00  0.00    +0.015 A 
ATOM     25  C   UNL     1       4.880   2.220  -4.139  0.00  0.00    +0.001 A 
ATOM     26  C   UNL     1       5.340   2.257  -2.832  0.00  0.00    +0.002 A 
ATOM     27  C   UNL     1       5.165   1.172  -1.998  0.00  0.00    +0.025 A 
ATOM     28  C   UNL     1       4.523   0.032  -2.466  0.00  0.00    +0.060 A 
BRANCH  28  29
ATOM     29  N   UNL     1       4.345  -1.062  -1.629  0.00  0.00    -0.216 N 
ATOM     30  H   UNL     1       4.408  -2.082  -2.036  0.00  0.00    +0.174 HD
BRANCH  29  31
ATOM     31  S   UNL     1       4.038  -0.831  -0.018  0.00  0.00    +0.072 S 
ATOM     32  O   UNL     1       5.069   0.014   0.474  0.00  0.00    -0.150 OA
ATOM     33  O   UNL     1       3.775  -2.114   0.533  0.00  0.00    -0.150 OA
BRANCH  31  34
ATOM     34  C   UNL     1       2.538   0.085   0.100  0.00  0.00    +0.108 A 
ATOM     35  C   UNL     1       1.327  -0.578   0.174  0.00  0.00    +0.029 A 
ATOM     36  C   UNL     1       0.150   0.141   0.267  0.00  0.00    +0.002 A 
ATOM     37  C   UNL     1       0.183   1.523   0.285  0.00  0.00    +0.000 A 
ATOM     38  C   UNL     1       1.394   2.186   0.211  0.00  0.00    +0.002 A 
ATOM     39  C   UNL     1       2.571   1.467   0.118  0.00  0.00    +0.029 A 
ENDBRANCH  31  34
ENDBRANCH  29  31
ENDBRANCH  28  29
ENDBRANCH   2  23
TORSDOF 8
