REMARK  Name = ZINC13500611
REMARK  11 active torsions:
REMARK  status: ('A' for Active; 'I' for Inactive)
REMARK    1  A    between atoms: C_1  and  C_2
REMARK    2  A    between atoms: C_12  and  C_14
REMARK    3  A    between atoms: C_14  and  N_69
REMARK    4  A    between atoms: C_15  and  N_69
REMARK    5  A    between atoms: C_20  and  C_22
REMARK    6  A    between atoms: C_20  and  C_35
REMARK    7  A    between atoms: C_20  and  N_69
REMARK    8  A    between atoms: N_26  and  C_27
REMARK    9  A    between atoms: C_27  and  C_28
REMARK   10  A    between atoms: C_35  and  C_36
REMARK   11  A    between atoms: C_35  and  C_37
REMARK                            x       y       z     vdW  Elec       q    Type
REMARK                         _______ _______ _______ _____ _____    ______ ____
ROOT
ATOM      1  N   UNL     1      -2.868   0.119  -2.050  0.00  0.00    +0.391 N 
ATOM      2  H   UNL     1      -2.714   0.944  -2.640  0.00  0.00    -0.080 HD
ENDROOT
BRANCH   1   3
ATOM      3  C   UNL     1      -2.185  -1.042  -2.659  0.00  0.00    -0.067 C 
ATOM      4  C   UNL     1      -2.488  -2.337  -1.878  0.00  0.00    -0.015 C 
ATOM      5  C   UNL     1      -1.156  -3.128  -1.924  0.00  0.00    -0.002 C 
ATOM      6  C   UNL     1      -0.091  -2.013  -1.779  0.00  0.00    -0.002 C 
ATOM      7  C   UNL     1      -0.661  -0.836  -2.597  0.00  0.00    -0.015 C 
ENDBRANCH   1   3
BRANCH   1   8
ATOM      8  C   UNL     1      -2.315   0.381  -0.704  0.00  0.00    -0.036 C 
BRANCH   8  20
ATOM      9  C   UNL     1      -5.251  -3.874   3.355  0.00  0.00    +0.046 C 
ATOM     10  C   UNL     1      -3.829  -3.784   2.867  0.00  0.00    -0.026 A 
ATOM     11  C   UNL     1      -2.895  -4.711   3.280  0.00  0.00    +0.005 A 
ATOM     12  C   UNL     1      -1.582  -4.640   2.837  0.00  0.00    +0.001 A 
ATOM     13  C   UNL     1      -1.189  -3.649   1.982  0.00  0.00    +0.010 A 
ATOM     14  C   UNL     1      -2.119  -2.698   1.549  0.00  0.00    -0.001 A 
ATOM     15  C   UNL     1      -3.452  -2.767   1.996  0.00  0.00    +0.052 A 
ATOM     16  N   UNL     1      -4.364  -1.827   1.567  0.00  0.00    -0.322 N 
ATOM     17  H   UNL     1      -5.283  -1.876   1.876  0.00  0.00    +0.169 HD
ATOM     18  C   UNL     1      -4.000  -0.844   0.725  0.00  0.00    +0.251 A 
ATOM     19  O   UNL     1      -4.833  -0.030   0.365  0.00  0.00    -0.268 OA
ATOM     20  C   UNL     1      -2.678  -0.733   0.243  0.00  0.00    +0.001 A 
ATOM     21  C   UNL     1      -1.732  -1.623   0.633  0.00  0.00    +0.017 A 
ENDBRANCH   8  20
ENDBRANCH   1   8
BRANCH   1  22
ATOM     22  C   UNL     1      -4.320  -0.141  -1.957  0.00  0.00    +0.006 C 
BRANCH  22  23
ATOM     23  C   UNL     1      -4.820  -0.631  -3.291  0.00  0.00    +0.139 A 
ATOM     24  N   UNL     1      -4.675  -0.033  -4.449  0.00  0.00    -0.115 NA
ATOM     25  N   UNL     1      -5.237  -0.765  -5.348  0.00  0.00    -0.023 NA
ATOM     26  N   UNL     1      -5.743  -1.811  -4.793  0.00  0.00    -0.044 NA
ATOM     27  N   UNL     1      -5.507  -1.765  -3.526  0.00  0.00    -0.226 N 
BRANCH  27  28
ATOM     28  C   UNL     1      -5.911  -2.759  -2.528  0.00  0.00    +0.182 C 
BRANCH  28  29
ATOM     29  C   UNL     1      -7.372  -2.582  -2.206  0.00  0.00    -0.026 A 
ATOM     30  C   UNL     1      -7.752  -1.802  -1.129  0.00  0.00    +0.008 A 
ATOM     31  C   UNL     1      -9.092  -1.634  -0.835  0.00  0.00    +0.038 A 
ATOM     32  C   UNL     1     -10.054  -2.257  -1.613  0.00  0.00    +0.123 A 
ATOM     33  C   UNL     1      -9.672  -3.042  -2.688  0.00  0.00    +0.038 A 
ATOM     34  C   UNL     1      -8.332  -3.203  -2.983  0.00  0.00    +0.008 A 
ATOM     35  F   UNL     1     -11.364  -2.098  -1.324  0.00  0.00    -0.205 F 
ENDBRANCH  28  29
ENDBRANCH  27  28
ENDBRANCH  22  23
BRANCH  22  36
ATOM     36  C   UNL     1      -5.032   1.163  -1.593  0.00  0.00    -0.024 C 
ATOM     37  C   UNL     1      -4.853   2.175  -2.727  0.00  0.00    +0.006 C 
ATOM     38  C   UNL     1      -6.523   0.890  -1.384  0.00  0.00    +0.006 C 
ENDBRANCH  22  36
ENDBRANCH   1  22
TORSDOF 8
