REMARK  Name = ZINC39711390
REMARK  10 active torsions:
REMARK  status: ('A' for Active; 'I' for Inactive)
REMARK    1  A    between atoms: C_1  and  C_2
REMARK    2  A    between atoms: N_5  and  C_8
REMARK    3  A    between atoms: C_8  and  C_10
REMARK    4  A    between atoms: C_8  and  C_19
REMARK    5  A    between atoms: N_14  and  C_15
REMARK    6  A    between atoms: C_15  and  C_16
REMARK    7  A    between atoms: C_16  and  O_17
REMARK    8  A    between atoms: O_17  and  C_18
REMARK    9  A    between atoms: C_25  and  O_31
REMARK   10  A    between atoms: O_31  and  C_32
REMARK                            x       y       z     vdW  Elec       q    Type
REMARK                         _______ _______ _______ _____ _____    ______ ____
ROOT
ATOM      1  C   UNL     1       1.701  -3.338   0.407  0.00  0.00    +0.018 C 
ENDROOT
BRANCH   1   2
ATOM      2  C   UNL     1       2.452  -3.134  -0.910  0.00  0.00    +0.092 C 
ATOM      3  C   UNL     1       2.486  -4.463  -1.637  0.00  0.00    -0.006 C 
ATOM      4  C   UNL     1       3.708  -4.974  -1.951  0.00  0.00    -0.007 A 
ATOM      5  C   UNL     1       3.825  -6.253  -2.654  0.00  0.00    +0.013 A 
ATOM      6  C   UNL     1       5.058  -6.731  -2.950  0.00  0.00    +0.046 A 
ATOM      7  C   UNL     1       6.217  -6.024  -2.597  0.00  0.00    +0.122 A 
ATOM      8  C   UNL     1       6.169  -4.816  -1.936  0.00  0.00    +0.069 A 
ATOM      9  C   UNL     1       4.938  -4.246  -1.589  0.00  0.00    +0.044 A 
ATOM     10  N   UNL     1       4.904  -3.075  -0.947  0.00  0.00    -0.284 N 
ATOM     11  C   UNL     1       3.779  -2.482  -0.591  0.00  0.00    +0.223 C 
ATOM     12  O   UNL     1       3.810  -1.414  -0.009  0.00  0.00    -0.275 OA
ATOM     13  H   UNL     1       5.744  -2.641  -0.733  0.00  0.00    +0.155 HD
BRANCH   7  14
ATOM     14  O   UNL     1       7.425  -6.547  -2.918  0.00  0.00    -0.495 OA
ATOM     15  C   UNL     1       7.427  -7.801  -3.603  0.00  0.00    +0.277 C 
ENDBRANCH   7  14
ENDBRANCH   1   2
BRANCH   1  20
ATOM     16  C   UNL     1      -0.697   1.329   2.640  0.00  0.00    +0.007 C 
ATOM     17  C   UNL     1      -0.479  -0.061   2.040  0.00  0.00    -0.018 C 
ATOM     18  C   UNL     1       0.157   0.073   0.653  0.00  0.00    -0.015 C 
ATOM     19  C   UNL     1       0.445  -1.321   0.093  0.00  0.00    -0.078 C 
ATOM     20  N   UNL     1       1.367  -2.031   0.988  0.00  0.00    +0.387 N 
ATOM     21  C   UNL     1       0.736  -2.227   2.299  0.00  0.00    -0.078 C 
ATOM     22  C   UNL     1       0.458  -0.868   2.944  0.00  0.00    -0.015 C 
ATOM     23  H   UNL     1       2.210  -1.489   1.099  0.00  0.00    -0.081 HD
ENDBRANCH   1  20
BRANCH   1  24
ATOM     24  C   UNL     1       2.572  -4.107   1.368  0.00  0.00    +0.139 A 
ATOM     25  N   UNL     1       3.724  -3.721   1.860  0.00  0.00    -0.115 NA
ATOM     26  N   UNL     1       4.155  -4.651   2.641  0.00  0.00    -0.023 NA
ATOM     27  N   UNL     1       3.307  -5.620   2.659  0.00  0.00    -0.044 NA
ATOM     28  N   UNL     1       2.315  -5.320   1.891  0.00  0.00    -0.229 N 
BRANCH  28  29
ATOM     29  C   UNL     1       1.133  -6.146   1.634  0.00  0.00    +0.175 C 
BRANCH  29  30
ATOM     30  C   UNL     1       1.452  -7.164   0.537  0.00  0.00    +0.183 C 
BRANCH  30  31
ATOM     31  O   UNL     1       0.302  -7.978   0.295  0.00  0.00    -0.381 OA
ATOM     32  C   UNL     1       0.494  -8.968  -0.718  0.00  0.00    +0.194 C 
ENDBRANCH  30  31
ENDBRANCH  29  30
ENDBRANCH  28  29
ENDBRANCH   1  24
TORSDOF 7
