REMARK  Name = ZINC08966018
REMARK  11 active torsions:
REMARK  status: ('A' for Active; 'I' for Inactive)
REMARK    1  A    between atoms: C_1  and  C_2
REMARK    2  A    between atoms: C_3  and  C_37
REMARK    3  A    between atoms: C_11  and  C_13
REMARK    4  A    between atoms: C_13  and  C_15
REMARK    5  A    between atoms: C_13  and  S_16
REMARK    6  A    between atoms: S_16  and  C_17
REMARK    7  A    between atoms: C_20  and  C_29
REMARK    8  A    between atoms: N_21  and  C_22
REMARK    9  A    between atoms: C_22  and  C_23
REMARK   10  A    between atoms: C_32  and  O_35
REMARK   11  A    between atoms: O_35  and  C_36
REMARK                            x       y       z     vdW  Elec       q    Type
REMARK                         _______ _______ _______ _____ _____    ______ ____
ROOT
ATOM      1  C   UNL     1       5.796  -1.187  -0.236  0.00  0.00    +0.193 A 
ATOM      2  N   UNL     1       5.120  -2.224   0.203  0.00  0.00    -0.122 NA
ATOM      3  N   UNL     1       3.874  -1.926   0.310  0.00  0.00    -0.128 NA
ATOM      4  C   UNL     1       3.677  -0.683  -0.063  0.00  0.00    +0.165 A 
ATOM      5  N   UNL     1       4.903  -0.170  -0.421  0.00  0.00    -0.300 N 
ENDROOT
BRANCH   4   6
ATOM      6  C   UNL     1       2.384   0.033  -0.087  0.00  0.00    +0.020 A 
ATOM      7  C   UNL     1       1.187  -0.684  -0.061  0.00  0.00    +0.015 A 
ATOM      8  C   UNL     1      -0.017  -0.013  -0.083  0.00  0.00    +0.046 A 
ATOM      9  C   UNL     1      -0.040   1.374  -0.132  0.00  0.00    +0.120 A 
ATOM     10  C   UNL     1       1.149   2.091  -0.158  0.00  0.00    +0.046 A 
ATOM     11  C   UNL     1       2.357   1.428  -0.137  0.00  0.00    +0.015 A 
BRANCH   9  12
ATOM     12  O   UNL     1      -1.228   2.032  -0.159  0.00  0.00    -0.495 OA
ATOM     13  C   UNL     1      -1.179   3.459  -0.209  0.00  0.00    +0.277 C 
ENDBRANCH   9  12
ENDBRANCH   4   6
BRANCH   1  14
ATOM     14  S   UNL     1       7.532  -1.120  -0.531  0.00  0.00    -0.075 S 
BRANCH  14  15
ATOM     15  C   UNL     1       7.995  -2.806  -0.065  0.00  0.00    +0.117 C 
ATOM     16  C   UNL     1       7.738  -3.011   1.429  0.00  0.00    +0.027 C 
BRANCH  15  27
ATOM     17  C   UNL     1      14.590  -2.825  -1.275  0.00  0.00    +0.045 C 
ATOM     18  C   UNL     1      13.481  -3.842  -1.184  0.00  0.00    -0.026 A 
ATOM     19  C   UNL     1      13.738  -5.146  -1.374  0.00  0.00    -0.008 A 
ATOM     20  S   UNL     1      12.143  -5.916  -1.167  0.00  0.00    -0.073 S 
ATOM     21  C   UNL     1      11.179  -4.465  -0.831  0.00  0.00    +0.116 A 
ATOM     22  C   UNL     1      12.123  -3.424  -0.889  0.00  0.00    +0.075 A 
ATOM     23  C   UNL     1      11.610  -2.107  -0.650  0.00  0.00    +0.260 A 
ATOM     24  O   UNL     1      12.350  -1.139  -0.679  0.00  0.00    -0.267 OA
ATOM     25  N   UNL     1      10.297  -1.957  -0.393  0.00  0.00    -0.309 N 
ATOM     26  H   UNL     1       9.943  -1.069  -0.229  0.00  0.00    +0.170 HD
ATOM     27  C   UNL     1       9.458  -3.024  -0.357  0.00  0.00    +0.124 A 
ATOM     28  N   UNL     1       9.896  -4.237  -0.566  0.00  0.00    -0.225 NA
ATOM     29  C   UNL     1      15.058  -5.802  -1.689  0.00  0.00    +0.052 C 
ENDBRANCH  15  27
ENDBRANCH  14  15
ENDBRANCH   1  14
BRANCH   5  30
ATOM     30  C   UNL     1       5.190   1.185  -0.900  0.00  0.00    +0.157 C 
BRANCH  30  31
ATOM     31  C   UNL     1       5.660   2.051   0.271  0.00  0.00    +0.138 C 
ATOM     32  C   UNL     1       5.891   3.509  -0.199  0.00  0.00    +0.035 C 
ATOM     33  C   UNL     1       5.708   4.281   1.136  0.00  0.00    +0.031 C 
ATOM     34  C   UNL     1       4.623   3.447   1.851  0.00  0.00    +0.160 C 
ATOM     35  O   UNL     1       4.632   2.138   1.270  0.00  0.00    -0.375 OA
ENDBRANCH  30  31
ENDBRANCH   5  30
TORSDOF 7
