REMARK  Name = ZINC02316891
REMARK  8 active torsions:
REMARK  status: ('A' for Active; 'I' for Inactive)
REMARK    1  A    between atoms: C_1  and  N_2
REMARK    2  A    between atoms: N_7  and  C_8
REMARK    3  A    between atoms: C_8  and  C_9
REMARK    4  A    between atoms: C_9  and  C_11
REMARK    5  A    between atoms: C_9  and  O_17
REMARK    6  A    between atoms: N_18  and  C_32
REMARK    7  A    between atoms: N_21  and  C_24
REMARK    8  A    between atoms: C_24  and  C_25
REMARK                            x       y       z     vdW  Elec       q    Type
REMARK                         _______ _______ _______ _____ _____    ______ ____
ROOT
ATOM      1  C   UNL     1       3.087   0.238  -0.026  0.00  0.00    +0.152 C 
ATOM      2  N   UNL     1       2.534   1.595  -0.014  0.00  0.00    -0.309 N 
ATOM      3  C   UNL     1       1.189   1.941   0.001  0.00  0.00    +0.153 A 
ATOM      4  C   UNL     1       1.143   3.331   0.009  0.00  0.00    +0.170 A 
ATOM      5  N   UNL     1       2.401   3.776  -0.001  0.00  0.00    -0.196 NA
ATOM      6  C   UNL     1       3.237   2.758  -0.014  0.00  0.00    +0.198 A 
ATOM      7  N   UNL     1       4.610   2.857  -0.027  0.00  0.00    -0.312 N 
ATOM      8  N   UNL     1      -0.093   3.958   0.025  0.00  0.00    -0.279 N 
ATOM      9  C   UNL     1      -1.221   3.224   0.032  0.00  0.00    +0.334 A 
ATOM     10  O   UNL     1      -2.297   3.790   0.045  0.00  0.00    -0.246 OA
ATOM     11  N   UNL     1      -1.188   1.880   0.018  0.00  0.00    -0.255 N 
ATOM     12  C   UNL     1      -0.015   1.214   0.009  0.00  0.00    +0.283 A 
ATOM     13  O   UNL     1       0.002  -0.004   0.002  0.00  0.00    -0.265 OA
ATOM     14  C   UNL     1      -0.171   5.421   0.033  0.00  0.00    +0.155 C 
ATOM     15  H   UNL     1       5.154   2.054  -0.037  0.00  0.00    +0.149 HD
ENDROOT
BRANCH   7  16
ATOM     16  C   UNL     1       5.249   4.175  -0.026  0.00  0.00    +0.140 C 
BRANCH  16  17
ATOM     17  C   UNL     1       6.770   4.004  -0.042  0.00  0.00    +0.162 C 
BRANCH  17  18
ATOM     18  C   UNL     1       7.428   5.360  -0.041  0.00  0.00    -0.018 A 
ATOM     19  C   UNL     1       7.642   6.023   1.153  0.00  0.00    +0.006 A 
ATOM     20  C   UNL     1       8.249   7.265   1.154  0.00  0.00    +0.000 A 
ATOM     21  C   UNL     1       8.634   7.847  -0.039  0.00  0.00    +0.000 A 
ATOM     22  C   UNL     1       8.415   7.186  -1.233  0.00  0.00    +0.000 A 
ATOM     23  C   UNL     1       7.811   5.943  -1.234  0.00  0.00    +0.006 A 
ENDBRANCH  17  18
BRANCH  17  24
ATOM     24  O   UNL     1       7.179   3.275   1.117  0.00  0.00    -0.386 OA
ATOM     25  H   UNL     1       6.949   3.703   1.953  0.00  0.00    +0.210 HD
ENDBRANCH  17  24
ENDBRANCH  16  17
ENDBRANCH   7  16
BRANCH  11  26
ATOM     26  C   UNL     1      -2.445   1.127   0.020  0.00  0.00    +0.165 C 
BRANCH  26  27
ATOM     27  C   UNL     1      -2.869   0.861   1.441  0.00  0.00    -0.027 A 
ATOM     28  C   UNL     1      -2.453  -0.290   2.082  0.00  0.00    +0.007 A 
ATOM     29  C   UNL     1      -2.837  -0.532   3.388  0.00  0.00    +0.020 A 
ATOM     30  C   UNL     1      -3.647   0.373   4.049  0.00  0.00    +0.041 A 
ATOM     31  C   UNL     1      -4.068   1.523   3.405  0.00  0.00    +0.020 A 
ATOM     32  C   UNL     1      -3.679   1.766   2.101  0.00  0.00    +0.007 A 
ATOM     33 CL   UNL     1      -4.135   0.067   5.687  0.00  0.00    -0.084 Cl
ENDBRANCH  26  27
ENDBRANCH  11  26
TORSDOF 6
