REMARK  Name = ZINC54454956
REMARK  8 active torsions:
REMARK  status: ('A' for Active; 'I' for Inactive)
REMARK    1  A    between atoms: C_1  and  C_2
REMARK    2  A    between atoms: C_2  and  C_3
REMARK    3  A    between atoms: C_3  and  C_5
REMARK    4  A    between atoms: C_3  and  N_6
REMARK    5  A    between atoms: N_6  and  C_7
REMARK    6  A    between atoms: N_6  and  C_19
REMARK    7  A    between atoms: C_7  and  C_8
REMARK    8  A    between atoms: C_19  and  C_20
REMARK                            x       y       z     vdW  Elec       q    Type
REMARK                         _______ _______ _______ _____ _____    ______ ____
ROOT
ATOM      1  N   UNL     1      -2.120  -0.251  -1.544  0.00  0.00    -0.289 NA
ENDROOT
BRANCH   1   2
ATOM      2  C   UNL     1      -1.723  -0.796  -0.239  0.00  0.00    +0.054 C 
ATOM      3  C   UNL     1      -2.588  -0.172   0.858  0.00  0.00    +0.024 C 
BRANCH   2   5
ATOM      4  C   UNL     1      -1.022  -2.941  -1.310  0.00  0.00    +0.005 C 
ATOM      5  C   UNL     1      -1.917  -2.314  -0.240  0.00  0.00    +0.015 C 
ENDBRANCH   2   5
ENDBRANCH   1   2
BRANCH   1   6
ATOM      6  C   UNL     1      -3.582  -0.223  -1.681  0.00  0.00    +0.138 C 
BRANCH   6   7
ATOM      7  C   UNL     1      -4.084  -1.610  -1.992  0.00  0.00    +0.037 A 
ATOM      8  C   UNL     1      -4.939  -2.248  -1.114  0.00  0.00    +0.093 A 
ATOM      9  C   UNL     1      -5.392  -3.535  -1.425  0.00  0.00    +0.258 A 
ATOM     10  O   UNL     1      -6.148  -4.125  -0.670  0.00  0.00    -0.267 OA
ATOM     11  N   UNL     1      -4.979  -4.114  -2.573  0.00  0.00    -0.270 N 
ATOM     12  C   UNL     1      -5.411  -5.366  -2.890  0.00  0.00    +0.096 A 
ATOM     13  C   UNL     1      -5.012  -5.965  -4.034  0.00  0.00    +0.018 A 
ATOM     14  C   UNL     1      -4.143  -5.301  -4.912  0.00  0.00    +0.005 A 
ATOM     15  C   UNL     1      -3.705  -4.048  -4.604  0.00  0.00    +0.045 A 
ATOM     16  C   UNL     1      -4.133  -3.440  -3.409  0.00  0.00    +0.118 A 
ATOM     17  N   UNL     1      -3.710  -2.213  -3.109  0.00  0.00    -0.343 N 
ATOM     18  H   UNL     1      -3.112  -1.754  -3.720  0.00  0.00    +0.167 HD
ENDBRANCH   6   7
ENDBRANCH   1   6
BRANCH   1  19
ATOM     19  C   UNL     1      -1.546   1.085  -1.753  0.00  0.00    +0.138 C 
BRANCH  19  20
ATOM     20  C   UNL     1      -0.086   0.955  -2.103  0.00  0.00    +0.037 A 
ATOM     21  C   UNL     1       0.323   1.082  -3.417  0.00  0.00    +0.093 A 
ATOM     22  C   UNL     1       1.684   0.958  -3.717  0.00  0.00    +0.258 A 
ATOM     23  O   UNL     1       2.077   1.066  -4.868  0.00  0.00    -0.267 OA
ATOM     24  N   UNL     1       2.556   0.718  -2.714  0.00  0.00    -0.270 N 
ATOM     25  C   UNL     1       3.883   0.595  -2.991  0.00  0.00    +0.096 A 
ATOM     26  C   UNL     1       4.775   0.354  -2.003  0.00  0.00    +0.018 A 
ATOM     27  C   UNL     1       4.340   0.227  -0.677  0.00  0.00    +0.005 A 
ATOM     28  C   UNL     1       3.013   0.349  -0.390  0.00  0.00    +0.045 A 
ATOM     29  C   UNL     1       2.101   0.601  -1.431  0.00  0.00    +0.118 A 
ATOM     30  N   UNL     1       0.804   0.725  -1.151  0.00  0.00    -0.343 N 
ATOM     31  H   UNL     1       0.506   0.641  -0.232  0.00  0.00    +0.167 HD
ENDBRANCH  19  20
ENDBRANCH   1  19
TORSDOF 6
