REMARK  Name = ZINC09831267
REMARK  9 active torsions:
REMARK  status: ('A' for Active; 'I' for Inactive)
REMARK    1  A    between atoms: C_1  and  C_2
REMARK    2  A    between atoms: N_8  and  C_9
REMARK    3  A    between atoms: C_9  and  C_10
REMARK    4  A    between atoms: C_10  and  N_11
REMARK    5  A    between atoms: C_12  and  C_14
REMARK    6  A    between atoms: C_14  and  C_15
REMARK    7  A    between atoms: C_15  and  C_16
REMARK    8  A    between atoms: N_29  and  C_30
REMARK    9  A    between atoms: C_30  and  C_31
REMARK                            x       y       z     vdW  Elec       q    Type
REMARK                         _______ _______ _______ _____ _____    ______ ____
ROOT
ATOM      1  C   UNL     1       0.267   0.659   9.754  0.00  0.00    +0.140 A 
ATOM      2  N   UNL     1      -0.702   0.105  10.429  0.00  0.00    -0.132 NA
ATOM      3  N   UNL     1      -1.026   0.847  11.427  0.00  0.00    -0.110 NA
ATOM      4  C   UNL     1      -0.275   1.925  11.445  0.00  0.00    +0.240 A 
ATOM      5  N   UNL     1       0.575   1.832  10.381  0.00  0.00    -0.264 N 
ATOM      6  C   UNL     1       1.510   2.826  10.125  0.00  0.00    +0.063 A 
ATOM      7  C   UNL     1       2.374   2.742   9.044  0.00  0.00    +0.027 A 
ATOM      8  C   UNL     1       3.293   3.748   8.817  0.00  0.00    +0.002 A 
ATOM      9  C   UNL     1       3.361   4.845   9.662  0.00  0.00    +0.001 A 
ATOM     10  C   UNL     1       2.510   4.946  10.742  0.00  0.00    +0.015 A 
ATOM     11  C   UNL     1       1.578   3.938  10.982  0.00  0.00    +0.064 A 
ATOM     12  C   UNL     1       0.650   4.008  12.125  0.00  0.00    +0.263 A 
ATOM     13  O   UNL     1       0.678   4.954  12.888  0.00  0.00    -0.267 OA
ATOM     14  N   UNL     1      -0.238   3.007  12.305  0.00  0.00    -0.272 N 
ENDROOT
BRANCH   1  15
ATOM     15  C   UNL     1       0.927   0.106   8.517  0.00  0.00    +0.086 C 
BRANCH  15  16
ATOM     16  C   UNL     1       0.298   0.742   7.276  0.00  0.00    +0.103 C 
BRANCH  16  18
ATOM     17  N   UNL     1       0.564   0.607   4.820  0.00  0.00    -0.317 N 
ATOM     18  C   UNL     1       0.958   0.188   6.039  0.00  0.00    +0.213 C 
ATOM     19  O   UNL     1       1.844  -0.634   6.141  0.00  0.00    -0.276 OA
ATOM     20  H   UNL     1      -0.145   1.264   4.739  0.00  0.00    +0.149 HD
BRANCH  17  21
ATOM     21  C   UNL     1       1.205   0.069   3.618  0.00  0.00    +0.085 C 
BRANCH  21  22
ATOM     22  C   UNL     1       0.577   0.704   2.376  0.00  0.00    -0.059 C 
BRANCH  22  29
ATOM     23  C   UNL     1       0.930   2.366   0.141  0.00  0.00    -0.013 C 
ATOM     24  C   UNL     1       0.701   0.861  -0.012  0.00  0.00    -0.072 C 
ATOM     25  C   UNL     1       1.427   0.360  -1.263  0.00  0.00    -0.016 C 
ATOM     26  C   UNL     1       1.194  -1.147  -1.412  0.00  0.00    -0.003 C 
ATOM     27  C   UNL     1       1.671  -1.855  -0.141  0.00  0.00    -0.019 C 
ATOM     28  C   UNL     1       0.936  -1.272   1.068  0.00  0.00    -0.078 C 
ATOM     29  N   UNL     1       1.220   0.165   1.171  0.00  0.00    +0.382 N 
ATOM     30  H   UNL     1       2.217   0.306   1.232  0.00  0.00    -0.081 HD
ENDBRANCH  22  29
ENDBRANCH  21  22
ENDBRANCH  17  21
ENDBRANCH  16  18
ENDBRANCH  15  16
ENDBRANCH   1  15
BRANCH  14  31
ATOM     31  C   UNL     1      -1.165   3.061  13.438  0.00  0.00    +0.163 C 
BRANCH  31  32
ATOM     32  C   UNL     1      -0.532   2.403  14.637  0.00  0.00    -0.028 A 
ATOM     33  C   UNL     1      -0.703   1.048  14.852  0.00  0.00    +0.005 A 
ATOM     34  C   UNL     1      -0.122   0.444  15.952  0.00  0.00    +0.000 A 
ATOM     35  C   UNL     1       0.629   1.195  16.836  0.00  0.00    +0.000 A 
ATOM     36  C   UNL     1       0.800   2.550  16.620  0.00  0.00    +0.000 A 
ATOM     37  C   UNL     1       0.224   3.153  15.518  0.00  0.00    +0.005 A 
ENDBRANCH  31  32
ENDBRANCH  14  31
TORSDOF 8
