REMARK  Name = ZINC40551481
REMARK  14 active torsions:
REMARK  status: ('A' for Active; 'I' for Inactive)
REMARK    1  A    between atoms: C_1  and  C_2
REMARK    2  A    between atoms: C_4  and  C_40
REMARK    3  A    between atoms: C_5  and  C_9
REMARK    4  A    between atoms: C_6  and  O_8
REMARK    5  A    between atoms: N_17  and  C_33
REMARK    6  A    between atoms: C_18  and  C_20
REMARK    7  A    between atoms: C_23  and  O_28
REMARK    8  A    between atoms: C_24  and  O_26
REMARK    9  A    between atoms: O_26  and  C_27
REMARK   10  A    between atoms: O_28  and  C_29
REMARK   11  A    between atoms: C_29  and  C_30
REMARK   12  A    between atoms: C_30  and  C_31
REMARK   13  A    between atoms: C_30  and  C_32
REMARK   14  A    between atoms: C_33  and  C_34
REMARK                            x       y       z     vdW  Elec       q    Type
REMARK                         _______ _______ _______ _____ _____    ______ ____
ROOT
ATOM      1  C   UNL     1       0.112  -4.362  -0.126  0.00  0.00    +0.102 A 
ATOM      2  C   UNL     1       0.202  -5.160   1.020  0.00  0.00    +0.035 A 
ATOM      3  C   UNL     1       0.171  -6.466   0.573  0.00  0.00    +0.126 A 
ATOM      4  N   UNL     1       0.065  -6.399  -0.788  0.00  0.00    -0.272 N 
ATOM      5  H   UNL     1       0.021  -7.165  -1.381  0.00  0.00    +0.189 HD
ATOM      6  N   UNL     1       0.027  -5.171  -1.164  0.00  0.00    -0.173 NA
ATOM      7  C   UNL     1       0.262  -7.359   1.733  0.00  0.00    +0.266 C 
ATOM      8  O   UNL     1       0.260  -8.574   1.676  0.00  0.00    -0.268 OA
ATOM      9  N   UNL     1       0.348  -6.644   2.869  0.00  0.00    -0.283 N 
ATOM     10  C   UNL     1       0.319  -5.218   2.519  0.00  0.00    +0.141 C 
ENDROOT
BRANCH   1  15
ATOM     11  C   UNL     1       0.089   1.399  -0.283  0.00  0.00    +0.044 C 
ATOM     12  C   UNL     1       0.093  -0.107  -0.240  0.00  0.00    -0.047 A 
ATOM     13  C   UNL     1       0.953  -0.818  -1.059  0.00  0.00    +0.007 A 
ATOM     14  C   UNL     1       0.963  -2.198  -1.026  0.00  0.00    -0.037 A 
ATOM     15  C   UNL     1       0.105  -2.878  -0.165  0.00  0.00    +0.047 A 
ATOM     16  C   UNL     1      -0.762  -2.158   0.661  0.00  0.00    +0.127 A 
ATOM     17  C   UNL     1      -0.758  -0.773   0.622  0.00  0.00    +0.049 A 
ATOM     18  C   UNL     1       1.900  -2.967  -1.920  0.00  0.00    +0.044 C 
BRANCH  16  19
ATOM     19  O   UNL     1      -1.602  -2.814   1.504  0.00  0.00    -0.506 OA
ATOM     20  H   UNL     1      -1.260  -2.911   2.403  0.00  0.00    +0.292 HD
ENDBRANCH  16  19
ENDBRANCH   1  15
BRANCH  10  21
ATOM     21  C   UNL     1       1.591  -4.546   2.967  0.00  0.00    -0.019 A 
ATOM     22  C   UNL     1       2.812  -5.141   2.708  0.00  0.00    +0.009 A 
ATOM     23  C   UNL     1       3.982  -4.529   3.118  0.00  0.00    +0.050 A 
ATOM     24  C   UNL     1       3.933  -3.317   3.788  0.00  0.00    +0.162 A 
ATOM     25  C   UNL     1       2.704  -2.719   4.047  0.00  0.00    +0.162 A 
ATOM     26  C   UNL     1       1.535  -3.335   3.630  0.00  0.00    +0.055 A 
BRANCH  25  27
ATOM     27  O   UNL     1       2.650  -1.529   4.705  0.00  0.00    -0.491 OA
ATOM     28  C   UNL     1       1.353  -0.974   4.936  0.00  0.00    +0.277 C 
ENDBRANCH  25  27
BRANCH  24  29
ATOM     29  O   UNL     1       5.083  -2.713   4.191  0.00  0.00    -0.488 OA
BRANCH  29  30
ATOM     30  C   UNL     1       6.308  -3.385   3.891  0.00  0.00    +0.232 C 
BRANCH  30  31
ATOM     31  C   UNL     1       7.484  -2.562   4.418  0.00  0.00    +0.020 C 
ATOM     32  C   UNL     1       7.420  -2.501   5.946  0.00  0.00    +0.010 C 
ATOM     33  C   UNL     1       8.799  -3.216   3.989  0.00  0.00    +0.010 C 
ENDBRANCH  30  31
ENDBRANCH  29  30
ENDBRANCH  24  29
ENDBRANCH  10  21
BRANCH   9  34
ATOM     34  C   UNL     1       0.452  -7.193   4.223  0.00  0.00    +0.140 C 
BRANCH  34  35
ATOM     35  C   UNL     1       1.927  -7.381   4.585  0.00  0.00    +0.136 C 
ATOM     36  C   UNL     1       2.059  -7.995   6.002  0.00  0.00    +0.035 C 
ATOM     37  C   UNL     1       3.452  -8.674   5.900  0.00  0.00    +0.031 C 
ATOM     38  C   UNL     1       3.487  -9.132   4.426  0.00  0.00    +0.160 C 
ATOM     39  O   UNL     1       2.539  -8.336   3.702  0.00  0.00    -0.375 OA
ENDBRANCH  34  35
ENDBRANCH   9  34
TORSDOF 9
