REMARK  Name = ZINC17059780
REMARK  9 active torsions:
REMARK  status: ('A' for Active; 'I' for Inactive)
REMARK    1  A    between atoms: C_1  and  C_2
REMARK    2  A    between atoms: C_5  and  C_8
REMARK    3  A    between atoms: C_11  and  S_20
REMARK    4  A    between atoms: N_12  and  C_13
REMARK    5  A    between atoms: S_20  and  C_21
REMARK    6  A    between atoms: C_21  and  C_23
REMARK    7  A    between atoms: C_21  and  C_24
REMARK    8  A    between atoms: N_26  and  C_27
REMARK    9  A    between atoms: C_28  and  C_32
REMARK                            x       y       z     vdW  Elec       q    Type
REMARK                         _______ _______ _______ _____ _____    ______ ____
ROOT
ATOM      1  C   UNL     1      -2.791   8.033  -0.668  0.00  0.00    +0.169 A 
ATOM      2  N   UNL     1      -1.551   7.745  -0.349  0.00  0.00    -0.128 NA
ATOM      3  N   UNL     1      -1.375   6.472  -0.367  0.00  0.00    -0.122 NA
ATOM      4  C   UNL     1      -2.491   5.867  -0.709  0.00  0.00    +0.197 A 
ATOM      5  N   UNL     1      -3.433   6.838  -0.909  0.00  0.00    -0.270 N 
ENDROOT
BRANCH   1  10
ATOM      6  C   UNL     1      -5.108  13.289  -0.999  0.00  0.00    +0.044 C 
ATOM      7  C   UNL     1      -4.502  11.913  -0.912  0.00  0.00    -0.050 A 
ATOM      8  C   UNL     1      -5.322  10.803  -0.818  0.00  0.00    +0.004 A 
ATOM      9  C   UNL     1      -4.774   9.540  -0.738  0.00  0.00    +0.012 A 
ATOM     10  C   UNL     1      -3.387   9.383  -0.753  0.00  0.00    +0.020 A 
ATOM     11  C   UNL     1      -2.564  10.507  -0.844  0.00  0.00    +0.012 A 
ATOM     12  C   UNL     1      -3.126  11.764  -0.927  0.00  0.00    +0.004 A 
ENDBRANCH   1  10
BRANCH   5  13
ATOM     13  C   UNL     1      -4.773   6.655  -1.282  0.00  0.00    +0.051 A 
ATOM     14  C   UNL     1      -5.210   7.073  -2.531  0.00  0.00    +0.028 A 
ATOM     15  C   UNL     1      -6.529   6.888  -2.898  0.00  0.00    +0.022 A 
ATOM     16  C   UNL     1      -7.416   6.296  -2.017  0.00  0.00    +0.041 A 
ATOM     17  C   UNL     1      -6.984   5.883  -0.769  0.00  0.00    +0.022 A 
ATOM     18  C   UNL     1      -5.665   6.061  -0.400  0.00  0.00    +0.028 A 
ATOM     19 CL   UNL     1      -9.075   6.070  -2.478  0.00  0.00    -0.084 Cl
ENDBRANCH   5  13
BRANCH   4  20
ATOM     20  S   UNL     1      -2.729   4.129  -0.872  0.00  0.00    -0.073 S 
BRANCH  20  21
ATOM     21  C   UNL     1      -1.068   3.543  -0.456  0.00  0.00    +0.137 C 
ATOM     22  C   UNL     1      -0.758   3.882   1.004  0.00  0.00    +0.029 C 
BRANCH  21  23
ATOM     23  C   UNL     1      -0.998   2.050  -0.650  0.00  0.00    +0.231 C 
ATOM     24  O   UNL     1      -2.018   1.393  -0.673  0.00  0.00    -0.274 OA
ATOM     25  N   UNL     1       0.197   1.445  -0.798  0.00  0.00    -0.278 N 
ATOM     26  H   UNL     1       1.012   1.971  -0.783  0.00  0.00    +0.155 HD
BRANCH  25  27
ATOM     27  C   UNL     1       0.261   0.071  -0.977  0.00  0.00    +0.084 A 
ATOM     28  C   UNL     1       1.386  -0.724  -1.156  0.00  0.00    +0.065 A 
ATOM     29  C   UNL     1       1.161  -2.141  -1.315  0.00  0.00    +0.022 A 
ATOM     30  C   UNL     1      -0.115  -2.567  -1.288  0.00  0.00    +0.048 A 
ATOM     31  S   UNL     1      -1.042  -1.067  -1.038  0.00  0.00    -0.081 S 
BRANCH  28  32
ATOM     32  C   UNL     1       2.737  -0.153  -1.177  0.00  0.00    +0.244 C 
ATOM     33  O   UNL     1       2.893   1.046  -1.037  0.00  0.00    -0.270 OA
ATOM     34  N   UNL     1       3.805  -0.956  -1.353  0.00  0.00    -0.325 N 
ATOM     35  H   UNL     1       3.681  -1.911  -1.466  0.00  0.00    +0.145 HD
ATOM     36  H   UNL     1       4.698  -0.578  -1.368  0.00  0.00    +0.145 HD
ENDBRANCH  28  32
ENDBRANCH  25  27
ENDBRANCH  21  23
ENDBRANCH  20  21
ENDBRANCH   4  20
TORSDOF 7
