REMARK  Name = ZINC10042099
REMARK  10 active torsions:
REMARK  status: ('A' for Active; 'I' for Inactive)
REMARK    1  A    between atoms: C_4  and  C_7
REMARK    2  A    between atoms: C_7  and  C_9
REMARK    3  A    between atoms: C_9  and  C_11
REMARK    4  A    between atoms: C_9  and  O_18
REMARK    5  A    between atoms: O_18  and  C_19
REMARK    6  A    between atoms: C_19  and  C_21
REMARK    7  A    between atoms: C_21  and  N_22
REMARK    8  A    between atoms: C_23  and  C_25
REMARK    9  A    between atoms: C_25  and  N_26
REMARK   10  A    between atoms: C_27  and  C_29
REMARK                            x       y       z     vdW  Elec       q    Type
REMARK                         _______ _______ _______ _____ _____    ______ ____
ROOT
ATOM      1  C   UNL     1      -6.008   1.186  -0.579  0.00  0.00    +0.325 C 
ATOM      2  O   UNL     1      -6.161   2.358  -0.828  0.00  0.00    -0.249 OA
ENDROOT
BRANCH   1   3
ATOM      3  O   UNL     1      -4.841   0.753  -0.076  0.00  0.00    -0.447 OA
BRANCH   3   4
ATOM      4  C   UNL     1      -3.809   1.750   0.144  0.00  0.00    +0.277 C 
BRANCH   4   5
ATOM      5  C   UNL     1      -3.939   2.311   1.536  0.00  0.00    +0.000 A 
ATOM      6  C   UNL     1      -4.246   1.473   2.593  0.00  0.00    +0.009 A 
ATOM      7  C   UNL     1      -4.360   1.986   3.871  0.00  0.00    +0.020 A 
ATOM      8  C   UNL     1      -4.180   3.339   4.092  0.00  0.00    +0.041 A 
ATOM      9  C   UNL     1      -3.879   4.178   3.034  0.00  0.00    +0.020 A 
ATOM     10  C   UNL     1      -3.759   3.663   1.756  0.00  0.00    +0.009 A 
ATOM     11 CL   UNL     1      -4.330   3.985   5.696  0.00  0.00    -0.084 Cl
ENDBRANCH   4   5
BRANCH   4  12
ATOM     12  C   UNL     1      -2.453   1.111  -0.015  0.00  0.00    +0.208 C 
ATOM     13  O   UNL     1      -2.333  -0.091   0.084  0.00  0.00    -0.288 OA
BRANCH  12  17
ATOM     14  C   UNL     1       0.945   3.521  -0.817  0.00  0.00    +0.000 A 
ATOM     15  C   UNL     1       1.102   2.166  -0.582  0.00  0.00    +0.001 A 
ATOM     16  C   UNL     1       0.003   1.377  -0.317  0.00  0.00    +0.011 A 
ATOM     17  C   UNL     1      -1.274   1.948  -0.292  0.00  0.00    +0.022 A 
ATOM     18  C   UNL     1      -1.423   3.318  -0.526  0.00  0.00    +0.011 A 
ATOM     19  C   UNL     1      -0.314   4.094  -0.789  0.00  0.00    +0.001 A 
ENDBRANCH  12  17
ENDBRANCH   4  12
ENDBRANCH   3   4
ENDBRANCH   1   3
BRANCH   1  20
ATOM     20  C   UNL     1      -7.127   0.209  -0.834  0.00  0.00    +0.225 C 
BRANCH  20  21
ATOM     21  N   UNL     1      -8.284   0.923  -1.380  0.00  0.00    -0.304 N 
ATOM     22  C   UNL     1      -9.409   0.248  -1.687  0.00  0.00    +0.231 C 
ATOM     23  O   UNL     1      -9.465  -0.951  -1.510  0.00  0.00    -0.274 OA
ATOM     24  H   UNL     1      -8.240   1.882  -1.521  0.00  0.00    +0.149 HD
BRANCH  22  25
ATOM     25  C   UNL     1     -10.599   0.982  -2.248  0.00  0.00    +0.200 C 
BRANCH  25  26
ATOM     26  N   UNL     1     -11.687   0.033  -2.496  0.00  0.00    -0.303 N 
ATOM     27  C   UNL     1     -12.859   0.467  -3.002  0.00  0.00    +0.244 C 
ATOM     28  O   UNL     1     -13.013   1.647  -3.252  0.00  0.00    -0.270 OA
ATOM     29  H   UNL     1     -11.564  -0.908  -2.296  0.00  0.00    +0.150 HD
BRANCH  27  30
ATOM     30  C   UNL     1     -13.956  -0.491  -3.251  0.00  0.00    +0.037 A 
ATOM     31  C   UNL     1     -13.780  -1.847  -2.970  0.00  0.00    +0.014 A 
ATOM     32  C   UNL     1     -14.810  -2.735  -3.199  0.00  0.00    +0.021 A 
ATOM     33  C   UNL     1     -16.012  -2.286  -3.719  0.00  0.00    +0.041 A 
ATOM     34  C   UNL     1     -16.191  -0.943  -4.006  0.00  0.00    +0.021 A 
ATOM     35  C   UNL     1     -15.171  -0.044  -3.775  0.00  0.00    +0.014 A 
ATOM     36 CL   UNL     1     -17.302  -3.411  -4.011  0.00  0.00    -0.084 Cl
ENDBRANCH  27  30
ENDBRANCH  25  26
ENDBRANCH  22  25
ENDBRANCH  20  21
ENDBRANCH   1  20
TORSDOF 10
