REMARK  Name = ZINC37279607
REMARK  3 active torsions:
REMARK  status: ('A' for Active; 'I' for Inactive)
REMARK    1  A    between atoms: C_6  and  N_7
REMARK    2  A    between atoms: N_12  and  C_15
REMARK    3  A    between atoms: C_15  and  C_16
REMARK                            x       y       z     vdW  Elec       q    Type
REMARK                         _______ _______ _______ _____ _____    ______ ____
ROOT
ATOM      1  N   UNL     1      -1.201  -0.722   0.010  0.00  0.00    -0.245 N 
ATOM      2  C   UNL     1      -1.183  -2.104  -0.096  0.00  0.00    +0.172 A 
ATOM      3  C   UNL     1      -2.389  -2.793  -0.086  0.00  0.00    +0.149 A 
ATOM      4  C   UNL     1      -3.594  -2.068   0.034  0.00  0.00    +0.282 A 
ATOM      5  O   UNL     1      -4.664  -2.650   0.046  0.00  0.00    -0.265 OA
ATOM      6  N   UNL     1      -3.547  -0.724   0.134  0.00  0.00    -0.259 N 
ATOM      7  C   UNL     1      -2.373  -0.070   0.127  0.00  0.00    +0.338 A 
ATOM      8  O   UNL     1      -2.369   1.143   0.224  0.00  0.00    -0.246 OA
ATOM      9  N   UNL     1      -2.071  -4.131  -0.205  0.00  0.00    -0.339 N 
ATOM     10  H   UNL     1      -2.695  -4.873  -0.229  0.00  0.00    +0.167 HD
ATOM     11  C   UNL     1      -0.728  -4.211  -0.282  0.00  0.00    +0.199 A 
ATOM     12  N   UNL     1      -0.210  -3.011  -0.217  0.00  0.00    -0.218 NA
ENDROOT
BRANCH   1  18
ATOM     13  C   UNL     1       0.664   0.258   1.194  0.00  0.00    +0.028 A 
ATOM     14  C   UNL     1       1.850   0.965   1.184  0.00  0.00    +0.022 A 
ATOM     15  C   UNL     1       2.379   1.414  -0.014  0.00  0.00    +0.041 A 
ATOM     16  C   UNL     1       1.721   1.154  -1.204  0.00  0.00    +0.022 A 
ATOM     17  C   UNL     1       0.535   0.447  -1.198  0.00  0.00    +0.028 A 
ATOM     18  C   UNL     1       0.002  -0.004   0.002  0.00  0.00    +0.053 A 
ATOM     19 CL   UNL     1       3.869   2.303  -0.024  0.00  0.00    -0.084 Cl
ENDBRANCH   1  18
BRANCH   6  20
ATOM     20  C   UNL     1      -4.794   0.035   0.257  0.00  0.00    +0.133 C 
BRANCH  20  21
ATOM     21  C   UNL     1      -5.153   0.189   1.736  0.00  0.00    +0.009 C 
ATOM     22  C   UNL     1      -6.448  -0.466   2.221  0.00  0.00    +0.005 C 
ATOM     23  C   UNL     1      -6.366   1.055   2.082  0.00  0.00    +0.005 C 
ENDBRANCH  20  21
ENDBRANCH   6  20
TORSDOF 3
