REMARK  Name = ZINC06127059
REMARK  13 active torsions:
REMARK  status: ('A' for Active; 'I' for Inactive)
REMARK    1  A    between atoms: C_1  and  N_59
REMARK    2  A    between atoms: C_2  and  N_59
REMARK    3  A    between atoms: C_3  and  C_4
REMARK    4  A    between atoms: C_3  and  N_59
REMARK    5  A    between atoms: C_4  and  N_5
REMARK    6  A    between atoms: C_6  and  C_27
REMARK    7  A    between atoms: C_8  and  C_13
REMARK    8  A    between atoms: C_9  and  O_12
REMARK    9  A    between atoms: C_13  and  C_15
REMARK   10  A    between atoms: C_18  and  S_21
REMARK   11  A    between atoms: S_21  and  N_24
REMARK   12  A    between atoms: N_24  and  C_25
REMARK   13  A    between atoms: N_24  and  C_26
REMARK                            x       y       z     vdW  Elec       q    Type
REMARK                         _______ _______ _______ _____ _____    ______ ____
ROOT
ATOM      1  N   UNL     1      -0.311   0.694   4.524  0.00  0.00    -0.285 N 
ATOM      2  C   UNL     1      -0.406  -0.508   5.362  0.00  0.00    +0.144 C 
ATOM      3  C   UNL     1       0.566  -0.305   6.501  0.00  0.00    +0.071 C 
ATOM      4  C   UNL     1       1.140   0.907   6.314  0.00  0.00    +0.188 C 
ATOM      5  C   UNL     1       0.591   1.520   5.086  0.00  0.00    +0.282 C 
ATOM      6  O   UNL     1       0.907   2.608   4.648  0.00  0.00    -0.267 OA
ENDROOT
BRANCH   2   7
ATOM      7  C   UNL     1      -0.018  -1.727   4.565  0.00  0.00    -0.022 A 
ATOM      8  C   UNL     1       1.143  -1.722   3.815  0.00  0.00    +0.008 A 
ATOM      9  C   UNL     1       1.502  -2.841   3.088  0.00  0.00    +0.038 A 
ATOM     10  C   UNL     1       0.692  -3.963   3.101  0.00  0.00    +0.123 A 
ATOM     11  C   UNL     1      -0.474  -3.965   3.848  0.00  0.00    +0.038 A 
ATOM     12  C   UNL     1      -0.828  -2.847   4.579  0.00  0.00    +0.008 A 
ATOM     13  F   UNL     1       1.039  -5.056   2.387  0.00  0.00    -0.205 F 
ENDBRANCH   2   7
BRANCH   4  14
ATOM     14  O   UNL     1       2.069   1.467   7.122  0.00  0.00    -0.502 OA
ATOM     15  H   UNL     1       2.328   2.363   6.761  0.00  0.00    +0.292 HD
ENDBRANCH   4  14
BRANCH   3  16
ATOM     16  C   UNL     1       0.832  -1.238   7.600  0.00  0.00    +0.195 C 
ATOM     17  O   UNL     1       1.926  -1.759   7.704  0.00  0.00    -0.287 OA
BRANCH  16  18
ATOM     18  C   UNL     1      -0.230  -1.546   8.581  0.00  0.00    +0.022 A 
ATOM     19  C   UNL     1      -1.502  -0.986   8.438  0.00  0.00    +0.013 A 
ATOM     20  C   UNL     1      -2.489  -1.281   9.354  0.00  0.00    +0.029 A 
ATOM     21  C   UNL     1      -2.219  -2.121  10.421  0.00  0.00    +0.105 A 
ATOM     22  C   UNL     1      -0.960  -2.675  10.572  0.00  0.00    +0.029 A 
ATOM     23  C   UNL     1       0.035  -2.393   9.659  0.00  0.00    +0.013 A 
BRANCH  21  24
ATOM     24  S   UNL     1      -3.485  -2.487  11.591  0.00  0.00    +0.060 S 
ATOM     25  O   UNL     1      -4.724  -2.281  10.926  0.00  0.00    -0.153 OA
ATOM     26  O   UNL     1      -3.138  -3.728  12.189  0.00  0.00    -0.153 OA
BRANCH  24  27
ATOM     27  N   UNL     1      -3.393  -1.343  12.785  0.00  0.00    -0.183 NA
ATOM     28  C   UNL     1      -4.160  -0.101  12.670  0.00  0.00    +0.131 C 
ATOM     29  C   UNL     1      -2.544  -1.574  13.957  0.00  0.00    +0.131 C 
ENDBRANCH  24  27
ENDBRANCH  21  24
ENDBRANCH  16  18
ENDBRANCH   3  16
BRANCH   1  30
ATOM     30  C   UNL     1      -1.069   0.951   3.297  0.00  0.00    +0.090 C 
BRANCH  30  31
ATOM     31  C   UNL     1      -0.285   0.424   2.093  0.00  0.00    -0.060 C 
BRANCH  31  34
ATOM     32  C   UNL     1      -0.444  -0.014  -0.283  0.00  0.00    -0.097 C 
ATOM     33  C   UNL     1      -1.154   2.124   0.604  0.00  0.00    -0.097 C 
ATOM     34  N   UNL     1      -1.071   0.672   0.867  0.00  0.00    +0.377 N 
ATOM     35  H   UNL     1      -2.020   0.302   0.998  0.00  0.00    -0.083 HD
ENDBRANCH  31  34
ENDBRANCH  30  31
ENDBRANCH   1  30
TORSDOF 9
