REMARK  Name = ZINC09014362
REMARK  11 active torsions:
REMARK  status: ('A' for Active; 'I' for Inactive)
REMARK    1  A    between atoms: C_1  and  C_2
REMARK    2  A    between atoms: C_2  and  C_3
REMARK    3  A    between atoms: C_8  and  N_9
REMARK    4  A    between atoms: C_10  and  C_12
REMARK    5  A    between atoms: C_12  and  S_13
REMARK    6  A    between atoms: S_13  and  C_14
REMARK    7  A    between atoms: C_15  and  C_36
REMARK    8  A    between atoms: C_16  and  C_22
REMARK    9  A    between atoms: C_25  and  O_28
REMARK   10  A    between atoms: O_28  and  C_29
REMARK   11  A    between atoms: C_29  and  C_30
REMARK                            x       y       z     vdW  Elec       q    Type
REMARK                         _______ _______ _______ _____ _____    ______ ____
ROOT
ATOM      1  C   UNL     1       9.198  -1.317  -0.222  0.00  0.00    +0.082 C 
ATOM      2  C   UNL     1       8.904  -1.147  -1.541  0.00  0.00    +0.065 C 
ATOM      3  C   UNL     1       7.790  -1.937  -2.176  0.00  0.00    +0.070 C 
ATOM      4  C   UNL     1       7.718  -3.323  -1.533  0.00  0.00    +0.109 C 
ATOM      5  C   UNL     1       7.755  -3.185  -0.034  0.00  0.00    +0.218 C 
ATOM      6  O   UNL     1       7.127  -3.959   0.658  0.00  0.00    -0.275 OA
ATOM      7  N   UNL     1       8.480  -2.211   0.545  0.00  0.00    -0.279 N 
ATOM      8  H   UNL     1       8.496  -2.131   1.642  0.00  0.00    +0.155 HD
ENDROOT
BRANCH   3   9
ATOM      9  C   UNL     1       6.482  -1.218  -1.968  0.00  0.00    -0.039 A 
ATOM     10  C   UNL     1       5.738  -0.808  -3.059  0.00  0.00    +0.008 A 
ATOM     11  C   UNL     1       4.539  -0.149  -2.871  0.00  0.00    +0.046 A 
ATOM     12  C   UNL     1       4.081   0.102  -1.586  0.00  0.00    +0.121 A 
ATOM     13  C   UNL     1       4.832  -0.304  -0.493  0.00  0.00    +0.046 A 
ATOM     14  C   UNL     1       6.028  -0.968  -0.686  0.00  0.00    +0.008 A 
BRANCH  12  15
ATOM     15  O   UNL     1       2.901   0.751  -1.398  0.00  0.00    -0.487 OA
BRANCH  15  16
ATOM     16  C   UNL     1       2.492   0.975  -0.048  0.00  0.00    +0.264 C 
BRANCH  16  17
ATOM     17  C   UNL     1       1.172   1.701  -0.037  0.00  0.00    -0.010 A 
ATOM     18  C   UNL     1      -0.011   0.985  -0.032  0.00  0.00    +0.007 A 
ATOM     19  C   UNL     1      -1.222   1.651  -0.028  0.00  0.00    +0.000 A 
ATOM     20  C   UNL     1      -1.251   3.033  -0.018  0.00  0.00    +0.000 A 
ATOM     21  C   UNL     1      -0.068   3.749  -0.021  0.00  0.00    +0.000 A 
ATOM     22  C   UNL     1       1.143   3.083  -0.031  0.00  0.00    +0.007 A 
ENDBRANCH  16  17
ENDBRANCH  15  16
ENDBRANCH  12  15
ENDBRANCH   3   9
BRANCH   2  23
ATOM     23  C   UNL     1       9.657  -0.215  -2.326  0.00  0.00    +0.098 C 
ATOM     24  N   UNL     1      10.255   0.523  -2.949  0.00  0.00    -0.191 NA
ENDBRANCH   2  23
BRANCH   1  25
ATOM     25  S   UNL     1      10.503  -0.388   0.510  0.00  0.00    -0.100 S 
BRANCH  25  26
ATOM     26  C   UNL     1      10.422  -1.015   2.206  0.00  0.00    +0.171 C 
BRANCH  26  28
ATOM     27  N   UNL     1      11.608  -0.654   4.347  0.00  0.00    -0.285 N 
ATOM     28  C   UNL     1      11.480  -0.342   3.042  0.00  0.00    +0.227 C 
ATOM     29  O   UNL     1      12.216   0.481   2.540  0.00  0.00    -0.275 OA
ATOM     30  H   UNL     1      10.885  -1.332   4.824  0.00  0.00    +0.155 HD
BRANCH  27  36
ATOM     31  C   UNL     1      12.541   0.017   6.471  0.00  0.00    -0.026 A 
ATOM     32  C   UNL     1      13.585   0.542   7.207  0.00  0.00    +0.005 A 
ATOM     33  C   UNL     1      14.745   0.945   6.573  0.00  0.00    +0.000 A 
ATOM     34  C   UNL     1      14.867   0.819   5.202  0.00  0.00    +0.002 A 
ATOM     35  C   UNL     1      13.829   0.289   4.461  0.00  0.00    +0.023 A 
ATOM     36  C   UNL     1      12.662  -0.117   5.095  0.00  0.00    +0.037 A 
BRANCH  31  38
ATOM     37  C   UNL     1      11.343  -1.915   7.462  0.00  0.00    +0.009 C 
ATOM     38  C   UNL     1      11.273  -0.416   7.162  0.00  0.00    +0.033 C 
ENDBRANCH  31  38
ENDBRANCH  27  36
ENDBRANCH  26  28
ENDBRANCH  25  26
ENDBRANCH   1  25
TORSDOF 10
