REMARK  Name = ZINC39711603
REMARK  7 active torsions:
REMARK  status: ('A' for Active; 'I' for Inactive)
REMARK    1  A    between atoms: C_1  and  O_2
REMARK    2  A    between atoms: O_2  and  C_3
REMARK    3  A    between atoms: C_3  and  C_4
REMARK    4  A    between atoms: C_4  and  N_5
REMARK    5  A    between atoms: C_6  and  C_10
REMARK    6  A    between atoms: C_10  and  C_12
REMARK    7  A    between atoms: C_10  and  N_27
REMARK                            x       y       z     vdW  Elec       q    Type
REMARK                         _______ _______ _______ _____ _____    ______ ____
ROOT
ATOM      1  C   UNL     1      -0.752  -2.832  -3.744  0.00  0.00    +0.018 C 
ENDROOT
BRANCH   1   2
ATOM      2  C   UNL     1      -1.487  -4.148  -3.476  0.00  0.00    +0.092 C 
ATOM      3  C   UNL     1      -1.055  -5.145  -4.533  0.00  0.00    -0.006 C 
ATOM      4  C   UNL     1      -0.490  -6.305  -4.104  0.00  0.00    -0.003 A 
ATOM      5  C   UNL     1      -0.047  -7.320  -5.062  0.00  0.00    +0.059 A 
ATOM      6  C   UNL     1       0.512  -8.469  -4.601  0.00  0.00    +0.167 A 
ATOM      7  C   UNL     1       0.674  -8.700  -3.217  0.00  0.00    +0.168 A 
ATOM      8  C   UNL     1       0.274  -7.775  -2.276  0.00  0.00    +0.073 A 
ATOM      9  C   UNL     1      -0.313  -6.564  -2.663  0.00  0.00    +0.044 A 
ATOM     10  N   UNL     1      -0.694  -5.682  -1.735  0.00  0.00    -0.284 N 
ATOM     11  C   UNL     1      -1.253  -4.523  -2.030  0.00  0.00    +0.223 C 
ATOM     12  O   UNL     1      -1.580  -3.760  -1.140  0.00  0.00    -0.275 OA
ATOM     13  O   UNL     1       1.257  -9.922  -3.055  0.00  0.00    -0.453 OA
ATOM     14  C   UNL     1       1.069 -10.611  -4.304  0.00  0.00    +0.466 C 
ATOM     15  O   UNL     1       0.997  -9.554  -5.277  0.00  0.00    -0.453 OA
ATOM     16  H   UNL     1      -0.553  -5.904  -0.801  0.00  0.00    +0.155 HD
ENDBRANCH   1   2
BRANCH   1  17
ATOM     17  N   UNL     1      -1.033  -2.386  -5.115  0.00  0.00    +0.387 N 
ATOM     18  C   UNL     1      -0.230  -1.179  -5.393  0.00  0.00    -0.078 C 
ATOM     19  C   UNL     1      -0.032  -1.075  -6.884  0.00  0.00    -0.019 C 
ATOM     20  C   UNL     1      -1.074  -0.141  -7.527  0.00  0.00    -0.002 C 
ATOM     21  C   UNL     1      -2.476  -0.343  -6.918  0.00  0.00    -0.002 C 
ATOM     22  C   UNL     1      -2.799  -1.797  -6.689  0.00  0.00    -0.019 C 
ATOM     23  C   UNL     1      -2.407  -2.178  -5.246  0.00  0.00    -0.078 C 
ATOM     24  H   UNL     1      -0.753  -3.113  -5.755  0.00  0.00    -0.081 HD
ENDBRANCH   1  17
BRANCH   1  26
ATOM     25  N   UNL     1       1.488  -2.636  -2.541  0.00  0.00    -0.229 N 
ATOM     26  C   UNL     1       0.731  -3.042  -3.577  0.00  0.00    +0.139 A 
ATOM     27  N   UNL     1       1.533  -3.656  -4.412  0.00  0.00    -0.115 NA
ATOM     28  N   UNL     1       2.721  -3.628  -3.915  0.00  0.00    -0.023 NA
ATOM     29  N   UNL     1       2.699  -3.008  -2.787  0.00  0.00    -0.044 NA
BRANCH  25  30
ATOM     30  C   UNL     1       1.026  -1.904  -1.359  0.00  0.00    +0.175 C 
BRANCH  30  31
ATOM     31  C   UNL     1       1.111  -0.399  -1.626  0.00  0.00    +0.183 C 
BRANCH  31  33
ATOM     32  C   UNL     1       0.700   1.736  -0.617  0.00  0.00    +0.194 C 
ATOM     33  O   UNL     1       0.660   0.315  -0.473  0.00  0.00    -0.381 OA
ENDBRANCH  31  33
ENDBRANCH  30  31
ENDBRANCH  25  30
ENDBRANCH   1  26
TORSDOF 6
