REMARK  Name = ZINC45254626
REMARK  10 active torsions:
REMARK  status: ('A' for Active; 'I' for Inactive)
REMARK    1  A    between atoms: C_1  and  C_2
REMARK    2  A    between atoms: C_2  and  O_3
REMARK    3  A    between atoms: O_3  and  C_4
REMARK    4  A    between atoms: C_7  and  N_10
REMARK    5  A    between atoms: N_10  and  C_11
REMARK    6  A    between atoms: C_12  and  C_30
REMARK    7  A    between atoms: C_13  and  N_22
REMARK    8  A    between atoms: C_14  and  C_20
REMARK    9  A    between atoms: N_22  and  C_23
REMARK   10  A    between atoms: C_26  and  N_29
REMARK                            x       y       z     vdW  Elec       q    Type
REMARK                         _______ _______ _______ _____ _____    ______ ____
ROOT
ATOM      1  C   UNL     1       1.498  -6.411  -3.135  0.00  0.00    +0.130 A 
ATOM      2  C   UNL     1       1.725  -7.747  -3.251  0.00  0.00    +0.018 A 
ATOM      3  C   UNL     1       2.442  -8.267  -4.334  0.00  0.00    +0.054 A 
ATOM      4  C   UNL     1       2.931  -7.388  -5.313  0.00  0.00    +0.098 A 
ATOM      5  C   UNL     1       2.666  -5.955  -5.154  0.00  0.00    +0.088 A 
ATOM      6  N   UNL     1       1.951  -5.518  -4.069  0.00  0.00    -0.217 N 
ATOM      7  N   UNL     1       1.843  -4.125  -4.174  0.00  0.00    -0.173 NA
ATOM      8  C   UNL     1       2.454  -3.732  -5.267  0.00  0.00    +0.135 A 
ATOM      9  C   UNL     1       2.990  -4.843  -5.908  0.00  0.00    +0.050 A 
ENDROOT
BRANCH   2  10
ATOM     10  C   UNL     1       1.196  -8.682  -2.194  0.00  0.00    +0.024 C 
ATOM     11  C   UNL     1       0.417  -9.912  -2.665  0.00  0.00    +0.009 C 
ATOM     12  C   UNL     1      -0.320  -8.747  -2.003  0.00  0.00    +0.009 C 
ENDBRANCH   2  10
BRANCH   1  13
ATOM     13  N   UNL     1       0.786  -5.943  -2.050  0.00  0.00    -0.299 N 
ATOM     14  H   UNL     1      -0.116  -6.259  -1.889  0.00  0.00    +0.154 HD
BRANCH  13  18
ATOM     15  C   UNL     1       2.515  -3.169   0.537  0.00  0.00    +0.121 A 
ATOM     16  C   UNL     1       1.179  -3.511   0.680  0.00  0.00    +0.047 A 
ATOM     17  C   UNL     1       0.605  -4.429  -0.177  0.00  0.00    +0.027 A 
ATOM     18  C   UNL     1       1.367  -5.011  -1.181  0.00  0.00    +0.033 A 
ATOM     19  C   UNL     1       2.705  -4.669  -1.323  0.00  0.00    +0.027 A 
ATOM     20  C   UNL     1       3.276  -3.746  -0.469  0.00  0.00    +0.047 A 
BRANCH  15  21
ATOM     21  O   UNL     1       3.080  -2.265   1.382  0.00  0.00    -0.492 OA
BRANCH  21  23
ATOM     22  C   UNL     1       3.042  -0.721   3.240  0.00  0.00    +0.048 C 
ATOM     23  C   UNL     1       2.238  -1.711   2.395  0.00  0.00    +0.225 C 
ENDBRANCH  21  23
ENDBRANCH  15  21
ENDBRANCH  13  18
ENDBRANCH   1  13
BRANCH   4  24
ATOM     24  C   UNL     1       3.670  -7.878  -6.438  0.00  0.00    +0.103 C 
ATOM     25  N   UNL     1       4.257  -8.266  -7.330  0.00  0.00    -0.191 NA
ENDBRANCH   4  24
BRANCH   3  26
ATOM     26  N   UNL     1       2.667  -9.630  -4.438  0.00  0.00    -0.340 N 
ATOM     27  H   UNL     1       2.338 -10.118  -5.208  0.00  0.00    +0.146 HD
BRANCH  26  28
ATOM     28  C   UNL     1       3.402 -10.333  -3.384  0.00  0.00    +0.070 C 
ATOM     29  C   UNL     1       4.905 -10.140  -3.594  0.00  0.00    +0.020 C 
ATOM     30  C   UNL     1       5.306 -10.704  -4.958  0.00  0.00    -0.014 C 
ATOM     31  C   UNL     1       4.970 -12.196  -5.012  0.00  0.00    -0.075 C 
ATOM     32  C   UNL     1       3.467 -12.389  -4.802  0.00  0.00    -0.014 C 
ATOM     33  C   UNL     1       3.066 -11.825  -3.437  0.00  0.00    +0.020 C 
BRANCH  31  34
ATOM     34  N   UNL     1       5.355 -12.738  -6.322  0.00  0.00    +0.380 N 
ATOM     35  H   UNL     1       6.346 -12.611  -6.461  0.00  0.00    -0.090 HD
ATOM     36  H   UNL     1       5.134 -13.722  -6.358  0.00  0.00    -0.090 HD
ATOM     37  H   UNL     1       4.849 -12.253  -7.048  0.00  0.00    -0.090 HD
ENDBRANCH  31  34
ENDBRANCH  26  28
ENDBRANCH   3  26
TORSDOF 9
