REMARK  Name = ZINC21726768
REMARK  7 active torsions:
REMARK  status: ('A' for Active; 'I' for Inactive)
REMARK    1  A    between atoms: C_1  and  C_2
REMARK    2  A    between atoms: C_5  and  C_9
REMARK    3  A    between atoms: C_7  and  C_8
REMARK    4  A    between atoms: C_17  and  C_34
REMARK    5  A    between atoms: C_22  and  C_26
REMARK    6  A    between atoms: C_29  and  O_32
REMARK    7  A    between atoms: O_32  and  C_33
REMARK                            x       y       z     vdW  Elec       q    Type
REMARK                         _______ _______ _______ _____ _____    ______ ____
ROOT
ATOM      1  C   UNL     1     -12.065  -1.529  -0.242  0.00  0.00    +0.063 C 
ATOM      2  C   UNL     1     -12.355  -2.907  -0.845  0.00  0.00    +0.109 C 
ATOM      3  C   UNL     1     -11.426  -3.950  -0.290  0.00  0.00    +0.219 C 
ATOM      4  O   UNL     1     -11.860  -5.058  -0.054  0.00  0.00    -0.275 OA
ATOM      5  N   UNL     1     -10.124  -3.691  -0.046  0.00  0.00    -0.270 N 
ATOM      6  C   UNL     1      -9.691  -2.369  -0.132  0.00  0.00    +0.136 A 
ATOM      7  C   UNL     1     -10.572  -1.325  -0.225  0.00  0.00    +0.023 A 
ATOM      8  C   UNL     1      -9.837  -0.149  -0.289  0.00  0.00    +0.066 A 
ATOM      9  N   UNL     1      -8.562  -0.455  -0.227  0.00  0.00    -0.167 NA
ATOM     10  N   UNL     1      -8.444  -1.851  -0.130  0.00  0.00    -0.182 N 
ATOM     11  C   UNL     1      -7.253  -2.571  -0.041  0.00  0.00    +0.273 A 
ATOM     12  N   UNL     1      -6.096  -1.926  -0.050  0.00  0.00    -0.208 NA
ATOM     13  C   UNL     1      -4.962  -2.619   0.035  0.00  0.00    +0.095 A 
ATOM     14  C   UNL     1      -5.034  -4.013   0.127  0.00  0.00    +0.163 A 
ATOM     15  N   UNL     1      -6.219  -4.595   0.137  0.00  0.00    -0.152 NA
ATOM     16  N   UNL     1      -7.294  -3.893   0.052  0.00  0.00    -0.109 NA
ATOM     17  C   UNL     1     -10.406   1.242  -0.402  0.00  0.00    +0.068 C 
ATOM     18  H   UNL     1      -9.439  -4.512   0.213  0.00  0.00    +0.156 HD
ENDROOT
BRANCH   1  23
ATOM     19  C   UNL     1     -14.554   2.570  -3.468  0.00  0.00    +0.044 C 
ATOM     20  C   UNL     1     -13.905   1.500  -2.627  0.00  0.00    -0.048 A 
ATOM     21  C   UNL     1     -12.977   0.645  -3.191  0.00  0.00    +0.004 A 
ATOM     22  C   UNL     1     -12.382  -0.335  -2.420  0.00  0.00    +0.004 A 
ATOM     23  C   UNL     1     -12.714  -0.460  -1.083  0.00  0.00    -0.039 A 
ATOM     24  C   UNL     1     -13.646   0.392  -0.520  0.00  0.00    +0.008 A 
ATOM     25  C   UNL     1     -14.238   1.375  -1.291  0.00  0.00    -0.047 A 
ATOM     26  C   UNL     1     -15.250   2.307  -0.676  0.00  0.00    +0.044 C 
ENDBRANCH   1  23
BRANCH  13  27
ATOM     27  C   UNL     1      -3.650  -1.928   0.027  0.00  0.00    +0.002 A 
ATOM     28  C   UNL     1      -2.470  -2.670   0.011  0.00  0.00    +0.013 A 
ATOM     29  C   UNL     1      -1.252  -2.025   0.003  0.00  0.00    +0.046 A 
ATOM     30  C   UNL     1      -1.200  -0.637   0.010  0.00  0.00    +0.120 A 
ATOM     31  C   UNL     1      -2.373   0.105   0.031  0.00  0.00    +0.046 A 
ATOM     32  C   UNL     1      -3.595  -0.535   0.034  0.00  0.00    +0.013 A 
BRANCH  30  33
ATOM     33  O   UNL     1       0.002  -0.004   0.002  0.00  0.00    -0.495 OA
ATOM     34  C   UNL     1      -0.017   1.425   0.010  0.00  0.00    +0.277 C 
ENDBRANCH  30  33
ENDBRANCH  13  27
TORSDOF 3
