REMARK  Name = ZINC37425575
REMARK  10 active torsions:
REMARK  status: ('A' for Active; 'I' for Inactive)
REMARK    1  A    between atoms: C_1  and  C_2
REMARK    2  A    between atoms: C_2  and  C_3
REMARK    3  A    between atoms: C_2  and  C_4
REMARK    4  A    between atoms: C_2  and  C_5
REMARK    5  A    between atoms: N_8  and  C_10
REMARK    6  A    between atoms: C_13  and  O_16
REMARK    7  A    between atoms: O_16  and  C_17
REMARK    8  A    between atoms: N_18  and  C_30
REMARK    9  A    between atoms: C_23  and  C_25
REMARK   10  A    between atoms: C_30  and  C_31
REMARK                            x       y       z     vdW  Elec       q    Type
REMARK                         _______ _______ _______ _____ _____    ______ ____
ROOT
ATOM      1  C   UNL     1       0.642   0.036  -1.445  0.00  0.00    +0.075 A 
ATOM      2  C   UNL     1      -0.053  -0.242  -2.623  0.00  0.00    +0.034 A 
ATOM      3  C   UNL     1       0.670   0.245  -3.658  0.00  0.00    +0.136 A 
ATOM      4  N   UNL     1       1.789   0.820  -3.156  0.00  0.00    -0.218 N 
ATOM      5  N   UNL     1       1.743   0.676  -1.760  0.00  0.00    -0.169 NA
ATOM      6  N   UNL     1       0.281   0.140  -5.002  0.00  0.00    -0.246 N 
ATOM      7  C   UNL     1      -0.116  -1.052  -5.458  0.00  0.00    +0.231 C 
ATOM      8  O   UNL     1      -0.737  -1.125  -6.498  0.00  0.00    -0.274 OA
ATOM      9  C   UNL     1       0.203  -2.300  -4.691  0.00  0.00    +0.166 C 
ATOM     10  S   UNL     1      -1.073  -2.627  -3.430  0.00  0.00    -0.138 S 
ATOM     11  C   UNL     1      -1.376  -0.952  -2.757  0.00  0.00    +0.118 C 
ENDROOT
BRANCH   4  12
ATOM     12  C   UNL     1       2.804   1.447  -3.893  0.00  0.00    +0.068 A 
ATOM     13  C   UNL     1       3.347   2.644  -3.448  0.00  0.00    +0.031 A 
ATOM     14  C   UNL     1       4.346   3.262  -4.174  0.00  0.00    +0.048 A 
ATOM     15  C   UNL     1       4.806   2.686  -5.350  0.00  0.00    +0.120 A 
ATOM     16  C   UNL     1       4.263   1.490  -5.796  0.00  0.00    +0.048 A 
ATOM     17  C   UNL     1       3.269   0.869  -5.067  0.00  0.00    +0.031 A 
BRANCH  15  18
ATOM     18  O   UNL     1       5.789   3.295  -6.065  0.00  0.00    -0.495 OA
ATOM     19  C   UNL     1       6.215   2.646  -7.265  0.00  0.00    +0.277 C 
ENDBRANCH  15  18
ENDBRANCH   4  12
BRANCH  11  20
ATOM     20  C   UNL     1      -2.031  -1.061  -1.404  0.00  0.00    +0.007 A 
ATOM     21  C   UNL     1      -1.816  -1.971  -0.423  0.00  0.00    +0.012 A 
ATOM     22  C   UNL     1      -2.541  -1.875   0.750  0.00  0.00    +0.008 A 
ATOM     23  C   UNL     1      -3.445  -0.874   0.884  0.00  0.00    +0.045 A 
ATOM     24  S   UNL     1      -3.285  -0.020  -0.675  0.00  0.00    -0.100 S 
ENDBRANCH  11  20
BRANCH   1  26
ATOM     25  C   UNL     1       1.169   0.277   0.966  0.00  0.00    +0.017 C 
ATOM     26  C   UNL     1       0.200  -0.329  -0.052  0.00  0.00    +0.007 C 
ATOM     27  C   UNL     1       0.190  -1.852   0.097  0.00  0.00    +0.017 C 
ATOM     28  C   UNL     1      -1.208   0.217   0.197  0.00  0.00    +0.017 C 
ENDBRANCH   1  26
BRANCH   6  29
ATOM     29  C   UNL     1       0.310   1.308  -5.884  0.00  0.00    +0.210 C 
BRANCH  29  30
ATOM     30  C   UNL     1      -0.982   2.072  -5.749  0.00  0.00    +0.228 C 
ATOM     31  O   UNL     1      -1.804   1.732  -4.924  0.00  0.00    -0.274 OA
ATOM     32  N   UNL     1      -1.224   3.133  -6.544  0.00  0.00    -0.328 N 
ATOM     33  H   UNL     1      -0.567   3.405  -7.203  0.00  0.00    +0.145 HD
ATOM     34  H   UNL     1      -2.056   3.625  -6.457  0.00  0.00    +0.145 HD
ENDBRANCH  29  30
ENDBRANCH   6  29
TORSDOF 6
