REMARK  Name = ZINC58911559
REMARK  7 active torsions:
REMARK  status: ('A' for Active; 'I' for Inactive)
REMARK    1  A    between atoms: C_1  and  C_2
REMARK    2  A    between atoms: C_4  and  C_16
REMARK    3  A    between atoms: C_5  and  C_15
REMARK    4  A    between atoms: N_6  and  C_7
REMARK    5  A    between atoms: N_17  and  N_18
REMARK    6  A    between atoms: C_19  and  C_21
REMARK    7  A    between atoms: N_23  and  C_24
REMARK                            x       y       z     vdW  Elec       q    Type
REMARK                         _______ _______ _______ _____ _____    ______ ____
ROOT
ATOM      1  C   UNL     1       0.042  -3.384  -1.462  0.00  0.00    +0.140 C 
ATOM      2  N   UNL     1       0.060  -4.556  -0.902  0.00  0.00    -0.187 NA
ENDROOT
BRANCH   1   6
ATOM      3  C   UNL     1      -0.018   1.503   0.010  0.00  0.00    +0.064 C 
ATOM      4  C   UNL     1       0.002  -0.004   0.002  0.00  0.00    +0.022 A 
ATOM      5  C   UNL     1       0.008  -0.780  -1.097  0.00  0.00    +0.032 A 
ATOM      6  C   UNL     1       0.029  -2.170  -0.628  0.00  0.00    +0.016 A 
ATOM      7  C   UNL     1       0.034  -2.112   0.738  0.00  0.00    +0.030 A 
ATOM      8  N   UNL     1       0.024  -0.804   1.109  0.00  0.00    -0.317 N 
ATOM      9  C   UNL     1       0.054  -3.295   1.671  0.00  0.00    +0.064 C 
BRANCH   8  10
ATOM     10  C   UNL     1       0.030  -0.345   2.433  0.00  0.00    +0.049 A 
ATOM     11  C   UNL     1       1.133  -0.576   3.244  0.00  0.00    +0.046 A 
ATOM     12  C   UNL     1       1.137  -0.121   4.549  0.00  0.00    +0.044 A 
ATOM     13  C   UNL     1       0.043   0.564   5.048  0.00  0.00    +0.040 A 
ATOM     14  C   UNL     1      -1.058   0.796   4.241  0.00  0.00    +0.044 A 
ATOM     15  C   UNL     1      -1.064   0.348   2.933  0.00  0.00    +0.046 A 
ATOM     16 CL   UNL     1      -2.429   1.656   4.870  0.00  0.00    -0.083 Cl
ATOM     17 CL   UNL     1       2.515  -0.410   5.564  0.00  0.00    -0.083 Cl
ENDBRANCH   8  10
ENDBRANCH   1   6
BRANCH   2  18
ATOM     18  N   UNL     1       0.072  -5.711  -1.695  0.00  0.00    -0.199 N 
ATOM     19  C   UNL     1       0.090  -6.927  -1.114  0.00  0.00    +0.318 C 
ATOM     20  O   UNL     1       0.096  -7.022   0.097  0.00  0.00    -0.263 OA
ATOM     21  H   UNL     1       0.067  -5.636  -2.662  0.00  0.00    +0.178 HD
BRANCH  19  22
ATOM     22  C   UNL     1       0.104  -8.157  -1.958  0.00  0.00    +0.301 C 
ATOM     23  O   UNL     1       0.098  -8.062  -3.168  0.00  0.00    -0.265 OA
ATOM     24  N   UNL     1       0.122  -9.373  -1.377  0.00  0.00    -0.305 N 
ATOM     25  H   UNL     1       0.127  -9.448  -0.410  0.00  0.00    +0.149 HD
BRANCH  24  26
ATOM     26  C   UNL     1       0.135 -10.580  -2.207  0.00  0.00    +0.073 C 
ATOM     27  C   UNL     1      -1.299 -10.949  -2.594  0.00  0.00    +0.022 C 
ATOM     28  C   UNL     1      -1.285 -12.210  -3.460  0.00  0.00    +0.002 C 
ATOM     29  C   UNL     1      -0.657 -13.362  -2.673  0.00  0.00    +0.000 C 
ATOM     30  C   UNL     1       0.777 -12.994  -2.286  0.00  0.00    +0.002 C 
ATOM     31  C   UNL     1       0.763 -11.732  -1.420  0.00  0.00    +0.022 C 
ENDBRANCH  24  26
ENDBRANCH  19  22
ENDBRANCH   2  18
TORSDOF 5
