REMARK  Name = ZINC05225745
REMARK  8 active torsions:
REMARK  status: ('A' for Active; 'I' for Inactive)
REMARK    1  A    between atoms: C_1  and  C_2
REMARK    2  A    between atoms: C_3  and  C_25
REMARK    3  A    between atoms: C_4  and  C_16
REMARK    4  A    between atoms: C_10  and  C_14
REMARK    5  A    between atoms: C_10  and  C_15
REMARK    6  A    between atoms: C_25  and  O_27
REMARK    7  A    between atoms: O_27  and  C_28
REMARK    8  A    between atoms: C_28  and  C_29
REMARK                            x       y       z     vdW  Elec       q    Type
REMARK                         _______ _______ _______ _____ _____    ______ ____
ROOT
ATOM      1  C   UNL     1      -5.003   2.195   2.514  0.00  0.00    +0.061 C 
ATOM      2  C   UNL     1      -4.308   2.586   1.236  0.00  0.00    +0.031 C 
ATOM      3  C   UNL     1      -3.472   3.639   1.226  0.00  0.00    +0.154 C 
ATOM      4  C   UNL     1      -2.752   4.051  -0.026  0.00  0.00    +0.073 C 
ATOM      5  C   UNL     1      -3.410   3.455  -1.246  0.00  0.00    +0.025 C 
ATOM      6  C   UNL     1      -4.249   2.404  -1.134  0.00  0.00    +0.049 C 
ATOM      7  N   UNL     1      -4.531   1.868   0.094  0.00  0.00    -0.260 NA
ATOM      8  C   UNL     1      -4.894   1.792  -2.352  0.00  0.00    +0.062 C 
ATOM      9  C   UNL     1      -5.106   2.866  -3.418  0.00  0.00    -0.023 C 
ATOM     10  C   UNL     1      -3.749   3.490  -3.759  0.00  0.00    +0.086 C 
ATOM     11  C   UNL     1      -3.125   4.026  -2.499  0.00  0.00    +0.162 C 
ATOM     12  O   UNL     1      -2.361   4.968  -2.567  0.00  0.00    -0.292 OA
ATOM     13  C   UNL     1      -6.046   3.945  -2.876  0.00  0.00    +0.011 C 
ATOM     14  C   UNL     1      -5.714   2.238  -4.674  0.00  0.00    +0.011 C 
ENDROOT
BRANCH   4  15
ATOM     15  C   UNL     1      -1.321   3.585   0.041  0.00  0.00    -0.035 A 
ATOM     16  C   UNL     1      -1.039   2.236   0.156  0.00  0.00    +0.008 A 
ATOM     17  C   UNL     1       0.273   1.805   0.223  0.00  0.00    +0.050 A 
ATOM     18  C   UNL     1       1.309   2.723   0.165  0.00  0.00    +0.166 A 
ATOM     19  C   UNL     1       1.025   4.081   0.046  0.00  0.00    +0.167 A 
ATOM     20  C   UNL     1      -0.292   4.507  -0.016  0.00  0.00    +0.053 A 
ATOM     21  O   UNL     1       2.202   4.771   0.010  0.00  0.00    -0.453 OA
ATOM     22  C   UNL     1       3.212   3.794  -0.302  0.00  0.00    +0.466 C 
ATOM     23  O   UNL     1       2.664   2.562   0.205  0.00  0.00    -0.453 OA
ENDBRANCH   4  15
BRANCH   3  24
ATOM     24  C   UNL     1      -3.263   4.370   2.419  0.00  0.00    +0.317 C 
ATOM     25  O   UNL     1      -3.928   4.123   3.408  0.00  0.00    -0.250 OA
BRANCH  24  26
ATOM     26  O   UNL     1      -2.327   5.342   2.459  0.00  0.00    -0.462 OA
BRANCH  26  27
ATOM     27  C   UNL     1      -2.171   6.040   3.696  0.00  0.00    +0.263 C 
BRANCH  27  28
ATOM     28  C   UNL     1      -1.073   7.095   3.551  0.00  0.00    +0.156 C 
ATOM     29  C   UNL     1      -0.816   7.776   4.913  0.00  0.00    +0.037 C 
ATOM     30  C   UNL     1      -0.596   9.258   4.504  0.00  0.00    +0.031 C 
ATOM     31  C   UNL     1      -1.567   9.379   3.302  0.00  0.00    +0.160 C 
ATOM     32  O   UNL     1      -1.494   8.111   2.632  0.00  0.00    -0.373 OA
ENDBRANCH  27  28
ENDBRANCH  26  27
ENDBRANCH  24  26
ENDBRANCH   3  24
TORSDOF 5
