REMARK  Name = ZINC02229120
REMARK  8 active torsions:
REMARK  status: ('A' for Active; 'I' for Inactive)
REMARK    1  A    between atoms: C_1  and  C_2
REMARK    2  A    between atoms: C_2  and  C_34
REMARK    3  A    between atoms: C_6  and  C_24
REMARK    4  A    between atoms: C_8  and  C_22
REMARK    5  A    between atoms: C_9  and  N_21
REMARK    6  A    between atoms: N_10  and  C_11
REMARK    7  A    between atoms: C_14  and  S_17
REMARK    8  A    between atoms: S_17  and  N_20
REMARK                            x       y       z     vdW  Elec       q    Type
REMARK                         _______ _______ _______ _____ _____    ______ ____
ROOT
ATOM      1  C   UNL     1       0.127   3.394   3.133  0.00  0.00    +0.011 C 
ATOM      2  C   UNL     1      -0.738   3.673   1.902  0.00  0.00    -0.023 C 
ATOM      3  C   UNL     1       0.112   4.334   0.815  0.00  0.00    +0.058 C 
ATOM      4  C   UNL     1       1.226   3.402   0.406  0.00  0.00    +0.025 C 
ATOM      5  C   UNL     1       1.062   2.062   0.451  0.00  0.00    +0.025 C 
ATOM      6  C   UNL     1       2.168   1.132   0.018  0.00  0.00    +0.097 C 
ATOM      7  C   UNL     1       3.491   1.838  -0.008  0.00  0.00    +0.077 C 
ATOM      8  C   UNL     1       3.563   3.194  -0.026  0.00  0.00    +0.107 C 
ATOM      9  N   UNL     1       2.410   3.947  -0.015  0.00  0.00    -0.260 N 
ATOM     10  C   UNL     1      -0.143   1.494   0.897  0.00  0.00    +0.162 C 
ATOM     11  O   UNL     1      -0.261   0.285   0.916  0.00  0.00    -0.292 OA
ATOM     12  C   UNL     1      -1.293   2.354   1.346  0.00  0.00    +0.086 C 
ATOM     13  C   UNL     1      -1.894   4.599   2.286  0.00  0.00    +0.011 C 
ENDROOT
BRANCH   6  14
ATOM     14  C   UNL     1       1.861   0.608  -1.361  0.00  0.00    -0.035 A 
ATOM     15  C   UNL     1       1.718   1.487  -2.418  0.00  0.00    +0.006 A 
ATOM     16  C   UNL     1       1.442   1.006  -3.685  0.00  0.00    +0.020 A 
ATOM     17  C   UNL     1       1.298  -0.354  -3.892  0.00  0.00    +0.041 A 
ATOM     18  C   UNL     1       1.436  -1.233  -2.832  0.00  0.00    +0.020 A 
ATOM     19  C   UNL     1       1.717  -0.751  -1.567  0.00  0.00    +0.006 A 
ATOM     20 CL   UNL     1       0.945  -0.958  -5.480  0.00  0.00    -0.084 Cl
ENDBRANCH   6  14
BRANCH   9  21
ATOM     21  C   UNL     1       2.448   5.281  -0.439  0.00  0.00    +0.040 A 
ATOM     22  C   UNL     1       2.168   5.599  -1.762  0.00  0.00    +0.026 A 
ATOM     23  C   UNL     1       2.202   6.916  -2.175  0.00  0.00    +0.030 A 
ATOM     24  C   UNL     1       2.524   7.917  -1.277  0.00  0.00    +0.105 A 
ATOM     25  C   UNL     1       2.809   7.603   0.039  0.00  0.00    +0.030 A 
ATOM     26  C   UNL     1       2.772   6.288   0.461  0.00  0.00    +0.026 A 
BRANCH  24  27
ATOM     27  S   UNL     1       2.572   9.595  -1.811  0.00  0.00    +0.056 S 
ATOM     28  O   UNL     1       1.736   9.681  -2.956  0.00  0.00    -0.153 OA
ATOM     29  O   UNL     1       2.366  10.395  -0.654  0.00  0.00    -0.153 OA
BRANCH  27  30
ATOM     30  N   UNL     1       4.116   9.900  -2.328  0.00  0.00    -0.204 NA
ATOM     31  H   UNL     1       4.786   9.200  -2.294  0.00  0.00    +0.144 HD
ATOM     32  H   UNL     1       4.349  10.780  -2.664  0.00  0.00    +0.144 HD
ENDBRANCH  27  30
ENDBRANCH  24  27
ENDBRANCH   9  21
BRANCH   8  33
ATOM     33  N   UNL     1       4.788   3.816  -0.057  0.00  0.00    -0.345 N 
ATOM     34  H   UNL     1       4.844   4.782   0.018  0.00  0.00    +0.144 HD
ATOM     35  H   UNL     1       5.597   3.290  -0.153  0.00  0.00    +0.144 HD
ENDBRANCH   8  33
BRANCH   7  36
ATOM     36  C   UNL     1       4.699   1.069  -0.013  0.00  0.00    +0.099 C 
ATOM     37  N   UNL     1       5.658   0.460  -0.017  0.00  0.00    -0.191 NA
ENDBRANCH   7  36
TORSDOF 6
