REMARK  Name = ZINC39469347
REMARK  7 active torsions:
REMARK  status: ('A' for Active; 'I' for Inactive)
REMARK    1  A    between atoms: C_1  and  C_2
REMARK    2  A    between atoms: C_2  and  O_3
REMARK    3  A    between atoms: O_3  and  P_4
REMARK    4  A    between atoms: C_12  and  C_29
REMARK    5  A    between atoms: C_13  and  C_22
REMARK    6  A    between atoms: C_27  and  O_28
REMARK    7  A    between atoms: C_29  and  C_30
REMARK                            x       y       z     vdW  Elec       q    Type
REMARK                         _______ _______ _______ _____ _____    ______ ____
ROOT
ATOM      1  P   UNL     1       0.877  -2.026  -1.510  0.00  0.00    +0.394 P 
ATOM      2  O   UNL     1       1.284  -2.763  -0.293  0.00  0.00    -0.241 OA
ATOM      3  N   UNL     1      -0.510  -2.665  -2.134  0.00  0.00    -0.268 NA
ATOM      4  N   UNL     1      -0.410  -3.832  -2.862  0.00  0.00    +0.399 N 
ATOM      5  C   UNL     1      -1.760  -4.103  -3.384  0.00  0.00    -0.046 C 
ATOM      6  C   UNL     1      -1.780  -5.391  -4.197  0.00  0.00    +0.005 C 
ATOM      7  C   UNL     1      -1.373  -6.561  -3.343  0.00  0.00    -0.020 C 
ATOM      8  C   UNL     1      -0.903  -7.662  -3.918  0.00  0.00    -0.039 C 
ATOM      9  C   UNL     1      -0.799  -7.725  -5.392  0.00  0.00    -0.015 C 
ATOM     10  C   UNL     1      -0.753  -6.587  -6.102  0.00  0.00    -0.014 C 
ATOM     11  C   UNL     1      -0.805  -5.266  -5.372  0.00  0.00    +0.016 C 
ATOM     12  C   UNL     1       0.583  -4.942  -4.819  0.00  0.00    -0.003 C 
ATOM     13  C   UNL     1       0.539  -3.669  -3.965  0.00  0.00    -0.020 C 
ATOM     14  C   UNL     1       1.964  -3.424  -3.449  0.00  0.00    +0.159 C 
ATOM     15  O   UNL     1       1.994  -2.208  -2.680  0.00  0.00    -0.299 OA
ATOM     16  H   UNL     1      -1.368  -2.235  -1.993  0.00  0.00    +0.113 HD
ATOM     17  H   UNL     1      -0.108  -4.583  -2.260  0.00  0.00    -0.055 HD
ENDROOT
BRANCH   9  18
ATOM     18  C   UNL     1      -0.747  -9.037  -6.081  0.00  0.00    +0.024 A 
ATOM     19  C   UNL     1       0.417  -9.801  -6.045  0.00  0.00    +0.012 A 
ATOM     20  C   UNL     1       0.461 -11.022  -6.688  0.00  0.00    +0.001 A 
ATOM     21  C   UNL     1      -0.649 -11.490  -7.369  0.00  0.00    +0.004 A 
ATOM     22  C   UNL     1      -1.809 -10.741  -7.412  0.00  0.00    +0.046 A 
ATOM     23  C   UNL     1      -1.869  -9.516  -6.766  0.00  0.00    +0.125 A 
BRANCH  23  24
ATOM     24  O   UNL     1      -3.010  -8.781  -6.802  0.00  0.00    -0.506 OA
ATOM     25  H   UNL     1      -3.061  -8.170  -7.550  0.00  0.00    +0.292 HD
ENDBRANCH  23  24
ENDBRANCH   9  18
BRANCH   1  26
ATOM     26  O   UNL     1       0.671  -0.465  -1.174  0.00  0.00    -0.298 OA
BRANCH  26  28
ATOM     27  C   UNL     1      -0.019   1.526   0.010  0.00  0.00    +0.035 C 
ATOM     28  C   UNL     1       0.002  -0.004   0.002  0.00  0.00    +0.168 C 
ENDBRANCH  26  28
ENDBRANCH   1  26
BRANCH   8  29
ATOM     29  C   UNL     1      -0.479  -8.837  -3.075  0.00  0.00    +0.070 C 
BRANCH  29  30
ATOM     30  C   UNL     1      -1.620  -9.816  -2.966  0.00  0.00    -0.043 A 
ATOM     31  C   UNL     1      -2.536  -9.697  -1.937  0.00  0.00    +0.004 A 
ATOM     32  C   UNL     1      -3.583 -10.594  -1.837  0.00  0.00    +0.000 A 
ATOM     33  C   UNL     1      -3.714 -11.610  -2.766  0.00  0.00    +0.000 A 
ATOM     34  C   UNL     1      -2.799 -11.727  -3.795  0.00  0.00    +0.000 A 
ATOM     35  C   UNL     1      -1.754 -10.828  -3.898  0.00  0.00    +0.004 A 
ENDBRANCH  29  30
ENDBRANCH   8  29
TORSDOF 6
