REMARK  Name = ZINC16569368
REMARK  10 active torsions:
REMARK  status: ('A' for Active; 'I' for Inactive)
REMARK    1  A    between atoms: C_1  and  C_2
REMARK    2  A    between atoms: C_2  and  C_3
REMARK    3  A    between atoms: C_3  and  C_4
REMARK    4  A    between atoms: C_4  and  N_5
REMARK    5  A    between atoms: N_5  and  C_6
REMARK    6  A    between atoms: C_6  and  C_7
REMARK    7  A    between atoms: C_21  and  C_23
REMARK    8  A    between atoms: C_26  and  C_29
REMARK    9  A    between atoms: C_30  and  C_32
REMARK   10  A    between atoms: C_36  and  N_38
REMARK                            x       y       z     vdW  Elec       q    Type
REMARK                         _______ _______ _______ _____ _____    ______ ____
ROOT
ATOM      1  C   UNL     1      -5.124  -0.122   0.893  0.00  0.00    +0.238 C 
ATOM      2  O   UNL     1      -5.309  -0.956   0.032  0.00  0.00    -0.273 OA
ATOM      3  N   UNL     1      -5.974  -0.030   1.935  0.00  0.00    -0.255 N 
ATOM      4  C   UNL     1      -7.010  -0.963   2.077  0.00  0.00    +0.061 A 
ATOM      5  C   UNL     1      -6.866  -2.255   1.596  0.00  0.00    +0.025 A 
ATOM      6  C   UNL     1      -7.900  -3.162   1.734  0.00  0.00    +0.002 A 
ATOM      7  C   UNL     1      -9.081  -2.789   2.351  0.00  0.00    +0.002 A 
ATOM      8  C   UNL     1      -9.234  -1.504   2.838  0.00  0.00    +0.028 A 
ATOM      9  C   UNL     1      -8.203  -0.594   2.708  0.00  0.00    +0.068 A 
ATOM     10  N   UNL     1      -8.302   0.713   3.207  0.00  0.00    -0.316 N 
ATOM     11  C   UNL     1      -9.383   1.403   3.642  0.00  0.00    +0.092 A 
ATOM     12  C   UNL     1      -8.974   2.634   4.021  0.00  0.00    +0.020 A 
ATOM     13  C   UNL     1      -7.579   2.702   3.811  0.00  0.00    +0.025 A 
ATOM     14  C   UNL     1      -7.191   1.521   3.317  0.00  0.00    +0.049 A 
ATOM     15  C   UNL     1      -5.809   1.047   2.925  0.00  0.00    +0.159 C 
ENDROOT
BRANCH  15  16
ATOM     16  C   UNL     1      -5.082   0.520   4.136  0.00  0.00    -0.021 A 
ATOM     17  C   UNL     1      -5.376  -0.739   4.625  0.00  0.00    +0.006 A 
ATOM     18  C   UNL     1      -4.706  -1.224   5.732  0.00  0.00    +0.004 A 
ATOM     19  C   UNL     1      -3.750  -0.446   6.358  0.00  0.00    -0.050 A 
ATOM     20  C   UNL     1      -3.460   0.815   5.872  0.00  0.00    +0.004 A 
ATOM     21  C   UNL     1      -4.126   1.298   4.761  0.00  0.00    +0.006 A 
ATOM     22  C   UNL     1      -3.024  -0.972   7.569  0.00  0.00    +0.044 C 
ENDBRANCH  15  16
BRANCH   1  23
ATOM     23  C   UNL     1      -3.945   0.811   0.797  0.00  0.00    +0.204 C 
BRANCH  23  24
ATOM     24  N   UNL     1      -3.260   0.604  -0.481  0.00  0.00    -0.289 N 
ATOM     25  C   UNL     1      -2.265  -0.300  -0.573  0.00  0.00    +0.247 C 
ATOM     26  O   UNL     1      -2.012  -1.024   0.370  0.00  0.00    -0.270 OA
BRANCH  25  27
ATOM     27  C   UNL     1      -1.481  -0.412  -1.822  0.00  0.00    +0.039 A 
ATOM     28  C   UNL     1      -2.132  -0.473  -3.055  0.00  0.00    +0.013 A 
ATOM     29  C   UNL     1      -1.395  -0.572  -4.217  0.00  0.00    +0.003 A 
ATOM     30  C   UNL     1      -0.013  -0.620  -4.161  0.00  0.00    +0.033 A 
ATOM     31  C   UNL     1       0.638  -0.566  -2.941  0.00  0.00    +0.127 A 
ATOM     32  C   UNL     1      -0.087  -0.462  -1.772  0.00  0.00    +0.045 A 
BRANCH  31  33
ATOM     33  N   UNL     1       2.116  -0.619  -2.891  0.00  0.00    +0.056 N 
ATOM     34  O   UNL     1       2.691  -0.572  -1.818  0.00  0.00    -0.126 OA
ATOM     35  O   UNL     1       2.758  -0.711  -3.922  0.00  0.00    -0.126 OA
ENDBRANCH  31  33
ENDBRANCH  25  27
BRANCH  24  36
ATOM     36  C   UNL     1      -3.657   1.379  -1.659  0.00  0.00    +0.108 C 
BRANCH  36  37
ATOM     37  C   UNL     1      -4.951   0.802  -2.237  0.00  0.00    +0.019 C 
BRANCH  37  39
ATOM     38  C   UNL     1      -6.659   1.035  -4.046  0.00  0.00    +0.004 C 
ATOM     39  C   UNL     1      -5.365   1.612  -3.467  0.00  0.00    -0.002 C 
ENDBRANCH  37  39
ENDBRANCH  36  37
ENDBRANCH  24  36
ENDBRANCH  23  24
ENDBRANCH   1  23
TORSDOF 8
