REMARK  Name = ZINC39653140
REMARK  9 active torsions:
REMARK  status: ('A' for Active; 'I' for Inactive)
REMARK    1  A    between atoms: C_1  and  O_2
REMARK    2  A    between atoms: O_2  and  C_3
REMARK    3  A    between atoms: C_5  and  C_11
REMARK    4  A    between atoms: C_7  and  O_9
REMARK    5  A    between atoms: O_9  and  C_10
REMARK    6  A    between atoms: C_11  and  C_12
REMARK    7  A    between atoms: C_12  and  N_13
REMARK    8  A    between atoms: C_14  and  C_16
REMARK    9  A    between atoms: C_27  and  C_29
REMARK                            x       y       z     vdW  Elec       q    Type
REMARK                         _______ _______ _______ _____ _____    ______ ____
ROOT
ATOM      1  C   UNL     1      -2.670  -8.332   2.619  0.00  0.00    +0.100 C 
ATOM      2  C   UNL     1      -4.035  -8.818   2.085  0.00  0.00    +0.121 C 
ATOM      3  N   UNL     1      -4.359 -10.006   2.910  0.00  0.00    -0.300 N 
ATOM      4  C   UNL     1      -3.912  -9.639   4.275  0.00  0.00    +0.115 C 
ATOM      5  C   UNL     1      -2.593  -8.872   4.057  0.00  0.00    -0.004 C 
ATOM      6  C   UNL     1      -1.403  -9.816   4.204  0.00  0.00    -0.010 C 
ATOM      7  C   UNL     1      -1.315 -10.295   5.656  0.00  0.00    -0.082 C 
ATOM      8  N   UNL     1      -1.161  -9.139   6.547  0.00  0.00    +0.379 N 
ATOM      9  C   UNL     1      -2.351  -8.284   6.468  0.00  0.00    -0.082 C 
ATOM     10  C   UNL     1      -2.484  -7.719   5.050  0.00  0.00    -0.010 C 
ATOM     11  C   UNL     1      -4.929 -11.159   2.509  0.00  0.00    +0.219 C 
ATOM     12  O   UNL     1      -5.131 -12.047   3.311  0.00  0.00    -0.275 OA
ATOM     13  H   UNL     1      -1.042  -9.460   7.495  0.00  0.00    -0.086 HD
ATOM     14  H   UNL     1      -0.348  -8.608   6.270  0.00  0.00    -0.086 HD
ENDROOT
BRANCH  11  15
ATOM     15  C   UNL     1      -5.316 -11.347   1.065  0.00  0.00    +0.079 C 
ATOM     16  C   UNL     1      -5.950 -12.731   0.876  0.00  0.00    +0.017 C 
ATOM     17  C   UNL     1      -6.168 -12.963  -0.620  0.00  0.00    +0.027 C 
ATOM     18  C   UNL     1      -6.861 -11.781  -1.232  0.00  0.00    -0.031 C 
ATOM     19  C   UNL     1      -6.933 -10.615  -0.674  0.00  0.00    -0.030 C 
ATOM     20  C   UNL     1      -6.340 -10.282   0.664  0.00  0.00    +0.039 C 
ENDBRANCH  11  15
BRANCH   1  22
ATOM     21  N   UNL     1      -1.430  -6.195   2.482  0.00  0.00    -0.315 N 
ATOM     22  C   UNL     1      -2.614  -6.825   2.621  0.00  0.00    +0.218 C 
ATOM     23  O   UNL     1      -3.633  -6.181   2.748  0.00  0.00    -0.275 OA
ATOM     24  H   UNL     1      -0.615  -6.711   2.381  0.00  0.00    +0.149 HD
BRANCH  21  25
ATOM     25  C   UNL     1      -1.376  -4.731   2.484  0.00  0.00    +0.109 C 
BRANCH  25  26
ATOM     26  C   UNL     1       0.074  -4.275   2.312  0.00  0.00    +0.054 C 
BRANCH  26  29
ATOM     27  C   UNL     1       0.352  -0.700   3.507  0.00  0.00    +0.124 A 
ATOM     28  C   UNL     1       0.300  -2.086   3.503  0.00  0.00    +0.049 A 
ATOM     29  C   UNL     1       0.131  -2.769   2.314  0.00  0.00    -0.039 A 
ATOM     30  C   UNL     1       0.014  -2.073   1.126  0.00  0.00    +0.049 A 
ATOM     31  C   UNL     1       0.065  -0.686   1.125  0.00  0.00    +0.124 A 
ATOM     32  C   UNL     1       0.229   0.001   2.318  0.00  0.00    +0.091 A 
BRANCH  27  34
ATOM     33  C   UNL     1       0.558   1.398   4.608  0.00  0.00    +0.277 C 
ATOM     34  O   UNL     1       0.519  -0.029   4.678  0.00  0.00    -0.495 OA
ENDBRANCH  27  34
BRANCH  31  35
ATOM     35  O   UNL     1      -0.050  -0.002  -0.044  0.00  0.00    -0.495 OA
ATOM     36  C   UNL     1       0.012   1.424   0.030  0.00  0.00    +0.277 C 
ENDBRANCH  31  35
ENDBRANCH  26  29
ENDBRANCH  25  26
ENDBRANCH  21  25
ENDBRANCH   1  22
TORSDOF 7
