REMARK  Name = ZINC09429703
REMARK  6 active torsions:
REMARK  status: ('A' for Active; 'I' for Inactive)
REMARK    1  A    between atoms: C_1  and  O_2
REMARK    2  A    between atoms: O_2  and  C_3
REMARK    3  A    between atoms: C_3  and  C_4
REMARK    4  A    between atoms: C_4  and  N_5
REMARK    5  A    between atoms: C_22  and  C_23
REMARK    6  A    between atoms: C_22  and  N_64
REMARK                            x       y       z     vdW  Elec       q    Type
REMARK                         _______ _______ _______ _____ _____    ______ ____
ROOT
ATOM      1  N   UNL     1      -2.170  -4.992   1.584  0.00  0.00    -0.223 N 
ATOM      2  C   UNL     1      -1.810  -4.206   2.609  0.00  0.00    +0.240 C 
ATOM      3  O   UNL     1      -2.672  -3.693   3.289  0.00  0.00    -0.274 OA
ATOM      4  C   UNL     1      -0.368  -3.943   2.937  0.00  0.00    +0.144 C 
ATOM      5  C   UNL     1      -0.071  -4.416   4.363  0.00  0.00    +0.064 C 
ATOM      6  C   UNL     1      -0.705  -3.477   5.358  0.00  0.00    -0.025 A 
ATOM      7  C   UNL     1      -0.822  -3.900   6.673  0.00  0.00    +0.005 A 
ATOM      8  C   UNL     1      -1.376  -3.072   7.629  0.00  0.00    +0.000 A 
ATOM      9  C   UNL     1      -1.819  -1.811   7.275  0.00  0.00    +0.002 A 
ATOM     10  C   UNL     1      -1.712  -1.385   5.969  0.00  0.00    +0.023 A 
ATOM     11  C   UNL     1      -1.156  -2.219   4.997  0.00  0.00    +0.033 A 
ATOM     12  N   UNL     1      -1.082  -1.738   3.693  0.00  0.00    -0.329 N 
ATOM     13  C   UNL     1      -0.091  -2.437   2.873  0.00  0.00    +0.081 C 
ATOM     14  C   UNL     1      -0.196  -1.955   1.425  0.00  0.00    -0.054 C 
ATOM     15  C   UNL     1      -0.967   0.204   2.212  0.00  0.00    -0.059 C 
ATOM     16  C   UNL     1      -0.865  -0.285   3.659  0.00  0.00    +0.087 C 
ATOM     17  C   UNL     1       0.536  -4.659   1.974  0.00  0.00    +0.238 C 
ATOM     18  O   UNL     1       1.737  -4.545   2.097  0.00  0.00    -0.274 OA
ATOM     19  N   UNL     1       0.053  -5.419   0.982  0.00  0.00    -0.239 N 
ATOM     20  C   UNL     1      -1.265  -5.585   0.791  0.00  0.00    +0.315 C 
ATOM     21  O   UNL     1      -1.648  -6.290  -0.121  0.00  0.00    -0.252 OA
ATOM     22  H   UNL     1       0.674  -5.863   0.383  0.00  0.00    +0.159 HD
ATOM     23  N   UNL     1       0.048  -0.496   1.395  0.00  0.00    +0.385 N 
ATOM     24  H   UNL     1       0.979  -0.306   1.785  0.00  0.00    -0.081 HD
ENDROOT
BRANCH   1  25
ATOM     25  C   UNL     1      -3.595  -5.211   1.324  0.00  0.00    +0.146 C 
BRANCH  25  26
ATOM     26  C   UNL     1      -4.107  -4.140   0.358  0.00  0.00    +0.179 C 
BRANCH  26  28
ATOM     27  C   UNL     1      -3.872  -3.337  -1.888  0.00  0.00    +0.194 C 
ATOM     28  O   UNL     1      -3.463  -4.293  -0.908  0.00  0.00    -0.381 OA
ENDBRANCH  26  28
ENDBRANCH  25  26
ENDBRANCH   1  25
BRANCH  23  29
ATOM     29  C   UNL     1       0.002  -0.004   0.002  0.00  0.00    -0.043 C 
BRANCH  29  30
ATOM     30  C   UNL     1      -0.018   1.503   0.010  0.00  0.00    -0.060 A 
ATOM     31  C   UNL     1       1.170   2.209   0.003  0.00  0.00    +0.005 A 
ATOM     32  C   UNL     1       1.157   3.591   0.011  0.00  0.00    +0.050 A 
ATOM     33  C   UNL     1      -0.049   4.273   0.026  0.00  0.00    +0.166 A 
ATOM     34  C   UNL     1      -1.247   3.561   0.034  0.00  0.00    +0.166 A 
ATOM     35  C   UNL     1      -1.226   2.176   0.020  0.00  0.00    +0.051 A 
ATOM     36  O   UNL     1      -2.282   4.451   0.048  0.00  0.00    -0.453 OA
ATOM     37  C   UNL     1      -1.715   5.708  -0.363  0.00  0.00    +0.466 C 
ATOM     38  O   UNL     1      -0.335   5.607   0.036  0.00  0.00    -0.453 OA
ENDBRANCH  29  30
ENDBRANCH  23  29
TORSDOF 5
