REMARK  Name = ZINC65248649
REMARK  8 active torsions:
REMARK  status: ('A' for Active; 'I' for Inactive)
REMARK    1  A    between atoms: C_1  and  C_2
REMARK    2  A    between atoms: C_9  and  C_15
REMARK    3  A    between atoms: C_11  and  O_14
REMARK    4  A    between atoms: C_18  and  C_21
REMARK    5  A    between atoms: C_25  and  O_29
REMARK    6  A    between atoms: C_26  and  O_27
REMARK    7  A    between atoms: O_27  and  C_28
REMARK    8  A    between atoms: O_29  and  C_30
REMARK                            x       y       z     vdW  Elec       q    Type
REMARK                         _______ _______ _______ _____ _____    ______ ____
ROOT
ATOM      1  C   UNL     1       1.319  -4.818   3.012  0.00  0.00    +0.311 C 
ATOM      2  N   UNL     1       1.383  -6.287   2.969  0.00  0.00    -0.288 N 
ATOM      3  C   UNL     1       2.548  -6.617   2.300  0.00  0.00    +0.171 C 
ATOM      4  N   UNL     1       3.194  -5.557   1.935  0.00  0.00    -0.067 NA
ATOM      5  O   UNL     1       2.508  -4.383   2.335  0.00  0.00    -0.368 OA
ATOM      6  H   UNL     1       0.734  -6.906   3.338  0.00  0.00    +0.151 HD
ENDROOT
BRANCH   1  15
ATOM      7  C   UNL     1      -0.018   1.503   0.010  0.00  0.00    +0.044 C 
ATOM      8  C   UNL     1       0.002  -0.004   0.002  0.00  0.00    -0.050 A 
ATOM      9  C   UNL     1       0.005  -0.679  -1.214  0.00  0.00    +0.005 A 
ATOM     10  C   UNL     1       0.024  -2.040  -1.281  0.00  0.00    +0.024 A 
ATOM     11  C   UNL     1       0.041  -2.800  -0.099  0.00  0.00    +0.044 A 
ATOM     12  N   UNL     1       0.059  -4.137  -0.166  0.00  0.00    -0.284 N 
ATOM     13  C   UNL     1       0.075  -4.920   0.894  0.00  0.00    +0.233 C 
ATOM     14  O   UNL     1       0.092  -6.129   0.757  0.00  0.00    -0.274 OA
ATOM     15  C   UNL     1       0.073  -4.316   2.280  0.00  0.00    +0.202 C 
ATOM     16  C   UNL     1       0.052  -2.803   2.381  0.00  0.00    +0.120 C 
ATOM     17  C   UNL     1       0.037  -2.087   1.182  0.00  0.00    +0.035 A 
ATOM     18  C   UNL     1       0.022  -0.677   1.185  0.00  0.00    +0.016 A 
ATOM     19  H   UNL     1       0.061  -4.553  -1.043  0.00  0.00    +0.155 HD
BRANCH  16  20
ATOM     20  O   UNL     1       0.049  -2.182   3.565  0.00  0.00    -0.509 OA
ATOM     21  H   UNL     1       0.035  -1.217   3.503  0.00  0.00    +0.292 HD
ENDBRANCH  16  20
ENDBRANCH   1  15
BRANCH   3  22
ATOM     22  C   UNL     1       2.998  -8.001   2.037  0.00  0.00    +0.063 A 
ATOM     23  C   UNL     1       2.227  -9.082   2.468  0.00  0.00    +0.015 A 
ATOM     24  C   UNL     1       2.649 -10.372   2.222  0.00  0.00    +0.004 A 
ATOM     25  C   UNL     1       3.836 -10.601   1.548  0.00  0.00    +0.049 A 
ATOM     26  C   UNL     1       4.611  -9.538   1.115  0.00  0.00    +0.162 A 
ATOM     27  C   UNL     1       4.194  -8.232   1.351  0.00  0.00    +0.172 A 
BRANCH  27  28
ATOM     28  O   UNL     1       4.948  -7.187   0.922  0.00  0.00    -0.491 OA
ATOM     29  C   UNL     1       5.941  -6.692   1.823  0.00  0.00    +0.277 C 
ENDBRANCH  27  28
BRANCH  26  30
ATOM     30  O   UNL     1       5.776  -9.770   0.453  0.00  0.00    -0.491 OA
ATOM     31  C   UNL     1       6.140 -11.136   0.240  0.00  0.00    +0.277 C 
ENDBRANCH  26  30
ENDBRANCH   3  22
TORSDOF 5
