REMARK  Name = ZINC43139766
REMARK  12 active torsions:
REMARK  status: ('A' for Active; 'I' for Inactive)
REMARK    1  A    between atoms: C_1  and  C_2
REMARK    2  A    between atoms: C_2  and  O_3
REMARK    3  A    between atoms: O_3  and  C_4
REMARK    4  A    between atoms: C_4  and  C_6
REMARK    5  A    between atoms: C_7  and  C_12
REMARK    6  A    between atoms: C_12  and  N_13
REMARK    7  A    between atoms: N_16  and  C_23
REMARK    8  A    between atoms: C_17  and  C_20
REMARK    9  A    between atoms: C_20  and  C_21
REMARK   10  A    between atoms: C_21  and  O_22
REMARK   11  A    between atoms: C_23  and  C_24
REMARK   12  A    between atoms: C_28  and  C_30
REMARK                            x       y       z     vdW  Elec       q    Type
REMARK                         _______ _______ _______ _____ _____    ______ ____
ROOT
ATOM      1  N   UNL     1       2.123  -5.115   0.780  0.00  0.00    -0.295 NA
ATOM      2  C   UNL     1       2.110  -3.989  -0.163  0.00  0.00    +0.100 C 
ATOM      3  C   UNL     1       3.188  -4.205  -1.228  0.00  0.00    +0.100 C 
ATOM      4  N   UNL     1       2.937  -5.475  -1.924  0.00  0.00    -0.291 NA
ATOM      5  C   UNL     1       2.951  -6.601  -0.980  0.00  0.00    +0.073 C 
ATOM      6  C   UNL     1       1.872  -6.385   0.084  0.00  0.00    +0.103 C 
ENDROOT
BRANCH   1   7
ATOM      7  C   UNL     1       1.151  -4.907   1.863  0.00  0.00    +0.123 C 
BRANCH   7   9
ATOM      8  C   UNL     1       1.399  -2.360   2.415  0.00  0.00    +0.173 A 
ATOM      9  C   UNL     1       1.581  -3.733   2.704  0.00  0.00    +0.018 A 
ATOM     10  C   UNL     1       2.220  -3.771   3.897  0.00  0.00    +0.110 A 
ATOM     11  N   UNL     1       2.408  -2.493   4.290  0.00  0.00    -0.284 N 
ATOM     12  H   UNL     1       2.844  -2.224   5.114  0.00  0.00    +0.188 HD
ATOM     13  N   UNL     1       1.929  -1.683   3.415  0.00  0.00    -0.167 NA
BRANCH   8  14
ATOM     14  C   UNL     1       0.748  -1.793   1.218  0.00  0.00    +0.360 C 
ATOM     15  O   UNL     1       0.299  -2.531   0.364  0.00  0.00    -0.243 OA
BRANCH  14  16
ATOM     16  O   UNL     1       0.651  -0.457   1.073  0.00  0.00    -0.460 OA
BRANCH  16  18
ATOM     17  C   UNL     1      -0.007   1.552  -0.098  0.00  0.00    +0.048 C 
ATOM     18  C   UNL     1       0.008   0.022  -0.110  0.00  0.00    +0.229 C 
ENDBRANCH  16  18
ENDBRANCH  14  16
ENDBRANCH   8  14
ENDBRANCH   7   9
ENDBRANCH   1   7
BRANCH   5  19
ATOM     19  C   UNL     1       2.670  -7.903  -1.734  0.00  0.00    +0.048 C 
BRANCH  19  20
ATOM     20  C   UNL     1       2.735  -9.081  -0.761  0.00  0.00    +0.157 C 
BRANCH  20  21
ATOM     21  O   UNL     1       2.595 -10.305  -1.484  0.00  0.00    -0.395 OA
ATOM     22  H   UNL     1       2.626 -11.096  -0.929  0.00  0.00    +0.209 HD
ENDBRANCH  20  21
ENDBRANCH  19  20
ENDBRANCH   5  19
BRANCH   4  23
ATOM     23  C   UNL     1       3.909  -5.683  -3.006  0.00  0.00    +0.140 C 
BRANCH  23  24
ATOM     24  C   UNL     1       3.628  -4.715  -4.126  0.00  0.00    +0.056 A 
ATOM     25  C   UNL     1       4.319  -3.519  -4.186  0.00  0.00    +0.024 A 
ATOM     26  C   UNL     1       4.053  -2.636  -5.221  0.00  0.00    +0.004 A 
ATOM     27  C   UNL     1       3.097  -2.990  -6.161  0.00  0.00    +0.023 A 
ATOM     28  C   UNL     1       2.446  -4.203  -6.036  0.00  0.00    +0.039 A 
ATOM     29  N   UNL     1       2.729  -5.021  -5.041  0.00  0.00    -0.255 NA
ATOM     30  C   UNL     1       1.406  -4.598  -7.053  0.00  0.00    +0.065 C 
ENDBRANCH  23  24
ENDBRANCH   4  23
TORSDOF 10
