REMARK  Name = ZINC16012683
REMARK  4 active torsions:
REMARK  status: ('A' for Active; 'I' for Inactive)
REMARK    1  A    between atoms: C_13  and  C_16
REMARK    2  A    between atoms: C_16  and  C_17
REMARK    3  A    between atoms: N_22  and  C_25
REMARK    4  A    between atoms: C_26  and  C_34
REMARK                            x       y       z     vdW  Elec       q    Type
REMARK                         _______ _______ _______ _____ _____    ______ ____
ROOT
ATOM      1  C   UNL     1       0.016   1.257   0.438  0.00  0.00    +0.022 A 
ATOM      2  C   UNL     1       1.187   1.986   0.399  0.00  0.00    +0.025 A 
ATOM      3  C   UNL     1       2.413   1.337   0.278  0.00  0.00    +0.039 A 
ATOM      4  C   UNL     1       2.435  -0.053   0.200  0.00  0.00    +0.005 A 
ATOM      5  C   UNL     1       1.265  -0.777   0.239  0.00  0.00    +0.027 A 
ATOM      6  C   UNL     1       0.050  -0.123   0.358  0.00  0.00    +0.041 A 
ATOM      7 CL   UNL     1      -1.427  -1.034   0.408  0.00  0.00    -0.084 Cl
ATOM      8  C   UNL     1       3.884  -0.434   0.082  0.00  0.00    +0.136 C 
ATOM      9  C   UNL     1       4.157  -1.216  -1.208  0.00  0.00    +0.123 C 
ATOM     10  C   UNL     1       5.243  -2.255  -0.813  0.00  0.00    +0.108 C 
ATOM     11  C   UNL     1       5.541  -1.972   0.674  0.00  0.00    +0.076 C 
ATOM     12  N   UNL     1       4.302  -1.316   1.187  0.00  0.00    -0.295 NA
ATOM     13  C   UNL     1       4.527  -3.579  -0.952  0.00  0.00    +0.232 C 
ATOM     14  O   UNL     1       5.014  -4.666  -0.724  0.00  0.00    -0.274 OA
ATOM     15  N   UNL     1       3.272  -3.365  -1.363  0.00  0.00    -0.202 N 
ATOM     16  C   UNL     1       2.952  -2.064  -1.552  0.00  0.00    +0.233 C 
ATOM     17  O   UNL     1       1.881  -1.639  -1.929  0.00  0.00    -0.274 OA
ATOM     18  C   UNL     1       4.635   0.870   0.104  0.00  0.00    +0.243 C 
ATOM     19  O   UNL     1       5.837   1.014   0.032  0.00  0.00    -0.273 OA
ATOM     20  N   UNL     1       3.713   1.845   0.218  0.00  0.00    -0.283 N 
ATOM     21  H   UNL     1       4.499  -0.782   2.021  0.00  0.00    +0.124 HD
ATOM     22  H   UNL     1       3.927   2.791   0.254  0.00  0.00    +0.155 HD
ENDROOT
BRANCH  15  23
ATOM     23  C   UNL     1       2.367  -4.398  -1.588  0.00  0.00    +0.099 A 
ATOM     24  C   UNL     1       2.137  -5.087  -2.766  0.00  0.00    +0.084 A 
ATOM     25  C   UNL     1       1.130  -6.132  -2.740  0.00  0.00    -0.018 A 
ATOM     26  C   UNL     1       0.536  -6.297  -1.538  0.00  0.00    -0.004 A 
ATOM     27  S   UNL     1       1.309  -5.101  -0.489  0.00  0.00    -0.076 S 
ATOM     28  C   UNL     1      -0.535  -7.284  -1.192  0.00  0.00    +0.043 C 
ATOM     29  C   UNL     1      -1.129  -7.830  -2.499  0.00  0.00    +0.005 C 
ATOM     30  C   UNL     1       0.017  -8.237  -3.431  0.00  0.00    +0.005 C 
ATOM     31  C   UNL     1       0.745  -6.990  -3.937  0.00  0.00    +0.037 C 
BRANCH  24  32
ATOM     32  C   UNL     1       2.862  -4.780  -3.962  0.00  0.00    +0.102 C 
ATOM     33  N   UNL     1       3.438  -4.537  -4.911  0.00  0.00    -0.191 NA
ENDBRANCH  24  32
ENDBRANCH  15  23
BRANCH  11  34
ATOM     34  C   UNL     1       5.785  -3.281   1.427  0.00  0.00    +0.115 C 
BRANCH  34  35
ATOM     35  C   UNL     1       6.194  -2.976   2.845  0.00  0.00    +0.212 C 
ATOM     36  O   UNL     1       6.282  -1.825   3.217  0.00  0.00    -0.276 OA
ATOM     37  N   UNL     1       6.463  -3.983   3.700  0.00  0.00    -0.329 N 
ATOM     38  H   UNL     1       6.393  -4.904   3.402  0.00  0.00    +0.145 HD
ATOM     39  H   UNL     1       6.726  -3.787   4.613  0.00  0.00    +0.145 HD
ENDBRANCH  34  35
ENDBRANCH  11  34
TORSDOF 4
