REMARK  Name = ZINC08719573
REMARK  5 active torsions:
REMARK  status: ('A' for Active; 'I' for Inactive)
REMARK    1  A    between atoms: C_1  and  C_2
REMARK    2  A    between atoms: C_7  and  O_29
REMARK    3  A    between atoms: C_8  and  C_12
REMARK    4  A    between atoms: N_23  and  C_24
REMARK    5  A    between atoms: O_29  and  C_30
REMARK                            x       y       z     vdW  Elec       q    Type
REMARK                         _______ _______ _______ _____ _____    ______ ____
ROOT
ATOM      1  C   UNL     1      -5.646   2.109   1.929  0.00  0.00    +0.196 C 
ATOM      2  N   UNL     1      -6.605   3.041   1.325  0.00  0.00    -0.321 N 
ATOM      3  C   UNL     1      -6.364   4.407   1.423  0.00  0.00    +0.041 A 
ATOM      4  C   UNL     1      -6.815   5.297   0.464  0.00  0.00    +0.024 A 
ATOM      5  C   UNL     1      -6.561   6.647   0.610  0.00  0.00    +0.002 A 
ATOM      6  C   UNL     1      -5.858   7.117   1.708  0.00  0.00    +0.001 A 
ATOM      7  C   UNL     1      -5.399   6.243   2.672  0.00  0.00    +0.015 A 
ATOM      8  C   UNL     1      -5.644   4.879   2.534  0.00  0.00    +0.058 A 
ATOM      9  C   UNL     1      -5.152   3.902   3.523  0.00  0.00    +0.250 C 
ATOM     10  O   UNL     1      -4.673   4.282   4.574  0.00  0.00    -0.270 OA
ATOM     11  N   UNL     1      -5.240   2.585   3.252  0.00  0.00    -0.272 N 
ATOM     12  H   UNL     1      -7.393   2.710   0.867  0.00  0.00    +0.148 HD
ENDROOT
BRANCH   1  19
ATOM     13  C   UNL     1       1.411   1.645  -0.003  0.00  0.00    +0.052 C 
ATOM     14  C   UNL     1      -0.013   1.086   0.008  0.00  0.00    +0.175 C 
ATOM     15  C   UNL     1      -0.824   1.629  -1.192  0.00  0.00    +0.083 C 
ATOM     16  C   UNL     1      -2.208   1.792  -0.581  0.00  0.00    +0.001 A 
ATOM     17  C   UNL     1      -3.453   1.959  -1.146  0.00  0.00    +0.053 A 
ATOM     18  C   UNL     1      -4.574   2.065  -0.334  0.00  0.00    +0.127 A 
ATOM     19  C   UNL     1      -4.431   2.000   1.044  0.00  0.00    +0.036 A 
ATOM     20  C   UNL     1      -3.183   1.836   1.608  0.00  0.00    +0.056 A 
ATOM     21  C   UNL     1      -2.054   1.734   0.798  0.00  0.00    +0.125 A 
ATOM     22  O   UNL     1      -0.745   1.579   1.143  0.00  0.00    -0.488 OA
BRANCH  18  23
ATOM     23  O   UNL     1      -5.805   2.231  -0.887  0.00  0.00    -0.495 OA
ATOM     24  C   UNL     1      -5.873   2.289  -2.313  0.00  0.00    +0.277 C 
ENDBRANCH  18  23
ENDBRANCH   1  19
BRANCH  11  25
ATOM     25  C   UNL     1      -4.922   1.612   4.301  0.00  0.00    +0.078 C 
ATOM     26  C   UNL     1      -5.818   1.853   5.533  0.00  0.00    +0.022 C 
ATOM     27  C   UNL     1      -4.889   1.565   6.739  0.00  0.00    +0.002 C 
ATOM     28  C   UNL     1      -3.532   2.146   6.272  0.00  0.00    +0.002 C 
ATOM     29  C   UNL     1      -3.469   1.798   4.770  0.00  0.00    +0.022 C 
ENDBRANCH  11  25
TORSDOF 3
