REMARK  Name = ZINC18117603
REMARK  6 active torsions:
REMARK  status: ('A' for Active; 'I' for Inactive)
REMARK    1  A    between atoms: C_1  and  C_2
REMARK    2  A    between atoms: C_5  and  N_8
REMARK    3  A    between atoms: C_9  and  O_22
REMARK    4  A    between atoms: C_10  and  C_14
REMARK    5  A    between atoms: C_11  and  C_13
REMARK    6  A    between atoms: N_15  and  C_16
REMARK                            x       y       z     vdW  Elec       q    Type
REMARK                         _______ _______ _______ _____ _____    ______ ____
ROOT
ATOM      1  N   UNL     1       0.059  -4.172  -0.021  0.00  0.00    -0.200 N 
ATOM      2  C   UNL     1       0.698  -4.957   0.872  0.00  0.00    +0.225 A 
ATOM      3  C   UNL     1       0.459  -6.278   0.501  0.00  0.00    +0.077 A 
ATOM      4  C   UNL     1      -0.354  -6.241  -0.658  0.00  0.00    +0.073 A 
ATOM      5  N   UNL     1      -0.587  -4.993  -0.952  0.00  0.00    -0.168 NA
ATOM      6  C   UNL     1      -0.866  -7.438  -1.416  0.00  0.00    +0.068 C 
ENDROOT
BRANCH   1  11
ATOM      7  C   UNL     1      -0.018   1.503   0.010  0.00  0.00    +0.044 C 
ATOM      8  C   UNL     1       0.002  -0.004   0.002  0.00  0.00    -0.050 A 
ATOM      9  C   UNL     1       0.006  -0.688  -1.200  0.00  0.00    +0.005 A 
ATOM     10  C   UNL     1       0.025  -2.068  -1.211  0.00  0.00    +0.028 A 
ATOM     11  C   UNL     1       0.040  -2.771  -0.013  0.00  0.00    +0.069 A 
ATOM     12  C   UNL     1       0.037  -2.082   1.192  0.00  0.00    +0.028 A 
ATOM     13  C   UNL     1       0.023  -0.700   1.196  0.00  0.00    +0.005 A 
ENDBRANCH   1  11
BRANCH   3  14
ATOM     14  C   UNL     1       0.956  -7.477   1.180  0.00  0.00    +0.128 C 
ATOM     15  N   UNL     1       1.703  -7.362   2.247  0.00  0.00    -0.235 NA
BRANCH  15  16
ATOM     16  C   UNL     1       2.166  -8.481   2.880  0.00  0.00    +0.152 A 
ATOM     17  C   UNL     1       2.959  -8.353   4.024  0.00  0.00    +0.048 A 
ATOM     18  C   UNL     1       3.419  -9.494   4.652  0.00  0.00    +0.005 A 
ATOM     19  C   UNL     1       3.074 -10.730   4.120  0.00  0.00    +0.020 A 
ATOM     20  C   UNL     1       2.286 -10.786   2.986  0.00  0.00    +0.113 A 
ATOM     21  N   UNL     1       1.854  -9.684   2.407  0.00  0.00    -0.236 NA
ENDBRANCH  15  16
ENDBRANCH   3  14
BRANCH   2  22
ATOM     22  O   UNL     1       1.433  -4.539   1.929  0.00  0.00    -0.492 OA
ATOM     23  H   UNL     1       0.924  -4.429   2.744  0.00  0.00    +0.294 HD
ENDBRANCH   2  22
TORSDOF 4
