REMARK  Name = ZINC41108459
REMARK  8 active torsions:
REMARK  status: ('A' for Active; 'I' for Inactive)
REMARK    1  A    between atoms: C_4  and  O_7
REMARK    2  A    between atoms: O_7  and  C_8
REMARK    3  A    between atoms: C_8  and  C_9
REMARK    4  A    between atoms: C_9  and  S_10
REMARK    5  A    between atoms: S_10  and  C_11
REMARK    6  A    between atoms: C_17  and  C_18
REMARK    7  A    between atoms: C_21  and  S_23
REMARK    8  A    between atoms: S_23  and  C_24
REMARK                            x       y       z     vdW  Elec       q    Type
REMARK                         _______ _______ _______ _____ _____    ______ ____
ROOT
ATOM      1  C   UNL     1       6.578  -5.139  -0.907  0.00  0.00    +0.156 C 
ATOM      2  N   UNL     1       7.572  -4.292  -1.008  0.00  0.00    -0.158 NA
ATOM      3  N   UNL     1       8.867  -4.679  -0.736  0.00  0.00    -0.151 N 
ATOM      4  C   UNL     1       9.994  -3.832  -0.722  0.00  0.00    +0.153 C 
ATOM      5  N   UNL     1       9.917  -2.535  -0.550  0.00  0.00    -0.283 NA
ATOM      6  C   UNL     1      11.277  -4.553  -0.922  0.00  0.00    +0.084 C 
ATOM      7  C   UNL     1      12.348  -3.969  -1.592  0.00  0.00    +0.063 C 
ATOM      8  C   UNL     1      11.356  -5.923  -0.372  0.00  0.00    +0.273 C 
ATOM      9  O   UNL     1      12.432  -6.417  -0.072  0.00  0.00    -0.268 OA
ATOM     10  N   UNL     1      10.207  -6.611  -0.212  0.00  0.00    -0.152 NA
ATOM     11  C   UNL     1       9.066  -6.005  -0.422  0.00  0.00    +0.181 C 
ATOM     12  S   UNL     1       7.410  -6.638  -0.400  0.00  0.00    -0.027 S 
ATOM     13  H   UNL     1       9.053  -2.113  -0.423  0.00  0.00    +0.188 HD
ENDROOT
BRANCH   7  14
ATOM     14  C   UNL     1      13.470  -4.736  -1.919  0.00  0.00    +0.130 A 
ATOM     15  C   UNL     1      14.787  -4.289  -1.944  0.00  0.00    +0.050 A 
ATOM     16  C   UNL     1      15.572  -5.374  -2.319  0.00  0.00    +0.057 A 
ATOM     17  C   UNL     1      14.722  -6.444  -2.511  0.00  0.00    +0.162 A 
ATOM     18  O   UNL     1      13.465  -6.045  -2.261  0.00  0.00    -0.449 OA
BRANCH  17  19
ATOM     19  S   UNL     1      15.207  -8.067  -2.997  0.00  0.00    -0.085 S 
BRANCH  19  20
ATOM     20  C   UNL     1      13.636  -8.923  -3.299  0.00  0.00    +0.054 C 
ATOM     21  C   UNL     1      12.983  -9.278  -1.961  0.00  0.00    +0.014 C 
ATOM     22  C   UNL     1      11.659 -10.000  -2.216  0.00  0.00    +0.001 C 
ATOM     23  C   UNL     1      11.920 -11.280  -3.012  0.00  0.00    +0.000 C 
ATOM     24  C   UNL     1      12.572 -10.925  -4.349  0.00  0.00    +0.001 C 
ATOM     25  C   UNL     1      13.897 -10.203  -4.095  0.00  0.00    +0.014 C 
ENDBRANCH  19  20
ENDBRANCH  17  19
ENDBRANCH   7  14
BRANCH   1  26
ATOM     26  S   UNL     1       4.860  -4.869  -1.191  0.00  0.00    -0.094 S 
BRANCH  26  27
ATOM     27  C   UNL     1       4.765  -3.123  -1.674  0.00  0.00    +0.117 C 
BRANCH  27  28
ATOM     28  C   UNL     1       3.308  -2.750  -1.954  0.00  0.00    +0.240 C 
BRANCH  28  29
ATOM     29  O   UNL     1       3.232  -1.374  -2.334  0.00  0.00    -0.491 OA
BRANCH  29  33
ATOM     30  C   UNL     1      -0.511   0.127  -3.200  0.00  0.00    +0.000 A 
ATOM     31  C   UNL     1       0.599   0.948  -3.285  0.00  0.00    +0.004 A 
ATOM     32  C   UNL     1       1.853   0.448  -2.995  0.00  0.00    +0.045 A 
ATOM     33  C   UNL     1       1.999  -0.879  -2.619  0.00  0.00    +0.121 A 
ATOM     34  C   UNL     1       0.884  -1.701  -2.534  0.00  0.00    +0.045 A 
ATOM     35  C   UNL     1      -0.368  -1.196  -2.826  0.00  0.00    +0.004 A 
ENDBRANCH  29  33
ENDBRANCH  28  29
ENDBRANCH  27  28
ENDBRANCH  26  27
ENDBRANCH   1  26
TORSDOF 8
