REMARK  Name = ZINC46580727
REMARK  10 active torsions:
REMARK  status: ('A' for Active; 'I' for Inactive)
REMARK    1  A    between atoms: C_1  and  C_2
REMARK    2  A    between atoms: C_4  and  C_31
REMARK    3  A    between atoms: C_5  and  N_9
REMARK    4  A    between atoms: C_10  and  C_12
REMARK    5  A    between atoms: C_12  and  C_14
REMARK    6  A    between atoms: C_12  and  S_15
REMARK    7  A    between atoms: S_15  and  C_16
REMARK    8  A    between atoms: N_20  and  C_21
REMARK    9  A    between atoms: C_25  and  N_27
REMARK   10  A    between atoms: C_28  and  C_30
REMARK                            x       y       z     vdW  Elec       q    Type
REMARK                         _______ _______ _______ _____ _____    ______ ____
ROOT
ATOM      1  S   UNL     1       0.451  -6.981   2.735  0.00  0.00    -0.072 S 
ENDROOT
BRANCH   1   2
ATOM      2  C   UNL     1       0.443  -8.723   2.475  0.00  0.00    +0.215 A 
ATOM      3  N   UNL     1       0.537  -9.343   1.318  0.00  0.00    -0.101 NA
ATOM      4  N   UNL     1       0.499 -10.616   1.484  0.00  0.00    -0.022 NA
ATOM      5  N   UNL     1       0.380 -10.905   2.734  0.00  0.00    -0.038 NA
ATOM      6  N   UNL     1       0.344  -9.686   3.433  0.00  0.00    -0.187 N 
BRANCH   6   7
ATOM      7  C   UNL     1       0.229  -9.501   4.819  0.00  0.00    +0.072 A 
ATOM      8  C   UNL     1       0.883  -8.442   5.435  0.00  0.00    +0.028 A 
ATOM      9  C   UNL     1       0.770  -8.259   6.800  0.00  0.00    +0.004 A 
ATOM     10  C   UNL     1       0.008  -9.129   7.556  0.00  0.00    +0.023 A 
ATOM     11  C   UNL     1      -0.648 -10.190   6.945  0.00  0.00    +0.035 A 
ATOM     12  C   UNL     1      -0.542 -10.372   5.574  0.00  0.00    +0.051 A 
BRANCH  11  13
ATOM     13  N   UNL     1      -1.420 -11.070   7.711  0.00  0.00    -0.286 N 
ATOM     14  C   UNL     1      -2.129 -10.608   8.760  0.00  0.00    +0.214 C 
ATOM     15  O   UNL     1      -2.033  -9.445   9.091  0.00  0.00    -0.276 OA
ATOM     16  C   UNL     1      -3.042 -11.535   9.521  0.00  0.00    +0.109 C 
ATOM     17  H   UNL     1      -1.444 -12.014   7.488  0.00  0.00    +0.155 HD
ENDBRANCH  11  13
ENDBRANCH   6   7
ENDBRANCH   1   2
BRANCH   1  18
ATOM     18  C   UNL     1       0.606  -6.288   1.065  0.00  0.00    +0.137 C 
ATOM     19  C   UNL     1       1.962  -6.680   0.475  0.00  0.00    +0.029 C 
BRANCH  18  21
ATOM     20  N   UNL     1       0.089  -4.091   0.055  0.00  0.00    -0.283 N 
ATOM     21  C   UNL     1       0.502  -4.787   1.133  0.00  0.00    +0.230 C 
ATOM     22  O   UNL     1       0.790  -4.204   2.157  0.00  0.00    -0.274 OA
ATOM     23  H   UNL     1      -0.191  -4.559  -0.747  0.00  0.00    +0.155 HD
BRANCH  20  28
ATOM     24  C   UNL     1      -0.019   1.581   0.211  0.00  0.00    +0.044 C 
ATOM     25  C   UNL     1       0.010   0.074   0.170  0.00  0.00    -0.049 A 
ATOM     26  C   UNL     1      -1.039  -0.621  -0.404  0.00  0.00    +0.008 A 
ATOM     27  C   UNL     1      -1.016  -2.001  -0.443  0.00  0.00    -0.028 A 
ATOM     28  C   UNL     1       0.062  -2.692   0.093  0.00  0.00    +0.055 A 
ATOM     29  C   UNL     1       1.115  -1.991   0.669  0.00  0.00    +0.063 A 
ATOM     30  C   UNL     1       1.088  -0.609   0.700  0.00  0.00    +0.025 A 
ATOM     31 CL   UNL     1       2.466  -2.849   1.341  0.00  0.00    -0.082 Cl
ATOM     32  C   UNL     1      -2.160  -2.757  -1.068  0.00  0.00    +0.046 C 
ENDBRANCH  20  28
ENDBRANCH  18  21
ENDBRANCH   1  18
TORSDOF 6
