REMARK  Name = ZINC36584063
REMARK  15 active torsions:
REMARK  status: ('A' for Active; 'I' for Inactive)
REMARK    1  A    between atoms: C_1  and  C_2
REMARK    2  A    between atoms: C_5  and  S_8
REMARK    3  A    between atoms: S_8  and  C_11
REMARK    4  A    between atoms: C_11  and  N_12
REMARK    5  A    between atoms: C_13  and  C_15
REMARK    6  A    between atoms: C_15  and  C_17
REMARK    7  A    between atoms: C_15  and  N_25
REMARK    8  A    between atoms: C_21  and  O_23
REMARK    9  A    between atoms: O_23  and  C_24
REMARK   10  A    between atoms: N_25  and  C_35
REMARK   11  A    between atoms: C_26  and  C_28
REMARK   12  A    between atoms: C_33  and  O_34
REMARK   13  A    between atoms: C_35  and  C_36
REMARK   14  A    between atoms: C_35  and  C_37
REMARK   15  A    between atoms: C_35  and  C_38
REMARK                            x       y       z     vdW  Elec       q    Type
REMARK                         _______ _______ _______ _____ _____    ______ ____
ROOT
ATOM      1  C   UNL     1       2.073  -7.971   3.713  0.00  0.00    +0.193 C 
ENDROOT
BRANCH   1   2
ATOM      2  C   UNL     1       1.248  -6.852   3.131  0.00  0.00    -0.015 A 
ATOM      3  C   UNL     1       0.576  -5.981   3.968  0.00  0.00    +0.006 A 
ATOM      4  C   UNL     1      -0.181  -4.954   3.437  0.00  0.00    +0.004 A 
ATOM      5  C   UNL     1      -0.270  -4.796   2.067  0.00  0.00    +0.045 A 
ATOM      6  C   UNL     1       0.403  -5.669   1.225  0.00  0.00    +0.120 A 
ATOM      7  C   UNL     1       1.168  -6.695   1.761  0.00  0.00    +0.051 A 
BRANCH   6   8
ATOM      8  O   UNL     1       0.318  -5.516  -0.123  0.00  0.00    -0.495 OA
ATOM      9  C   UNL     1      -0.482  -4.434  -0.604  0.00  0.00    +0.277 C 
ENDBRANCH   6   8
ENDBRANCH   1   2
BRANCH   1  11
ATOM     10  N   UNL     1       0.809  -9.604   2.352  0.00  0.00    -0.294 N 
ATOM     11  C   UNL     1       1.339  -9.276   3.547  0.00  0.00    +0.239 C 
ATOM     12  O   UNL     1       1.224 -10.031   4.489  0.00  0.00    -0.273 OA
ATOM     13  H   UNL     1       0.901  -9.000   1.599  0.00  0.00    +0.150 HD
BRANCH  10  14
ATOM     14  C   UNL     1       0.095 -10.873   2.191  0.00  0.00    +0.278 C 
BRANCH  14  15
ATOM     15  S   UNL     1      -1.684 -10.599   2.417  0.00  0.00    +0.013 S 
ATOM     16  O   UNL     1      -1.915  -9.820   3.583  0.00  0.00    -0.168 OA
ATOM     17  O   UNL     1      -2.397 -11.809   2.201  0.00  0.00    -0.168 OA
BRANCH  15  22
ATOM     18  C   UNL     1      -3.301  -7.022  -2.165  0.00  0.00    +0.044 C 
ATOM     19  C   UNL     1      -2.897  -7.915  -1.020  0.00  0.00    -0.050 A 
ATOM     20  C   UNL     1      -2.945  -9.289  -1.166  0.00  0.00    +0.005 A 
ATOM     21  C   UNL     1      -2.574 -10.109  -0.116  0.00  0.00    +0.027 A 
ATOM     22  C   UNL     1      -2.155  -9.554   1.079  0.00  0.00    +0.090 A 
ATOM     23  C   UNL     1      -2.107  -8.180   1.224  0.00  0.00    +0.027 A 
ATOM     24  C   UNL     1      -2.473  -7.361   0.173  0.00  0.00    +0.005 A 
ENDBRANCH  15  22
ENDBRANCH  14  15
ENDBRANCH  10  14
ENDBRANCH   1  11
BRANCH   1  25
ATOM     25  N   UNL     1       2.303  -7.717   5.138  0.00  0.00    -0.277 N 
ATOM     26  C   UNL     1       1.434  -8.188   6.054  0.00  0.00    +0.251 C 
ATOM     27  O   UNL     1       0.250  -8.261   5.788  0.00  0.00    -0.270 OA
BRANCH  26  28
ATOM     28  C   UNL     1       1.920  -8.614   7.381  0.00  0.00    +0.078 A 
ATOM     29  C   UNL     1       3.178  -8.208   7.832  0.00  0.00    +0.017 A 
ATOM     30  C   UNL     1       3.626  -8.609   9.072  0.00  0.00    +0.001 A 
ATOM     31  C   UNL     1       2.834  -9.413   9.875  0.00  0.00    +0.004 A 
ATOM     32  C   UNL     1       1.588  -9.822   9.441  0.00  0.00    +0.046 A 
ATOM     33  C   UNL     1       1.119  -9.423   8.198  0.00  0.00    +0.129 A 
BRANCH  33  34
ATOM     34  O   UNL     1      -0.107  -9.819   7.773  0.00  0.00    -0.506 OA
ATOM     35  H   UNL     1      -0.103 -10.655   7.287  0.00  0.00    +0.292 HD
ENDBRANCH  33  34
ENDBRANCH  26  28
BRANCH  25  36
ATOM     36  C   UNL     1       3.477  -6.953   5.566  0.00  0.00    +0.030 C 
ATOM     37  C   UNL     1       3.865  -5.958   4.470  0.00  0.00    +0.031 C 
ATOM     38  C   UNL     1       3.149  -6.192   6.853  0.00  0.00    +0.031 C 
ATOM     39  C   UNL     1       4.643  -7.909   5.822  0.00  0.00    +0.031 C 
ENDBRANCH  25  36
ENDBRANCH   1  25
TORSDOF 10
