REMARK  Name = ZINC09158055
REMARK  7 active torsions:
REMARK  status: ('A' for Active; 'I' for Inactive)
REMARK    1  A    between atoms: C_1  and  C_2
REMARK    2  A    between atoms: C_2  and  C_3
REMARK    3  A    between atoms: C_3  and  C_4
REMARK    4  A    between atoms: C_11  and  N_34
REMARK    5  A    between atoms: C_12  and  C_32
REMARK    6  A    between atoms: N_20  and  C_23
REMARK    7  A    between atoms: C_23  and  C_24
REMARK                            x       y       z     vdW  Elec       q    Type
REMARK                         _______ _______ _______ _____ _____    ______ ____
ROOT
ATOM      1  C   UNL     1       0.739  -2.004  -1.265  0.00  0.00    +0.071 A 
ATOM      2  C   UNL     1       1.725  -2.809  -0.712  0.00  0.00    +0.061 A 
ATOM      3  C   UNL     1       1.377  -4.115  -0.929  0.00  0.00    +0.223 A 
ATOM      4  N   UNL     1       0.212  -4.119  -1.594  0.00  0.00    -0.246 N 
ATOM      5  H   UNL     1      -0.278  -4.904  -1.883  0.00  0.00    +0.192 HD
ATOM      6  N   UNL     1      -0.176  -2.784  -1.791  0.00  0.00    -0.176 NA
ATOM      7  O   UNL     1       2.141  -5.153  -0.507  0.00  0.00    -0.423 OA
ATOM      8  C   UNL     1       3.398  -4.888  -0.096  0.00  0.00    +0.201 C 
ATOM      9  C   UNL     1       3.855  -3.640   0.163  0.00  0.00    +0.110 C 
ATOM     10  C   UNL     1       2.984  -2.423   0.013  0.00  0.00    +0.145 C 
ATOM     11  C   UNL     1       2.679  -1.806   1.340  0.00  0.00    -0.001 A 
ATOM     12  C   UNL     1       2.033  -2.299   2.453  0.00  0.00    +0.007 A 
ATOM     13  C   UNL     1       1.915  -1.446   3.544  0.00  0.00    +0.000 A 
ATOM     14  C   UNL     1       2.423  -0.163   3.512  0.00  0.00    +0.002 A 
ATOM     15  C   UNL     1       3.075   0.340   2.397  0.00  0.00    +0.024 A 
ATOM     16  C   UNL     1       3.201  -0.506   1.295  0.00  0.00    +0.041 A 
ATOM     17  N   UNL     1       3.797  -0.270   0.069  0.00  0.00    -0.265 N 
ATOM     18  C   UNL     1       3.719  -1.342  -0.748  0.00  0.00    +0.241 C 
ATOM     19  O   UNL     1       4.155  -1.423  -1.877  0.00  0.00    -0.274 OA
ENDROOT
BRANCH   8  20
ATOM     20  N   UNL     1       4.261  -5.941   0.070  0.00  0.00    -0.328 N 
ATOM     21  H   UNL     1       3.962  -6.847  -0.108  0.00  0.00    +0.145 HD
ATOM     22  H   UNL     1       5.171  -5.781   0.365  0.00  0.00    +0.145 HD
ENDBRANCH   8  20
BRANCH   9  23
ATOM     23  C   UNL     1       5.211  -3.474   0.593  0.00  0.00    +0.102 C 
ATOM     24  N   UNL     1       6.286  -3.342   0.935  0.00  0.00    -0.191 NA
ENDBRANCH   9  23
BRANCH   1  25
ATOM     25  C   UNL     1       0.718  -0.497  -1.257  0.00  0.00    +0.057 C 
BRANCH  25  27
ATOM     26  C   UNL     1      -0.019   1.526   0.010  0.00  0.00    +0.004 C 
ATOM     27  C   UNL     1       0.002  -0.004   0.002  0.00  0.00    +0.003 C 
ENDBRANCH  25  27
ENDBRANCH   1  25
BRANCH  17  28
ATOM     28  C   UNL     1       4.438   0.995  -0.300  0.00  0.00    +0.150 C 
BRANCH  28  29
ATOM     29  C   UNL     1       5.895   0.950   0.084  0.00  0.00    -0.011 A 
ATOM     30  C   UNL     1       6.322   1.561   1.248  0.00  0.00    +0.008 A 
ATOM     31  C   UNL     1       7.658   1.520   1.601  0.00  0.00    +0.020 A 
ATOM     32  C   UNL     1       8.569   0.868   0.788  0.00  0.00    +0.042 A 
ATOM     33  C   UNL     1       8.142   0.257  -0.377  0.00  0.00    +0.040 A 
ATOM     34  C   UNL     1       6.804   0.293  -0.726  0.00  0.00    +0.047 A 
ATOM     35 CL   UNL     1       6.266  -0.479  -2.185  0.00  0.00    -0.083 Cl
ATOM     36 CL   UNL     1      10.246   0.818   1.231  0.00  0.00    -0.083 Cl
ENDBRANCH  28  29
ENDBRANCH  17  28
TORSDOF 6
