REMARK  Name = ZINC47139307
REMARK  8 active torsions:
REMARK  status: ('A' for Active; 'I' for Inactive)
REMARK    1  A    between atoms: C_1  and  C_2
REMARK    2  A    between atoms: C_2  and  O_3
REMARK    3  A    between atoms: O_3  and  C_4
REMARK    4  A    between atoms: C_4  and  C_6
REMARK    5  A    between atoms: C_6  and  N_7
REMARK    6  A    between atoms: C_13  and  C_34
REMARK    7  A    between atoms: N_22  and  C_25
REMARK    8  A    between atoms: C_28  and  N_31
REMARK                            x       y       z     vdW  Elec       q    Type
REMARK                         _______ _______ _______ _____ _____    ______ ____
ROOT
ATOM      1  N   UNL     1      -2.868  -4.507   0.683  0.00  0.00    -0.286 N 
ATOM      2  C   UNL     1      -2.753  -4.873  -0.635  0.00  0.00    +0.091 A 
ATOM      3  C   UNL     1      -2.717  -6.206  -0.856  0.00  0.00    +0.036 A 
ATOM      4  S   UNL     1      -2.833  -6.890   0.776  0.00  0.00    -0.030 S 
ATOM      5  C   UNL     1      -2.925  -5.451   1.642  0.00  0.00    +0.292 A 
ATOM      6  O   UNL     1      -3.022  -5.299   2.847  0.00  0.00    -0.259 OA
ATOM      7  C   UNL     1      -2.618  -6.956  -2.155  0.00  0.00    +0.108 C 
ATOM      8  C   UNL     1      -3.053  -6.040  -3.271  0.00  0.00    +0.113 C 
ATOM      9  C   UNL     1      -2.091  -4.815  -3.313  0.00  0.00    +0.152 C 
ATOM     10  S   UNL     1      -2.642  -3.710  -1.987  0.00  0.00    -0.093 S 
ATOM     11  C   UNL     1      -2.373  -4.317  -4.704  0.00  0.00    +0.240 C 
ATOM     12  O   UNL     1      -2.313  -3.170  -5.093  0.00  0.00    -0.274 OA
ATOM     13  N   UNL     1      -2.709  -5.409  -5.438  0.00  0.00    -0.209 N 
ATOM     14  C   UNL     1      -2.933  -6.506  -4.688  0.00  0.00    +0.232 C 
ATOM     15  O   UNL     1      -3.029  -7.645  -5.091  0.00  0.00    -0.274 OA
ENDROOT
BRANCH  13  16
ATOM     16  C   UNL     1      -2.794  -5.398  -6.837  0.00  0.00    +0.044 A 
ATOM     17  C   UNL     1      -3.149  -6.552  -7.522  0.00  0.00    +0.026 A 
ATOM     18  C   UNL     1      -3.233  -6.538  -8.900  0.00  0.00    +0.034 A 
ATOM     19  C   UNL     1      -2.963  -5.375  -9.598  0.00  0.00    +0.126 A 
ATOM     20  C   UNL     1      -2.608  -4.224  -8.919  0.00  0.00    +0.034 A 
ATOM     21  C   UNL     1      -2.529  -4.231  -7.540  0.00  0.00    +0.026 A 
BRANCH  19  22
ATOM     22  N   UNL     1      -3.054  -5.363 -11.076  0.00  0.00    +0.056 N 
ATOM     23  O   UNL     1      -3.363  -6.369 -11.671  0.00  0.00    -0.126 OA
ATOM     24  O   UNL     1      -2.818  -4.347 -11.688  0.00  0.00    -0.126 OA
ENDBRANCH  19  22
ENDBRANCH  13  16
BRANCH   7  25
ATOM     25  C   UNL     1      -1.193  -7.393  -2.379  0.00  0.00    +0.114 A 
ATOM     26  C   UNL     1      -0.793  -8.637  -2.699  0.00  0.00    +0.045 A 
ATOM     27  C   UNL     1       0.616  -8.597  -2.813  0.00  0.00    +0.041 A 
ATOM     28  C   UNL     1       0.992  -7.332  -2.556  0.00  0.00    +0.195 A 
ATOM     29  O   UNL     1      -0.108  -6.605  -2.300  0.00  0.00    -0.467 OA
ENDBRANCH   7  25
BRANCH   1  30
ATOM     30  C   UNL     1      -2.922  -3.089   1.047  0.00  0.00    +0.246 C 
BRANCH  30  31
ATOM     31  C   UNL     1      -1.524  -2.577   1.282  0.00  0.00    +0.327 C 
ATOM     32  O   UNL     1      -0.580  -3.321   1.159  0.00  0.00    -0.249 OA
BRANCH  31  33
ATOM     33  O   UNL     1      -1.328  -1.295   1.629  0.00  0.00    -0.464 OA
BRANCH  33  35
ATOM     34  C   UNL     1       0.047   0.602   2.223  0.00  0.00    +0.048 C 
ATOM     35  C   UNL     1       0.023  -0.878   1.837  0.00  0.00    +0.229 C 
ENDBRANCH  33  35
ENDBRANCH  31  33
ENDBRANCH  30  31
ENDBRANCH   1  30
TORSDOF 7
