REMARK  Name = ZINC16648341
REMARK  12 active torsions:
REMARK  status: ('A' for Active; 'I' for Inactive)
REMARK    1  A    between atoms: C_1  and  C_2
REMARK    2  A    between atoms: C_2  and  C_3
REMARK    3  A    between atoms: C_3  and  C_4
REMARK    4  A    between atoms: C_4  and  N_5
REMARK    5  A    between atoms: N_5  and  C_6
REMARK    6  A    between atoms: C_6  and  C_7
REMARK    7  A    between atoms: N_9  and  C_10
REMARK    8  A    between atoms: N_9  and  C_22
REMARK    9  A    between atoms: C_10  and  C_11
REMARK   10  A    between atoms: C_11  and  C_12
REMARK   11  A    between atoms: C_22  and  C_23
REMARK   12  A    between atoms: N_31  and  C_32
REMARK                            x       y       z     vdW  Elec       q    Type
REMARK                         _______ _______ _______ _____ _____    ______ ____
ROOT
ATOM      1  C   UNL     1      -3.942  -1.619  -1.211  0.00  0.00    +0.233 C 
ATOM      2  O   UNL     1      -4.190  -0.432  -1.165  0.00  0.00    -0.274 OA
ATOM      3  N   UNL     1      -2.670  -2.046  -1.079  0.00  0.00    -0.296 N 
ENDROOT
BRANCH   1   4
ATOM      4  C   UNL     1      -5.054  -2.615  -1.414  0.00  0.00    +0.205 C 
BRANCH   4   5
ATOM      5  N   UNL     1      -6.344  -1.920  -1.379  0.00  0.00    -0.277 N 
ATOM      6  C   UNL     1      -6.877  -1.432  -2.516  0.00  0.00    +0.303 C 
ATOM      7  O   UNL     1      -6.289  -1.568  -3.571  0.00  0.00    -0.253 OA
ATOM      8  N   UNL     1      -8.064  -0.793  -2.484  0.00  0.00    -0.294 N 
ATOM      9  H   UNL     1      -8.533  -0.684  -1.642  0.00  0.00    +0.151 HD
BRANCH   8  10
ATOM     10  C   UNL     1      -8.644  -0.263  -3.720  0.00  0.00    +0.037 C 
ATOM     11  C   UNL     1      -7.688   0.763  -4.333  0.00  0.00    +0.029 C 
ATOM     12  C   UNL     1      -8.294   1.317  -5.624  0.00  0.00    -0.008 C 
ATOM     13  C   UNL     1      -9.632   1.990  -5.312  0.00  0.00    +0.007 C 
ATOM     14  C   UNL     1     -10.588   0.964  -4.699  0.00  0.00    -0.008 C 
ATOM     15  C   UNL     1      -9.982   0.410  -3.408  0.00  0.00    +0.029 C 
ATOM     16  C   UNL     1     -10.811  -0.180  -5.690  0.00  0.00    +0.007 C 
ATOM     17  C   UNL     1      -9.473  -0.853  -6.002  0.00  0.00    -0.008 C 
ATOM     18  C   UNL     1      -8.517   0.173  -6.615  0.00  0.00    +0.007 C 
ATOM     19  C   UNL     1      -8.867  -1.407  -4.711  0.00  0.00    +0.029 C 
ENDBRANCH   8  10
BRANCH   5  20
ATOM     20  C   UNL     1      -7.053  -1.756  -0.107  0.00  0.00    +0.110 C 
BRANCH  20  21
ATOM     21  C   UNL     1      -6.619  -0.446   0.553  0.00  0.00    +0.019 C 
BRANCH  21  23
ATOM     22  C   UNL     1      -6.926   1.035   2.542  0.00  0.00    +0.004 C 
ATOM     23  C   UNL     1      -7.360  -0.275   1.881  0.00  0.00    -0.002 C 
ENDBRANCH  21  23
ENDBRANCH  20  21
ENDBRANCH   5  20
ENDBRANCH   4   5
ENDBRANCH   1   4
BRANCH   3  24
ATOM     24  C   UNL     1      -1.577  -1.075  -0.990  0.00  0.00    +0.113 C 
BRANCH  24  25
ATOM     25  C   UNL     1      -1.335  -0.712   0.476  0.00  0.00    +0.056 C 
BRANCH  25  26
ATOM     26  C   UNL     1      -0.210   0.287   0.568  0.00  0.00    -0.021 A 
ATOM     27  C   UNL     1       1.084   0.013   0.794  0.00  0.00    +0.087 A 
ATOM     28  N   UNL     1       1.810   1.172   0.810  0.00  0.00    -0.360 N 
ATOM     29  H   UNL     1       2.768   1.228   0.956  0.00  0.00    +0.165 HD
ATOM     30  C   UNL     1       0.980   2.248   0.590  0.00  0.00    +0.047 A 
ATOM     31  C   UNL     1      -0.322   1.741   0.428  0.00  0.00    +0.003 A 
ATOM     32  C   UNL     1      -1.386   2.614   0.193  0.00  0.00    +0.010 A 
ATOM     33  C   UNL     1      -1.154   3.958   0.112  0.00  0.00    +0.001 A 
ATOM     34  C   UNL     1       0.129   4.464   0.270  0.00  0.00    +0.002 A 
ATOM     35  C   UNL     1       1.192   3.620   0.508  0.00  0.00    +0.026 A 
ENDBRANCH  25  26
ENDBRANCH  24  25
ENDBRANCH   3  24
BRANCH   3  36
ATOM     36  C   UNL     1      -2.382  -3.481  -1.026  0.00  0.00    +0.143 C 
BRANCH  36  37
ATOM     37  C   UNL     1      -2.029  -3.975  -2.405  0.00  0.00    -0.030 A 
ATOM     38  C   UNL     1      -2.996  -4.567  -3.196  0.00  0.00    +0.005 A 
ATOM     39  C   UNL     1      -2.673  -5.016  -4.463  0.00  0.00    +0.000 A 
ATOM     40  C   UNL     1      -1.381  -4.880  -4.936  0.00  0.00    +0.000 A 
ATOM     41  C   UNL     1      -0.413  -4.293  -4.143  0.00  0.00    +0.000 A 
ATOM     42  C   UNL     1      -0.737  -3.840  -2.878  0.00  0.00    +0.005 A 
ENDBRANCH  36  37
ENDBRANCH   3  36
TORSDOF 11
