REMARK  Name = ZINC39836506
REMARK  11 active torsions:
REMARK  status: ('A' for Active; 'I' for Inactive)
REMARK    1  A    between atoms: C_1  and  C_2
REMARK    2  A    between atoms: C_2  and  C_3
REMARK    3  A    between atoms: C_2  and  C_4
REMARK    4  A    between atoms: C_2  and  C_5
REMARK    5  A    between atoms: C_12  and  N_25
REMARK    6  A    between atoms: C_13  and  C_14
REMARK    7  A    between atoms: N_16  and  C_17
REMARK    8  A    between atoms: C_26  and  C_28
REMARK    9  A    between atoms: C_31  and  O_34
REMARK   10  A    between atoms: O_34  and  C_35
REMARK   11  A    between atoms: C_35  and  C_36
REMARK                            x       y       z     vdW  Elec       q    Type
REMARK                         _______ _______ _______ _____ _____    ______ ____
ROOT
ATOM      1  C   UNL     1       0.718  -0.497  -1.257  0.00  0.00    -0.000 C 
ATOM      2  C   UNL     1      -0.017   0.013  -2.499  0.00  0.00    +0.009 C 
ATOM      3  C   UNL     1       0.538  -0.670  -3.751  0.00  0.00    +0.037 C 
ATOM      4  C   UNL     1       2.052  -0.516  -3.760  0.00  0.00    -0.023 A 
ATOM      5  C   UNL     1       2.731  -0.199  -2.636  0.00  0.00    -0.004 A 
ATOM      6  S   UNL     1       4.426  -0.134  -3.140  0.00  0.00    -0.077 S 
ATOM      7  C   UNL     1       4.255  -0.510  -4.768  0.00  0.00    +0.085 A 
ATOM      8  C   UNL     1       2.890  -0.688  -4.933  0.00  0.00    +0.069 A 
ATOM      9  C   UNL     1       2.158   0.038  -1.273  0.00  0.00    +0.046 C 
ENDROOT
BRANCH   1  11
ATOM     10  C   UNL     1      -0.019   1.526   0.010  0.00  0.00    +0.011 C 
ATOM     11  C   UNL     1       0.002  -0.004   0.002  0.00  0.00    -0.035 C 
ATOM     12  C   UNL     1       0.742  -0.511   1.242  0.00  0.00    +0.011 C 
ATOM     13  C   UNL     1      -1.433  -0.534   0.013  0.00  0.00    +0.011 C 
ENDBRANCH   1  11
BRANCH   8  14
ATOM     14  C   UNL     1       2.317  -1.035  -6.237  0.00  0.00    +0.247 C 
ATOM     15  O   UNL     1       1.973  -0.155  -7.004  0.00  0.00    -0.270 OA
ATOM     16  N   UNL     1       2.171  -2.329  -6.586  0.00  0.00    -0.307 N 
ATOM     17  H   UNL     1       2.445  -3.030  -5.975  0.00  0.00    +0.149 HD
BRANCH  16  18
ATOM     18  C   UNL     1       1.599  -2.675  -7.889  0.00  0.00    +0.096 C 
ATOM     19  C   UNL     1       2.710  -2.677  -8.951  0.00  0.00    +0.046 C 
ATOM     20  C   UNL     1       2.149  -3.345 -10.239  0.00  0.00    +0.168 C 
ATOM     21  S   UNL     1       1.188  -4.736  -9.506  0.00  0.00    -0.029 S 
ATOM     22  O   UNL     1       2.018  -5.887  -9.441  0.00  0.00    -0.174 OA
ATOM     23  O   UNL     1      -0.074  -4.818 -10.156  0.00  0.00    -0.174 OA
ATOM     24  C   UNL     1       0.946  -4.077  -7.807  0.00  0.00    +0.188 C 
ENDBRANCH  16  18
ENDBRANCH   8  14
BRANCH   7  25
ATOM     25  N   UNL     1       5.250  -0.619  -5.726  0.00  0.00    -0.275 N 
ATOM     26  C   UNL     1       6.538  -0.412  -5.387  0.00  0.00    +0.249 C 
ATOM     27  O   UNL     1       6.826  -0.129  -4.240  0.00  0.00    -0.270 OA
ATOM     28  H   UNL     1       5.020  -0.844  -6.641  0.00  0.00    +0.156 HD
BRANCH  26  29
ATOM     29  C   UNL     1       7.598  -0.527  -6.407  0.00  0.00    +0.037 A 
ATOM     30  C   UNL     1       7.267  -0.846  -7.727  0.00  0.00    +0.016 A 
ATOM     31  C   UNL     1       8.259  -0.953  -8.676  0.00  0.00    +0.046 A 
ATOM     32  C   UNL     1       9.587  -0.744  -8.323  0.00  0.00    +0.121 A 
ATOM     33  C   UNL     1       9.920  -0.427  -7.011  0.00  0.00    +0.046 A 
ATOM     34  C   UNL     1       8.933  -0.312  -6.057  0.00  0.00    +0.016 A 
BRANCH  32  35
ATOM     35  O   UNL     1      10.562  -0.851  -9.261  0.00  0.00    -0.488 OA
BRANCH  35  36
ATOM     36  C   UNL     1      11.905  -0.624  -8.830  0.00  0.00    +0.256 C 
BRANCH  36  37
ATOM     37  C   UNL     1      12.842  -0.784  -9.999  0.00  0.00    +0.006 C 
ATOM     38  C   UNL     1      13.796   0.092 -10.200  0.00  0.00    +0.007 C 
ENDBRANCH  36  37
ENDBRANCH  35  36
ENDBRANCH  32  35
ENDBRANCH  26  29
ENDBRANCH   7  25
TORSDOF 8
