REMARK  Name = ZINC59795553
REMARK  11 active torsions:
REMARK  status: ('A' for Active; 'I' for Inactive)
REMARK    1  A    between atoms: C_1  and  C_2
REMARK    2  A    between atoms: C_2  and  C_3
REMARK    3  A    between atoms: C_3  and  C_4
REMARK    4  A    between atoms: C_4  and  S_5
REMARK    5  A    between atoms: S_5  and  C_6
REMARK    6  A    between atoms: C_11  and  N_12
REMARK    7  A    between atoms: C_13  and  C_15
REMARK    8  A    between atoms: C_15  and  S_16
REMARK    9  A    between atoms: S_16  and  C_17
REMARK   10  A    between atoms: C_20  and  C_28
REMARK   11  A    between atoms: N_21  and  C_22
REMARK                            x       y       z     vdW  Elec       q    Type
REMARK                         _______ _______ _______ _____ _____    ______ ____
ROOT
ATOM      1  C   UNL     1     -10.561  -5.359  -0.388  0.00  0.00    +0.197 A 
ATOM      2  N   UNL     1     -10.725  -4.055  -0.387  0.00  0.00    -0.122 NA
ATOM      3  N   UNL     1     -11.974  -3.766  -0.477  0.00  0.00    -0.128 NA
ATOM      4  C   UNL     1     -12.687  -4.866  -0.542  0.00  0.00    +0.169 A 
ATOM      5  N   UNL     1     -11.803  -5.923  -0.492  0.00  0.00    -0.270 N 
ENDROOT
BRANCH   4   6
ATOM      6  C   UNL     1     -14.158  -4.955  -0.652  0.00  0.00    +0.020 A 
ATOM      7  C   UNL     1     -14.808  -6.163  -0.394  0.00  0.00    +0.013 A 
ATOM      8  C   UNL     1     -16.181  -6.240  -0.498  0.00  0.00    +0.021 A 
ATOM      9  C   UNL     1     -16.915  -5.122  -0.860  0.00  0.00    +0.041 A 
ATOM     10  C   UNL     1     -16.275  -3.921  -1.117  0.00  0.00    +0.021 A 
ATOM     11  C   UNL     1     -14.903  -3.831  -1.010  0.00  0.00    +0.013 A 
ATOM     12 CL   UNL     1     -18.642  -5.227  -0.990  0.00  0.00    -0.084 Cl
ENDBRANCH   4   6
BRANCH   5  13
ATOM     13  C   UNL     1     -12.113  -7.289  -0.536  0.00  0.00    +0.051 A 
ATOM     14  C   UNL     1     -12.670  -7.839  -1.683  0.00  0.00    +0.026 A 
ATOM     15  C   UNL     1     -12.974  -9.186  -1.723  0.00  0.00    +0.002 A 
ATOM     16  C   UNL     1     -12.724  -9.986  -0.623  0.00  0.00    +0.000 A 
ATOM     17  C   UNL     1     -12.169  -9.441   0.520  0.00  0.00    +0.002 A 
ATOM     18  C   UNL     1     -11.857  -8.096   0.564  0.00  0.00    +0.026 A 
ENDBRANCH   5  13
BRANCH   1  19
ATOM     19  S   UNL     1      -9.027  -6.220  -0.281  0.00  0.00    -0.076 S 
BRANCH  19  20
ATOM     20  C   UNL     1      -7.790  -4.899  -0.166  0.00  0.00    +0.173 C 
BRANCH  20  22
ATOM     21  N   UNL     1      -5.331  -4.710   0.027  0.00  0.00    -0.284 N 
ATOM     22  C   UNL     1      -6.414  -5.506  -0.069  0.00  0.00    +0.228 C 
ATOM     23  O   UNL     1      -6.282  -6.712  -0.076  0.00  0.00    -0.275 OA
ATOM     24  H   UNL     1      -5.441  -3.750   0.114  0.00  0.00    +0.155 HD
BRANCH  21  30
ATOM     25  C   UNL     1      -2.977  -4.592   0.589  0.00  0.00    +0.029 A 
ATOM     26  C   UNL     1      -1.708  -5.154   0.564  0.00  0.00    +0.016 A 
ATOM     27  C   UNL     1      -1.506  -6.378  -0.046  0.00  0.00    +0.001 A 
ATOM     28  C   UNL     1      -2.565  -7.045  -0.633  0.00  0.00    +0.002 A 
ATOM     29  C   UNL     1      -3.832  -6.493  -0.614  0.00  0.00    +0.024 A 
ATOM     30  C   UNL     1      -4.046  -5.269   0.001  0.00  0.00    +0.047 A 
BRANCH  25  31
ATOM     31  S   UNL     1      -3.238  -3.033   1.367  0.00  0.00    -0.123 S 
BRANCH  31  32
ATOM     32  C   UNL     1      -1.592  -2.561   1.968  0.00  0.00    +0.074 C 
BRANCH  32  33
ATOM     33  C   UNL     1      -1.676  -1.206   2.674  0.00  0.00    +0.011 C 
BRANCH  33  35
ATOM     34  C   UNL     1      -0.372   0.546   3.886  0.00  0.00    +0.004 C 
ATOM     35  C   UNL     1      -0.289  -0.809   3.180  0.00  0.00    -0.003 C 
ENDBRANCH  33  35
ENDBRANCH  32  33
ENDBRANCH  31  32
ENDBRANCH  25  31
ENDBRANCH  21  30
ENDBRANCH  20  22
ENDBRANCH  19  20
ENDBRANCH   1  19
TORSDOF 10
