REMARK  Name = ZINC35570616
REMARK  7 active torsions:
REMARK  status: ('A' for Active; 'I' for Inactive)
REMARK    1  A    between atoms: C_4  and  C_7
REMARK    2  A    between atoms: C_7  and  C_9
REMARK    3  A    between atoms: C_11  and  C_23
REMARK    4  A    between atoms: C_17  and  C_18
REMARK    5  A    between atoms: C_17  and  O_22
REMARK    6  A    between atoms: C_26  and  O_32
REMARK    7  A    between atoms: C_27  and  N_29
REMARK                            x       y       z     vdW  Elec       q    Type
REMARK                         _______ _______ _______ _____ _____    ______ ____
ROOT
ATOM      1  C   UNL     1       3.667  -2.623   0.365  0.00  0.00    +0.144 C 
ATOM      2  C   UNL     1       5.072  -2.848   0.935  0.00  0.00    +0.117 C 
ATOM      3  N   UNL     1       6.031  -2.035   0.187  0.00  0.00    -0.319 N 
ATOM      4  C   UNL     1       5.822  -1.717  -1.100  0.00  0.00    +0.133 C 
ATOM      5  S   UNL     1       6.996  -0.774  -1.915  0.00  0.00    -0.019 S 
ATOM      6  N   UNL     1       4.730  -2.109  -1.773  0.00  0.00    -0.291 N 
ATOM      7  C   UNL     1       3.692  -2.928  -1.137  0.00  0.00    +0.241 C 
ATOM      8  H   UNL     1       6.833  -1.718   0.630  0.00  0.00    +0.148 HD
ATOM      9  H   UNL     1       4.623  -1.845  -2.700  0.00  0.00    +0.151 HD
ENDROOT
BRANCH   2  10
ATOM     10  C   UNL     1       5.095  -2.448   2.388  0.00  0.00    -0.024 A 
ATOM     11  C   UNL     1       5.299  -1.126   2.736  0.00  0.00    +0.009 A 
ATOM     12  C   UNL     1       5.321  -0.756   4.067  0.00  0.00    +0.048 A 
ATOM     13  C   UNL     1       5.138  -1.714   5.055  0.00  0.00    +0.147 A 
ATOM     14  C   UNL     1       4.934  -3.040   4.703  0.00  0.00    +0.168 A 
ATOM     15  C   UNL     1       4.908  -3.403   3.370  0.00  0.00    +0.042 A 
BRANCH  14  16
ATOM     16  N   UNL     1       4.739  -4.063   5.754  0.00  0.00    +0.060 N 
ATOM     17  O   UNL     1       4.561  -5.219   5.446  0.00  0.00    -0.126 OA
ATOM     18  O   UNL     1       4.758  -3.744   6.920  0.00  0.00    -0.126 OA
ENDBRANCH  14  16
BRANCH  13  19
ATOM     19  O   UNL     1       5.160  -1.353   6.365  0.00  0.00    -0.504 OA
ATOM     20  H   UNL     1       4.295  -1.107   6.720  0.00  0.00    +0.292 HD
ENDBRANCH  13  19
ENDBRANCH   2  10
BRANCH   7  21
ATOM     21  C   UNL     1       2.328  -2.601  -1.747  0.00  0.00    +0.436 C 
ATOM     22  F   UNL     1       2.101  -1.223  -1.672  0.00  0.00    -0.166 F 
ATOM     23  F   UNL     1       2.307  -3.004  -3.087  0.00  0.00    -0.166 F 
ATOM     24  F   UNL     1       1.326  -3.277  -1.042  0.00  0.00    -0.166 F 
ENDBRANCH   7  21
BRANCH   1  25
ATOM     25  C   UNL     1       3.257  -1.189   0.583  0.00  0.00    +0.173 C 
ATOM     26  O   UNL     1       3.865  -0.294   0.034  0.00  0.00    -0.292 OA
BRANCH  25  30
ATOM     27  C   UNL     1      -0.024  -0.283   3.114  0.00  0.00    +0.000 A 
ATOM     28  C   UNL     1       0.738   0.742   2.581  0.00  0.00    +0.001 A 
ATOM     29  C   UNL     1       1.806   0.456   1.757  0.00  0.00    +0.011 A 
ATOM     30  C   UNL     1       2.119  -0.875   1.461  0.00  0.00    +0.018 A 
ATOM     31  C   UNL     1       1.345  -1.905   2.004  0.00  0.00    +0.011 A 
ATOM     32  C   UNL     1       0.279  -1.603   2.825  0.00  0.00    +0.001 A 
ENDBRANCH  25  30
ENDBRANCH   1  25
BRANCH   7  33
ATOM     33  O   UNL     1       3.986  -4.312  -1.338  0.00  0.00    -0.364 OA
ATOM     34  H   UNL     1       4.018  -4.577  -2.267  0.00  0.00    +0.212 HD
ENDBRANCH   7  33
TORSDOF 7
