REMARK  Name = ZINC40119160
REMARK  8 active torsions:
REMARK  status: ('A' for Active; 'I' for Inactive)
REMARK    1  A    between atoms: C_1  and  C_2
REMARK    2  A    between atoms: C_3  and  C_26
REMARK    3  A    between atoms: C_7  and  S_12
REMARK    4  A    between atoms: C_10  and  C_11
REMARK    5  A    between atoms: S_12  and  C_13
REMARK    6  A    between atoms: C_13  and  C_14
REMARK    7  A    between atoms: N_19  and  S_22
REMARK    8  A    between atoms: S_22  and  C_25
REMARK                            x       y       z     vdW  Elec       q    Type
REMARK                         _______ _______ _______ _____ _____    ______ ____
ROOT
ATOM      1  S   UNL     1       0.090  -5.781   2.304  0.00  0.00    -0.075 S 
ENDROOT
BRANCH   1   8
ATOM      2  C   UNL     1      -0.018   1.503   0.010  0.00  0.00    +0.047 C 
ATOM      3  C   UNL     1       0.002  -0.004   0.002  0.00  0.00    -0.008 A 
ATOM      4  C   UNL     1       0.006  -0.705  -1.209  0.00  0.00    +0.047 A 
ATOM      5  N   UNL     1       0.024  -2.019  -1.214  0.00  0.00    -0.216 NA
ATOM      6  C   UNL     1       0.038  -2.710  -0.068  0.00  0.00    +0.254 A 
ATOM      7  N   UNL     1       0.057  -4.013   0.191  0.00  0.00    -0.183 NA
ATOM      8  C   UNL     1       0.066  -4.209   1.508  0.00  0.00    +0.211 A 
ATOM      9  N   UNL     1       0.053  -3.044   2.124  0.00  0.00    -0.137 NA
ATOM     10  N   UNL     1       0.035  -2.055   1.131  0.00  0.00    -0.200 N 
ATOM     11  C   UNL     1       0.023  -0.698   1.170  0.00  0.00    +0.048 A 
ATOM     12  C   UNL     1       0.025   0.029   2.490  0.00  0.00    +0.066 C 
ATOM     13  C   UNL     1      -0.011   0.050  -2.513  0.00  0.00    +0.066 C 
ENDBRANCH   1   8
BRANCH   1  14
ATOM     14  C   UNL     1       0.100  -6.967   0.931  0.00  0.00    +0.173 C 
BRANCH  14  15
ATOM     15  C   UNL     1       0.121  -8.370   1.480  0.00  0.00    +0.226 C 
ATOM     16  O   UNL     1       0.128  -8.552   2.679  0.00  0.00    -0.275 OA
ATOM     17  N   UNL     1       0.131  -9.423   0.639  0.00  0.00    -0.298 N 
ATOM     18  C   UNL     1       0.128  -9.217  -0.816  0.00  0.00    +0.125 C 
ATOM     19  C   UNL     1       1.329  -9.957  -1.418  0.00  0.00    +0.128 C 
ATOM     20  N   UNL     1       1.344 -11.331  -0.897  0.00  0.00    -0.178 NA
ATOM     21  C   UNL     1       1.347 -11.537   0.558  0.00  0.00    +0.128 C 
ATOM     22  C   UNL     1       0.151 -10.797   1.160  0.00  0.00    +0.125 C 
BRANCH  20  23
ATOM     23  S   UNL     1       1.356 -12.625  -1.931  0.00  0.00    +0.029 S 
ATOM     24  O   UNL     1       0.765 -13.685  -1.192  0.00  0.00    -0.158 OA
ATOM     25  O   UNL     1       0.748 -12.144  -3.121  0.00  0.00    -0.158 OA
ATOM     26  C   UNL     1       3.113 -12.971  -2.223  0.00  0.00    +0.215 C 
ENDBRANCH  20  23
ENDBRANCH  14  15
ENDBRANCH   1  14
TORSDOF 4
