REMARK  Name = ZINC63952595
REMARK  7 active torsions:
REMARK  status: ('A' for Active; 'I' for Inactive)
REMARK    1  A    between atoms: C_1  and  O_2
REMARK    2  A    between atoms: O_2  and  C_3
REMARK    3  A    between atoms: C_6  and  C_9
REMARK    4  A    between atoms: N_13  and  N_30
REMARK    5  A    between atoms: N_17  and  C_18
REMARK    6  A    between atoms: C_18  and  C_19
REMARK    7  A    between atoms: C_19  and  C_20
REMARK                            x       y       z     vdW  Elec       q    Type
REMARK                         _______ _______ _______ _____ _____    ______ ____
ROOT
ATOM      1  C   UNL     1      -4.981  -2.629   0.035  0.00  0.00    +0.190 C 
ATOM      2  C   UNL     1      -5.301  -3.074   1.436  0.00  0.00    +0.259 C 
ATOM      3  O   UNL     1      -5.013  -2.353   2.368  0.00  0.00    -0.272 OA
ATOM      4  N   UNL     1      -5.899  -4.255   1.677  0.00  0.00    -0.176 N 
ATOM      5  C   UNL     1      -6.183  -5.104   0.618  0.00  0.00    +0.191 C 
ATOM      6  N   UNL     1      -6.015  -4.600  -0.660  0.00  0.00    -0.252 N 
ATOM      7  N   UNL     1      -4.926  -3.790  -0.864  0.00  0.00    -0.224 NA
ATOM      8  N   UNL     1      -6.591  -6.324   0.817  0.00  0.00    -0.358 N 
ATOM      9  H   UNL     1      -4.871  -3.498  -1.829  0.00  0.00    +0.145 HD
ATOM     10  H   UNL     1      -6.636  -4.810  -1.375  0.00  0.00    +0.169 HD
ATOM     11  H   UNL     1      -6.703  -6.657   1.722  0.00  0.00    +0.162 HD
ENDROOT
BRANCH   1  15
ATOM     12  C   UNL     1      -1.200  -0.637   0.010  0.00  0.00    +0.120 A 
ATOM     13  C   UNL     1      -2.375   0.101   0.019  0.00  0.00    +0.046 A 
ATOM     14  C   UNL     1      -3.596  -0.545   0.027  0.00  0.00    +0.009 A 
ATOM     15  C   UNL     1      -3.648  -1.927   0.026  0.00  0.00    -0.020 A 
ATOM     16  C   UNL     1      -2.479  -2.665   0.017  0.00  0.00    +0.009 A 
ATOM     17  C   UNL     1      -1.255  -2.024   0.003  0.00  0.00    +0.046 A 
BRANCH  12  19
ATOM     18  C   UNL     1      -0.017   1.425   0.010  0.00  0.00    +0.277 C 
ATOM     19  O   UNL     1       0.002  -0.004   0.002  0.00  0.00    -0.495 OA
ENDBRANCH  12  19
ENDBRANCH   1  15
BRANCH   4  20
ATOM     20  N   UNL     1      -6.224  -4.614   2.955  0.00  0.00    -0.245 NA
ATOM     21  H   UNL     1      -5.955  -3.897   3.612  0.00  0.00    +0.141 HD
ATOM     22  H   UNL     1      -7.207  -4.825   3.032  0.00  0.00    +0.141 HD
ENDBRANCH   4  20
BRANCH   8  23
ATOM     23  C   UNL     1      -6.883  -7.195  -0.324  0.00  0.00    +0.119 C 
BRANCH  23  24
ATOM     24  C   UNL     1      -7.341  -8.564   0.182  0.00  0.00    +0.054 C 
BRANCH  24  25
ATOM     25  C   UNL     1      -7.641  -9.460  -0.992  0.00  0.00    -0.040 C 
ATOM     26  C   UNL     1      -6.806 -10.358  -1.563  0.00  0.00    +0.000 A 
ATOM     27  C   UNL     1      -5.423 -10.755  -1.273  0.00  0.00    +0.030 A 
ATOM     28  C   UNL     1      -4.839 -11.706  -2.039  0.00  0.00    +0.042 A 
ATOM     29  C   UNL     1      -5.521 -12.320  -3.099  0.00  0.00    +0.022 A 
ATOM     30  C   UNL     1      -6.793 -12.008  -3.426  0.00  0.00    +0.027 A 
ATOM     31  C   UNL     1      -7.504 -11.022  -2.688  0.00  0.00    +0.043 A 
ATOM     32  N   UNL     1      -8.722 -10.553  -2.807  0.00  0.00    -0.380 N 
ATOM     33  C   UNL     1      -8.937  -9.541  -1.766  0.00  0.00    +0.144 C 
ATOM     34 CL   UNL     1      -3.203 -12.177  -1.699  0.00  0.00    -0.084 Cl
ATOM     35  H   UNL     1      -9.373 -10.830  -3.470  0.00  0.00    +0.160 HD
ENDBRANCH  24  25
ENDBRANCH  23  24
ENDBRANCH   8  23
TORSDOF 6
