REMARK  Name = ZINC02784388
REMARK  13 active torsions:
REMARK  status: ('A' for Active; 'I' for Inactive)
REMARK    1  A    between atoms: C_1  and  C_2
REMARK    2  A    between atoms: C_2  and  N_3
REMARK    3  A    between atoms: C_4  and  C_28
REMARK    4  A    between atoms: C_7  and  S_8
REMARK    5  A    between atoms: S_8  and  C_9
REMARK    6  A    between atoms: C_9  and  C_10
REMARK    7  A    between atoms: N_12  and  C_13
REMARK    8  A    between atoms: C_14  and  C_22
REMARK    9  A    between atoms: C_22  and  O_24
REMARK   10  A    between atoms: O_24  and  C_25
REMARK   11  A    between atoms: C_25  and  C_26
REMARK   12  A    between atoms: C_25  and  C_27
REMARK   13  A    between atoms: N_31  and  C_33
REMARK                            x       y       z     vdW  Elec       q    Type
REMARK                         _______ _______ _______ _____ _____    ______ ____
ROOT
ATOM      1  C   UNL     1       8.685   1.133  -0.074  0.00  0.00    +0.228 C 
ATOM      2  O   UNL     1       9.173   2.243  -0.072  0.00  0.00    -0.275 OA
ATOM      3  N   UNL     1       9.481   0.046  -0.087  0.00  0.00    -0.279 N 
ATOM      4  H   UNL     1       9.091  -0.842  -0.088  0.00  0.00    +0.155 HD
ENDROOT
BRANCH   3   5
ATOM      5  C   UNL     1      10.859   0.197  -0.099  0.00  0.00    +0.086 A 
ATOM      6  C   UNL     1      11.835  -0.791  -0.108  0.00  0.00    +0.091 A 
ATOM      7  C   UNL     1      13.224  -0.362  -0.124  0.00  0.00    -0.021 A 
ATOM      8  C   UNL     1      13.413   0.975  -0.118  0.00  0.00    -0.004 A 
ATOM      9  S   UNL     1      11.782   1.663  -0.099  0.00  0.00    -0.077 S 
ATOM     10  C   UNL     1      14.722   1.702  -0.125  0.00  0.00    +0.043 C 
ATOM     11  C   UNL     1      15.832   0.705   0.238  0.00  0.00    +0.005 C 
ATOM     12  C   UNL     1      15.651  -0.561  -0.605  0.00  0.00    +0.005 C 
ATOM     13  C   UNL     1      14.407  -1.322  -0.141  0.00  0.00    +0.037 C 
BRANCH   6  14
ATOM     14  C   UNL     1      11.479  -2.211  -0.104  0.00  0.00    +0.342 C 
ATOM     15  O   UNL     1      11.322  -2.801  -1.156  0.00  0.00    -0.245 OA
BRANCH  14  16
ATOM     16  O   UNL     1      11.325  -2.865   1.065  0.00  0.00    -0.458 OA
BRANCH  16  17
ATOM     17  C   UNL     1      10.972  -4.272   0.993  0.00  0.00    +0.171 C 
ATOM     18  C   UNL     1      12.247  -5.117   0.955  0.00  0.00    +0.052 C 
ATOM     19  C   UNL     1      10.143  -4.653   2.221  0.00  0.00    +0.052 C 
ENDBRANCH  16  17
ENDBRANCH  14  16
ENDBRANCH   6  14
ENDBRANCH   3   5
BRANCH   1  20
ATOM     20  C   UNL     1       7.187   0.969  -0.060  0.00  0.00    +0.173 C 
BRANCH  20  21
ATOM     21  S   UNL     1       6.401   2.599  -0.044  0.00  0.00    -0.077 S 
BRANCH  21  26
ATOM     22  N   UNL     1       3.627   2.961  -0.022  0.00  0.00    -0.301 N 
ATOM     23  C   UNL     1       2.521   2.144  -0.011  0.00  0.00    +0.186 A 
ATOM     24  N   UNL     1       2.957   0.906  -0.022  0.00  0.00    -0.127 NA
ATOM     25  N   UNL     1       4.241   0.893  -0.034  0.00  0.00    -0.122 NA
ATOM     26  C   UNL     1       4.705   2.122  -0.031  0.00  0.00    +0.192 A 
BRANCH  23  27
ATOM     27  C   UNL     1       1.107   2.578   0.005  0.00  0.00    +0.148 A 
ATOM     28  C   UNL     1      -0.021   1.732   0.012  0.00  0.00    +0.089 A 
ATOM     29  C   UNL     1      -1.124   2.513   0.020  0.00  0.00    +0.128 A 
ATOM     30  N   UNL     1      -0.722   3.803   0.029  0.00  0.00    -0.272 N 
ATOM     31  N   UNL     1       0.678   3.825   0.016  0.00  0.00    -0.167 NA
ATOM     32  C   UNL     1      -1.599   4.976   0.045  0.00  0.00    +0.172 C 
ATOM     33 CL   UNL     1       0.002  -0.004   0.002  0.00  0.00    -0.080 Cl
ENDBRANCH  23  27
BRANCH  22  35
ATOM     34  C   UNL     1       3.667   4.936   1.420  0.00  0.00    +0.027 C 
ATOM     35  C   UNL     1       3.645   4.426  -0.022  0.00  0.00    +0.122 C 
ENDBRANCH  22  35
ENDBRANCH  21  26
ENDBRANCH  20  21
ENDBRANCH   1  20
TORSDOF 9
