REMARK  Name = ZINC62006665
REMARK  14 active torsions:
REMARK  status: ('A' for Active; 'I' for Inactive)
REMARK    1  A    between atoms: C_1  and  C_2
REMARK    2  A    between atoms: C_2  and  N_3
REMARK    3  A    between atoms: N_3  and  C_4
REMARK    4  A    between atoms: N_3  and  C_6
REMARK    5  A    between atoms: C_4  and  C_5
REMARK    6  A    between atoms: C_9  and  N_13
REMARK    7  A    between atoms: C_10  and  C_12
REMARK    8  A    between atoms: C_14  and  C_16
REMARK    9  A    between atoms: C_16  and  N_17
REMARK   10  A    between atoms: C_18  and  C_35
REMARK   11  A    between atoms: C_20  and  C_34
REMARK   12  A    between atoms: C_21  and  S_24
REMARK   13  A    between atoms: S_24  and  C_27
REMARK   14  A    between atoms: C_30  and  C_33
REMARK                            x       y       z     vdW  Elec       q    Type
REMARK                         _______ _______ _______ _____ _____    ______ ____
ROOT
ATOM      1  N   UNL     1       0.679  -9.264  -0.135  0.00  0.00    -0.302 N 
ATOM      2  C   UNL     1      -0.260  -9.695   0.745  0.00  0.00    +0.020 A 
ATOM      3  C   UNL     1       0.097 -10.370   1.863  0.00  0.00    +0.026 A 
ATOM      4  C   UNL     1       1.451 -10.630   2.120  0.00  0.00    -0.018 A 
ATOM      5  C   UNL     1       2.393 -10.196   1.235  0.00  0.00    +0.161 A 
ATOM      6  C   UNL     1       1.987  -9.503   0.082  0.00  0.00    +0.278 A 
ATOM      7  O   UNL     1       2.820  -9.113  -0.721  0.00  0.00    -0.266 OA
ATOM      8  C   UNL     1       1.859 -11.380   3.362  0.00  0.00    +0.046 C 
ATOM      9  C   UNL     1      -1.717  -9.420   0.475  0.00  0.00    +0.063 C 
ENDROOT
BRANCH   5  10
ATOM     10  S   UNL     1       4.102 -10.507   1.531  0.00  0.00    +0.030 S 
ATOM     11  O   UNL     1       4.778  -9.270   1.348  0.00  0.00    -0.164 OA
ATOM     12  O   UNL     1       4.177 -11.244   2.743  0.00  0.00    -0.164 OA
BRANCH  10  13
ATOM     13  C   UNL     1       4.665 -11.581   0.253  0.00  0.00    +0.094 A 
ATOM     14  C   UNL     1       4.592 -12.952   0.419  0.00  0.00    +0.027 A 
ATOM     15  C   UNL     1       5.034 -13.794  -0.584  0.00  0.00    +0.005 A 
ATOM     16  C   UNL     1       5.548 -13.267  -1.753  0.00  0.00    -0.050 A 
ATOM     17  C   UNL     1       5.620 -11.896  -1.920  0.00  0.00    +0.005 A 
ATOM     18  C   UNL     1       5.175 -11.054  -0.919  0.00  0.00    +0.027 A 
ATOM     19  C   UNL     1       6.030 -14.186  -2.846  0.00  0.00    +0.044 C 
ENDBRANCH  10  13
ENDBRANCH   5  10
BRANCH   1  20
ATOM     20  C   UNL     1       0.266  -8.536  -1.337  0.00  0.00    +0.221 C 
BRANCH  20  22
ATOM     21  N   UNL     1      -0.008  -6.181  -2.043  0.00  0.00    -0.284 N 
ATOM     22  C   UNL     1       0.330  -7.054  -1.073  0.00  0.00    +0.237 C 
ATOM     23  O   UNL     1       0.686  -6.646   0.012  0.00  0.00    -0.274 OA
ATOM     24  H   UNL     1      -0.358  -6.506  -2.887  0.00  0.00    +0.155 HD
BRANCH  21  28
ATOM     25  C   UNL     1       0.450  -2.088  -1.415  0.00  0.00    +0.014 A 
ATOM     26  C   UNL     1       0.258  -2.934  -0.338  0.00  0.00    +0.023 A 
ATOM     27  C   UNL     1       0.106  -4.292  -0.543  0.00  0.00    +0.025 A 
ATOM     28  C   UNL     1       0.145  -4.806  -1.832  0.00  0.00    +0.036 A 
ATOM     29  C   UNL     1       0.337  -3.954  -2.912  0.00  0.00    -0.028 A 
ATOM     30  C   UNL     1       0.483  -2.597  -2.700  0.00  0.00    +0.026 A 
ATOM     31  C   UNL     1       0.379  -4.509  -4.312  0.00  0.00    +0.046 C 
BRANCH  25  32
ATOM     32  N   UNL     1       0.603  -0.715  -1.204  0.00  0.00    -0.394 NA
ATOM     33  H   UNL     1       0.727  -0.250  -2.092  0.00  0.00    +0.126 HD
BRANCH  32  35
ATOM     34  C   UNL     1      -1.800  -0.325  -1.468  0.00  0.00    +0.022 C 
ATOM     35  C   UNL     1      -0.594  -0.185  -0.537  0.00  0.00    +0.081 C 
ENDBRANCH  32  35
BRANCH  32  36
ATOM     36  C   UNL     1       1.781  -0.478  -0.359  0.00  0.00    +0.081 C 
ATOM     37  C   UNL     1       3.041  -0.927  -1.101  0.00  0.00    +0.022 C 
ENDBRANCH  32  36
ENDBRANCH  25  32
ENDBRANCH  21  28
ENDBRANCH  20  22
ENDBRANCH   1  20
TORSDOF 8
