REMARK  Name = ZINC08925845
REMARK  7 active torsions:
REMARK  status: ('A' for Active; 'I' for Inactive)
REMARK    1  A    between atoms: C_1  and  C_2
REMARK    2  A    between atoms: C_3  and  C_14
REMARK    3  A    between atoms: C_4  and  C_7
REMARK    4  A    between atoms: N_16  and  N_17
REMARK    5  A    between atoms: C_18  and  C_20
REMARK    6  A    between atoms: N_23  and  C_26
REMARK    7  A    between atoms: C_26  and  C_27
REMARK                            x       y       z     vdW  Elec       q    Type
REMARK                         _______ _______ _______ _____ _____    ______ ____
ROOT
ATOM      1  N   UNL     1      -4.484   0.198   1.192  0.00  0.00    -0.234 N 
ATOM      2  C   UNL     1      -5.123   0.386   2.363  0.00  0.00    +0.232 C 
ATOM      3  O   UNL     1      -4.537   0.206   3.410  0.00  0.00    -0.274 OA
ATOM      4  H   UNL     1      -4.952   0.342   0.355  0.00  0.00    +0.173 HD
ENDROOT
BRANCH   2   5
ATOM      5  C   UNL     1      -6.566   0.820   2.373  0.00  0.00    +0.073 C 
ATOM      6  C   UNL     1      -6.699   2.173   1.668  0.00  0.00    -0.006 C 
ATOM      7  C   UNL     1      -8.152   2.645   1.751  0.00  0.00    -0.078 C 
ATOM      8  N   UNL     1      -8.545   2.785   3.158  0.00  0.00    +0.382 N 
ATOM      9  C   UNL     1      -8.490   1.477   3.822  0.00  0.00    -0.078 C 
ATOM     10  C   UNL     1      -7.050   0.960   3.819  0.00  0.00    -0.006 C 
ATOM     11  H   UNL     1      -7.916   3.423   3.620  0.00  0.00    -0.081 HD
BRANCH   8  12
ATOM     12  C   UNL     1      -9.914   3.312   3.232  0.00  0.00    -0.043 C 
BRANCH  12  13
ATOM     13  C   UNL     1     -10.275   3.572   4.672  0.00  0.00    -0.064 A 
ATOM     14  C   UNL     1     -10.861   2.573   5.428  0.00  0.00    +0.002 A 
ATOM     15  C   UNL     1     -11.192   2.811   6.749  0.00  0.00    +0.000 A 
ATOM     16  C   UNL     1     -10.938   4.047   7.314  0.00  0.00    +0.000 A 
ATOM     17  C   UNL     1     -10.351   5.045   6.558  0.00  0.00    +0.000 A 
ATOM     18  C   UNL     1     -10.016   4.806   5.238  0.00  0.00    +0.002 A 
ENDBRANCH  12  13
ENDBRANCH   8  12
ENDBRANCH   2   5
BRANCH   1  21
ATOM     19  C   UNL     1      -2.503  -0.394   0.012  0.00  0.00    +0.266 C 
ATOM     20  O   UNL     1      -3.090  -0.213  -1.038  0.00  0.00    -0.268 OA
ATOM     21  N   UNL     1      -3.142  -0.206   1.183  0.00  0.00    -0.230 N 
ATOM     22  H   UNL     1      -2.674  -0.350   2.020  0.00  0.00    +0.173 HD
BRANCH  19  25
ATOM     23  C   UNL     1      -0.018   1.503   0.010  0.00  0.00    +0.090 C 
ATOM     24  C   UNL     1       0.002  -0.004   0.002  0.00  0.00    +0.147 A 
ATOM     25  C   UNL     1      -1.092  -0.818   0.003  0.00  0.00    +0.107 A 
ATOM     26  C   UNL     1      -0.593  -2.201  -0.007  0.00  0.00    +0.127 A 
ATOM     27  N   UNL     1       0.715  -2.133  -0.013  0.00  0.00    -0.077 NA
ATOM     28  O   UNL     1       1.095  -0.772  -0.013  0.00  0.00    -0.359 OA
BRANCH  26  29
ATOM     29  C   UNL     1      -1.413  -3.437  -0.010  0.00  0.00    +0.023 A 
ATOM     30  C   UNL     1      -2.804  -3.353  -0.008  0.00  0.00    +0.011 A 
ATOM     31  C   UNL     1      -3.562  -4.506  -0.010  0.00  0.00    +0.001 A 
ATOM     32  C   UNL     1      -2.944  -5.744  -0.014  0.00  0.00    +0.001 A 
ATOM     33  C   UNL     1      -1.565  -5.834  -0.015  0.00  0.00    +0.020 A 
ATOM     34  C   UNL     1      -0.795  -4.687  -0.019  0.00  0.00    +0.050 A 
ATOM     35 CL   UNL     1       0.937  -4.802  -0.029  0.00  0.00    -0.083 Cl
ENDBRANCH  26  29
ENDBRANCH  19  25
ENDBRANCH   1  21
TORSDOF 6
