REMARK  Name = ZINC34676568
REMARK  4 active torsions:
REMARK  status: ('A' for Active; 'I' for Inactive)
REMARK    1  A    between atoms: C_1  and  C_2
REMARK    2  A    between atoms: C_5  and  N_9
REMARK    3  A    between atoms: C_7  and  C_8
REMARK    4  A    between atoms: C_19  and  N_21
REMARK                            x       y       z     vdW  Elec       q    Type
REMARK                         _______ _______ _______ _____ _____    ______ ____
ROOT
ATOM      1  N   UNL     1       0.069  -4.170  -0.020  0.00  0.00    -0.327 N 
ATOM      2  C   UNL     1       0.186  -4.923   1.236  0.00  0.00    +0.124 C 
ATOM      3  C   UNL     1      -0.993  -5.899   1.334  0.00  0.00    +0.127 C 
ATOM      4  N   UNL     1      -1.094  -6.642   0.070  0.00  0.00    -0.297 N 
ATOM      5  C   UNL     1      -1.211  -5.888  -1.187  0.00  0.00    +0.127 C 
ATOM      6  C   UNL     1      -0.038  -4.912  -1.284  0.00  0.00    +0.124 C 
ATOM      7  C   UNL     1      -1.078  -8.026   0.062  0.00  0.00    +0.220 A 
ATOM      8  N   UNL     1      -0.977  -8.677   1.211  0.00  0.00    -0.219 NA
ATOM      9  C   UNL     1      -0.960 -10.004   1.245  0.00  0.00    +0.048 A 
ATOM     10  C   UNL     1      -1.051 -10.708   0.067  0.00  0.00    -0.003 A 
ATOM     11  C   UNL     1      -1.155  -9.995  -1.132  0.00  0.00    +0.128 A 
ATOM     12  N   UNL     1      -1.171  -8.667  -1.093  0.00  0.00    -0.199 NA
ATOM     13  C   UNL     1      -1.046 -12.211   0.034  0.00  0.00    -0.041 C 
ATOM     14  N   UNL     1      -0.505 -12.750   1.286  0.00  0.00    +0.382 N 
ATOM     15  C   UNL     1      -1.246 -12.172   2.417  0.00  0.00    -0.076 C 
ATOM     16  C   UNL     1      -0.839 -10.706   2.572  0.00  0.00    +0.037 C 
ATOM     17  H   UNL     1      -0.608 -13.754   1.292  0.00  0.00    -0.085 HD
ATOM     18  H   UNL     1       0.471 -12.510   1.363  0.00  0.00    -0.085 HD
ENDROOT
BRANCH   1  23
ATOM     19  C   UNL     1       0.004   1.501   0.010  0.00  0.00    +0.044 C 
ATOM     20  C   UNL     1       0.021  -0.006   0.002  0.00  0.00    -0.047 A 
ATOM     21  C   UNL     1       0.042  -0.690  -1.200  0.00  0.00    +0.005 A 
ATOM     22  C   UNL     1       0.058  -2.070  -1.212  0.00  0.00    +0.023 A 
ATOM     23  C   UNL     1       0.053  -2.773  -0.013  0.00  0.00    +0.030 A 
ATOM     24  C   UNL     1       0.032  -2.084   1.193  0.00  0.00    +0.026 A 
ATOM     25  C   UNL     1       0.022  -0.702   1.196  0.00  0.00    -0.046 A 
ATOM     26  C   UNL     1       0.006   0.046   2.504  0.00  0.00    +0.044 C 
ENDBRANCH   1  23
BRANCH  11  27
ATOM     27  N   UNL     1      -1.246 -10.664  -2.342  0.00  0.00    -0.311 N 
ATOM     28  C   UNL     1      -2.553 -10.944  -2.956  0.00  0.00    +0.134 C 
ATOM     29  C   UNL     1      -2.514 -10.470  -4.413  0.00  0.00    +0.178 C 
ATOM     30  O   UNL     1      -1.373 -11.037  -5.062  0.00  0.00    -0.377 OA
ATOM     31  C   UNL     1      -0.121 -10.632  -4.503  0.00  0.00    +0.178 C 
ATOM     32  C   UNL     1      -0.037 -11.110  -3.053  0.00  0.00    +0.134 C 
ENDBRANCH  11  27
TORSDOF 2
