REMARK  Name = ZINC67236281
REMARK  8 active torsions:
REMARK  status: ('A' for Active; 'I' for Inactive)
REMARK    1  A    between atoms: C_1  and  C_2
REMARK    2  A    between atoms: C_2  and  C_3
REMARK    3  A    between atoms: C_10  and  C_12
REMARK    4  A    between atoms: C_12  and  S_13
REMARK    5  A    between atoms: S_13  and  C_14
REMARK    6  A    between atoms: C_18  and  C_31
REMARK    7  A    between atoms: N_24  and  C_25
REMARK    8  A    between atoms: C_25  and  C_26
REMARK                            x       y       z     vdW  Elec       q    Type
REMARK                         _______ _______ _______ _____ _____    ______ ____
ROOT
ATOM      1  C   UNL     1      -2.084   2.263  -5.913  0.00  0.00    +0.173 A 
ATOM      2  N   UNL     1      -3.267   1.707  -6.027  0.00  0.00    -0.221 NA
ATOM      3  C   UNL     1      -4.036   1.929  -7.111  0.00  0.00    +0.097 A 
ATOM      4  C   UNL     1      -5.316   1.487  -7.509  0.00  0.00    +0.051 A 
ATOM      5  C   UNL     1      -5.590   2.036  -8.710  0.00  0.00    +0.016 A 
ATOM      6  N   UNL     1      -4.543   2.812  -9.104  0.00  0.00    -0.353 N 
ATOM      7  H   UNL     1      -4.492   3.315  -9.931  0.00  0.00    +0.166 HD
ATOM      8  C   UNL     1      -3.566   2.764  -8.132  0.00  0.00    +0.131 A 
ATOM      9  C   UNL     1      -2.294   3.351  -7.994  0.00  0.00    +0.279 A 
ATOM     10  O   UNL     1      -1.849   4.085  -8.860  0.00  0.00    -0.265 OA
ATOM     11  N   UNL     1      -1.581   3.090  -6.877  0.00  0.00    -0.279 N 
ATOM     12  C   UNL     1      -6.858   1.822  -9.496  0.00  0.00    +0.063 C 
ENDROOT
BRANCH   1  13
ATOM     13  S   UNL     1      -1.120   1.939  -4.474  0.00  0.00    -0.078 S 
BRANCH  13  14
ATOM     14  C   UNL     1      -2.157   0.820  -3.494  0.00  0.00    +0.173 C 
BRANCH  14  21
ATOM     15  C   UNL     1      -1.393  -0.635  -0.028  0.00  0.00    +0.076 C 
ATOM     16  C   UNL     1      -1.260  -2.150   0.157  0.00  0.00    +0.022 C 
ATOM     17  C   UNL     1      -2.632  -2.804  -0.022  0.00  0.00    +0.003 C 
ATOM     18  C   UNL     1      -3.148  -2.533  -1.437  0.00  0.00    +0.019 C 
ATOM     19  C   UNL     1      -3.302  -1.023  -1.640  0.00  0.00    +0.108 C 
ATOM     20  N   UNL     1      -2.024  -0.368  -1.328  0.00  0.00    -0.298 N 
ATOM     21  C   UNL     1      -1.440   0.459  -2.218  0.00  0.00    +0.226 C 
ATOM     22  O   UNL     1      -0.339   0.913  -1.992  0.00  0.00    -0.275 OA
BRANCH  15  24
ATOM     23  C   UNL     1       0.649  -0.269   1.365  0.00  0.00    +0.006 C 
ATOM     24  C   UNL     1      -0.006   0.011   0.010  0.00  0.00    +0.019 C 
ENDBRANCH  15  24
ENDBRANCH  14  21
ENDBRANCH  13  14
ENDBRANCH   1  13
BRANCH  11  25
ATOM     25  C   UNL     1      -0.257   3.691  -6.701  0.00  0.00    +0.201 C 
BRANCH  25  26
ATOM     26  C   UNL     1       0.791   2.781  -7.289  0.00  0.00    +0.125 A 
ATOM     27  C   UNL     1       1.240   2.814  -8.557  0.00  0.00    +0.046 A 
ATOM     28  C   UNL     1       2.210   1.793  -8.674  0.00  0.00    +0.041 A 
ATOM     29  C   UNL     1       2.296   1.197  -7.471  0.00  0.00    +0.195 A 
ATOM     30  O   UNL     1       1.438   1.803  -6.635  0.00  0.00    -0.466 OA
ENDBRANCH  25  26
ENDBRANCH  11  25
TORSDOF 6
