REMARK  Name = ZINC14806502
REMARK  12 active torsions:
REMARK  status: ('A' for Active; 'I' for Inactive)
REMARK    1  A    between atoms: C_1  and  C_2
REMARK    2  A    between atoms: C_4  and  O_42
REMARK    3  A    between atoms: C_6  and  N_67
REMARK    4  A    between atoms: C_9  and  O_12
REMARK    5  A    between atoms: O_12  and  C_13
REMARK    6  A    between atoms: C_16  and  C_38
REMARK    7  A    between atoms: C_16  and  O_41
REMARK    8  A    between atoms: C_20  and  O_37
REMARK    9  A    between atoms: C_23  and  O_24
REMARK   10  A    between atoms: C_31  and  O_35
REMARK   11  A    between atoms: O_35  and  C_36
REMARK   12  A    between atoms: C_38  and  C_40
REMARK                            x       y       z     vdW  Elec       q    Type
REMARK                         _______ _______ _______ _____ _____    ______ ____
ROOT
ATOM      1  C   UNL     1      -2.248   2.633   3.434  0.00  0.00    +0.158 C 
ATOM      2  C   UNL     1      -0.780   2.246   3.277  0.00  0.00    +0.079 C 
ATOM      3  C   UNL     1      -0.684   1.131   2.229  0.00  0.00    +0.130 C 
ATOM      4  C   UNL     1      -1.292  -0.138   2.822  0.00  0.00    +0.082 C 
ATOM      5  C   UNL     1      -2.662   0.141   3.384  0.00  0.00    +0.007 A 
ATOM      6  C   UNL     1      -3.098   1.411   3.671  0.00  0.00    +0.030 A 
ATOM      7  C   UNL     1      -4.378   1.610   4.206  0.00  0.00    +0.134 A 
ATOM      8  C   UNL     1      -5.221   0.527   4.447  0.00  0.00    +0.078 A 
ATOM      9  C   UNL     1      -4.775  -0.776   4.148  0.00  0.00    +0.078 A 
ATOM     10  C   UNL     1      -3.499  -0.958   3.618  0.00  0.00    +0.132 A 
ATOM     11  C   UNL     1      -5.655  -1.931   4.395  0.00  0.00    +0.198 C 
ATOM     12  O   UNL     1      -5.271  -3.056   4.138  0.00  0.00    -0.286 OA
ATOM     13  C   UNL     1      -7.006  -1.720   4.957  0.00  0.00    +0.037 A 
ATOM     14  C   UNL     1      -7.844  -2.805   5.195  0.00  0.00    +0.012 A 
ATOM     15  C   UNL     1      -9.109  -2.601   5.721  0.00  0.00    +0.004 A 
ATOM     16  C   UNL     1      -9.550  -1.327   6.015  0.00  0.00    +0.046 A 
ATOM     17  C   UNL     1      -8.728  -0.228   5.786  0.00  0.00    +0.132 A 
ATOM     18  C   UNL     1      -7.449  -0.418   5.255  0.00  0.00    +0.075 A 
ATOM     19  C   UNL     1      -6.567   0.737   5.008  0.00  0.00    +0.202 C 
ATOM     20  O   UNL     1      -6.950   1.862   5.266  0.00  0.00    -0.286 OA
ENDROOT
BRANCH   3  21
ATOM     21  C   UNL     1      -1.446   1.530   0.992  0.00  0.00    +0.162 C 
ATOM     22  O   UNL     1      -2.584   1.158   0.838  0.00  0.00    -0.295 OA
ATOM     23  C   UNL     1      -0.788   2.394  -0.053  0.00  0.00    +0.089 C 
ENDBRANCH   3  21
BRANCH  10  24
ATOM     24  O   UNL     1      -3.063  -2.208   3.327  0.00  0.00    -0.506 OA
ATOM     25  H   UNL     1      -3.265  -2.495   2.425  0.00  0.00    +0.292 HD
ENDBRANCH  10  24
BRANCH  17  26
ATOM     26  O   UNL     1      -9.166   1.022   6.076  0.00  0.00    -0.494 OA
ATOM     27  C   UNL     1     -10.484   1.139   6.616  0.00  0.00    +0.277 C 
ENDBRANCH  17  26
BRANCH   7  28
ATOM     28  O   UNL     1      -4.799   2.867   4.491  0.00  0.00    -0.506 OA
ATOM     29  H   UNL     1      -5.183   3.334   3.736  0.00  0.00    +0.292 HD
ENDBRANCH   7  28
BRANCH   3  30
ATOM     30  O   UNL     1       0.687   0.900   1.897  0.00  0.00    -0.381 OA
ATOM     31  H   UNL     1       0.820   0.199   1.244  0.00  0.00    +0.211 HD
ENDBRANCH   3  30
BRANCH   1  32
ATOM     32  O   UNL     1      -2.385   3.524   4.543  0.00  0.00    -0.343 OA
BRANCH  32  38
ATOM     33  C   UNL     1       0.532   6.908   2.949  0.00  0.00    +0.040 C 
ATOM     34  C   UNL     1      -0.911   6.638   3.378  0.00  0.00    +0.145 C 
ATOM     35  C   UNL     1      -1.275   7.554   4.549  0.00  0.00    +0.129 C 
ATOM     36  C   UNL     1      -2.700   7.237   5.012  0.00  0.00    -0.039 C 
ATOM     37  C   UNL     1      -2.785   5.754   5.387  0.00  0.00    +0.048 C 
ATOM     38  C   UNL     1      -2.363   4.907   4.184  0.00  0.00    +0.250 C 
ATOM     39  O   UNL     1      -1.040   5.274   3.784  0.00  0.00    -0.346 OA
BRANCH  36  42
ATOM     40  H   UNL     1      -4.594   7.316   4.208  0.00  0.00    -0.090 HD
ATOM     41  H   UNL     1      -3.564   8.482   3.619  0.00  0.00    -0.090 HD
ATOM     42  N   UNL     1      -3.639   7.508   3.909  0.00  0.00    +0.382 N 
ATOM     43  H   UNL     1      -3.408   6.902   3.113  0.00  0.00    -0.090 HD
ENDBRANCH  36  42
BRANCH  35  44
ATOM     44  O   UNL     1      -0.363   7.337   5.628  0.00  0.00    -0.391 OA
ATOM     45  H   UNL     1       0.560   7.519   5.404  0.00  0.00    +0.210 HD
ENDBRANCH  35  44
ENDBRANCH  32  38
ENDBRANCH   1  32
TORSDOF 9
