REMARK  Name = ZINC05854846
REMARK  6 active torsions:
REMARK  status: ('A' for Active; 'I' for Inactive)
REMARK    1  A    between atoms: C_1  and  C_2
REMARK    2  A    between atoms: N_11  and  C_15
REMARK    3  A    between atoms: C_15  and  C_16
REMARK    4  A    between atoms: N_18  and  C_19
REMARK    5  A    between atoms: C_19  and  C_20
REMARK    6  A    between atoms: C_20  and  C_21
REMARK                            x       y       z     vdW  Elec       q    Type
REMARK                         _______ _______ _______ _____ _____    ______ ____
ROOT
ATOM      1  C   UNL     1      -3.956   0.343   4.435  0.00  0.00    +0.213 C 
ENDROOT
BRANCH   1  11
ATOM      2  C   UNL     1      -0.002   1.056   2.507  0.00  0.00    +0.010 C 
ATOM      3  C   UNL     1      -0.730   1.580   1.267  0.00  0.00    +0.018 C 
ATOM      4  C   UNL     1      -0.013   1.086   0.008  0.00  0.00    +0.006 C 
ATOM      5  C   UNL     1      -0.753   1.593  -1.231  0.00  0.00    +0.000 C 
ATOM      6  C   UNL     1      -2.186   1.056  -1.227  0.00  0.00    +0.003 C 
ATOM      7  C   UNL     1      -2.911   1.550   0.027  0.00  0.00    +0.035 C 
ATOM      8  C   UNL     1      -2.167   1.069   1.268  0.00  0.00    +0.115 C 
ATOM      9  C   UNL     1      -2.885   1.517   2.521  0.00  0.00    +0.247 C 
ATOM     10  O   UNL     1      -3.102   2.655   2.875  0.00  0.00    -0.273 OA
ATOM     11  N   UNL     1      -3.233   0.381   3.161  0.00  0.00    -0.215 N 
ATOM     12  C   UNL     1      -2.836  -0.706   2.489  0.00  0.00    +0.310 C 
ATOM     13  O   UNL     1      -3.035  -1.844   2.866  0.00  0.00    -0.252 OA
ATOM     14  N   UNL     1      -2.191  -0.397   1.347  0.00  0.00    -0.285 N 
ATOM     15  H   UNL     1      -1.817  -1.020   0.705  0.00  0.00    +0.151 HD
ENDBRANCH   1  11
BRANCH   1  16
ATOM     16  C   UNL     1      -2.969   0.347   5.573  0.00  0.00    +0.231 C 
ATOM     17  O   UNL     1      -1.778   0.378   5.343  0.00  0.00    -0.274 OA
ATOM     18  N   UNL     1      -3.409   0.315   6.847  0.00  0.00    -0.314 N 
ATOM     19  H   UNL     1      -4.361   0.290   7.030  0.00  0.00    +0.149 HD
BRANCH  18  20
ATOM     20  C   UNL     1      -2.449   0.319   7.953  0.00  0.00    +0.109 C 
BRANCH  20  21
ATOM     21  C   UNL     1      -3.204   0.279   9.284  0.00  0.00    +0.055 C 
BRANCH  21  22
ATOM     22  C   UNL     1      -2.216   0.282  10.422  0.00  0.00    -0.027 A 
ATOM     23  C   UNL     1      -1.948   1.457  11.100  0.00  0.00    +0.006 A 
ATOM     24  C   UNL     1      -1.042   1.461  12.144  0.00  0.00    +0.020 A 
ATOM     25  C   UNL     1      -0.405   0.289  12.512  0.00  0.00    +0.042 A 
ATOM     26  C   UNL     1      -0.673  -0.886  11.834  0.00  0.00    +0.040 A 
ATOM     27  C   UNL     1      -1.583  -0.890  10.792  0.00  0.00    +0.046 A 
ATOM     28 CL   UNL     1      -1.925  -2.366   9.944  0.00  0.00    -0.083 Cl
ATOM     29 CL   UNL     1       0.733   0.294  13.823  0.00  0.00    -0.083 Cl
ENDBRANCH  21  22
ENDBRANCH  20  21
ENDBRANCH  18  20
ENDBRANCH   1  16
TORSDOF 5
