REMARK  Name = ZINC39439912
REMARK  11 active torsions:
REMARK  status: ('A' for Active; 'I' for Inactive)
REMARK    1  A    between atoms: C_1  and  C_2
REMARK    2  A    between atoms: C_5  and  C_21
REMARK    3  A    between atoms: C_6  and  C_20
REMARK    4  A    between atoms: N_8  and  C_9
REMARK    5  A    between atoms: C_11  and  N_17
REMARK    6  A    between atoms: C_14  and  O_15
REMARK    7  A    between atoms: O_15  and  C_16
REMARK    8  A    between atoms: C_22  and  C_23
REMARK    9  A    between atoms: C_22  and  C_25
REMARK   10  A    between atoms: C_31  and  O_35
REMARK   11  A    between atoms: O_35  and  C_36
REMARK                            x       y       z     vdW  Elec       q    Type
REMARK                         _______ _______ _______ _____ _____    ______ ____
ROOT
ATOM      1  C   UNL     1       0.320   2.197  -0.871  0.00  0.00    +0.032 C 
ATOM      2  C   UNL     1       0.095   0.694  -0.696  0.00  0.00    +0.094 C 
ATOM      3  C   UNL     1       0.891  -0.066  -1.724  0.00  0.00    +0.000 C 
ATOM      4  C   UNL     1       1.758  -0.869  -1.116  0.00  0.00    -0.028 C 
ATOM      5  C   UNL     1       1.625  -0.722   0.377  0.00  0.00    +0.101 C 
ATOM      6  N   UNL     1       0.567   0.269   0.628  0.00  0.00    -0.314 N 
ATOM      7  C   UNL     1       2.949  -0.238   0.972  0.00  0.00    +0.033 C 
ENDROOT
BRANCH   6   8
ATOM      8  C   UNL     1       0.105   0.717   1.871  0.00  0.00    +0.075 A 
ATOM      9  C   UNL     1      -0.940   0.060   2.503  0.00  0.00    +0.059 A 
ATOM     10  C   UNL     1      -1.395   0.504   3.731  0.00  0.00    +0.128 A 
ATOM     11  C   UNL     1      -0.809   1.603   4.331  0.00  0.00    +0.036 A 
ATOM     12  C   UNL     1       0.233   2.264   3.707  0.00  0.00    +0.050 A 
ATOM     13  C   UNL     1       0.698   1.821   2.480  0.00  0.00    +0.141 A 
BRANCH  10  14
ATOM     14  N   UNL     1      -2.510  -0.198   4.403  0.00  0.00    +0.056 N 
ATOM     15  O   UNL     1      -3.023  -1.159   3.879  0.00  0.00    -0.126 OA
ATOM     16  O   UNL     1      -2.909   0.189   5.477  0.00  0.00    -0.126 OA
ENDBRANCH  10  14
BRANCH  13  17
ATOM     17  O   UNL     1       1.727   2.466   1.868  0.00  0.00    -0.493 OA
ATOM     18  C   UNL     1       2.286   3.590   2.551  0.00  0.00    +0.277 C 
ENDBRANCH  13  17
ENDBRANCH   6   8
BRANCH   4  19
ATOM     19  C   UNL     1       2.700  -1.760  -1.794  0.00  0.00    +0.023 C 
ATOM     20  C   UNL     1       2.247  -2.673  -2.682  0.00  0.00    +0.072 C 
BRANCH  20  21
ATOM     21  C   UNL     1       0.764  -2.870  -2.869  0.00  0.00    +0.216 C 
ATOM     22  N   UNL     1       0.437  -4.301  -2.829  0.00  0.00    -0.359 N 
ATOM     23  C   UNL     1      -0.092  -4.614  -3.977  0.00  0.00    +0.061 A 
ATOM     24  C   UNL     1      -0.609  -5.882  -4.514  0.00  0.00    +0.031 A 
ATOM     25  C   UNL     1      -1.113  -5.923  -5.762  0.00  0.00    +0.048 A 
ATOM     26  C   UNL     1      -1.165  -4.740  -6.611  0.00  0.00    +0.122 A 
ATOM     27  C   UNL     1      -0.709  -3.536  -6.188  0.00  0.00    +0.073 A 
ATOM     28  C   UNL     1      -0.144  -3.405  -4.843  0.00  0.00    +0.064 A 
ATOM     29  N   UNL     1       0.355  -2.387  -4.194  0.00  0.00    -0.359 N 
ATOM     30  H   UNL     1       0.588  -4.903  -2.084  0.00  0.00    +0.162 HD
ATOM     31  H   UNL     1       0.441  -1.480  -4.525  0.00  0.00    +0.162 HD
BRANCH  26  32
ATOM     32  O   UNL     1      -1.685  -4.846  -7.859  0.00  0.00    -0.495 OA
ATOM     33  C   UNL     1      -2.152  -6.136  -8.259  0.00  0.00    +0.277 C 
ENDBRANCH  26  32
ENDBRANCH  20  21
BRANCH  20  34
ATOM     34  C   UNL     1       3.174  -3.454  -3.444  0.00  0.00    +0.099 C 
ATOM     35  N   UNL     1       3.911  -4.072  -4.048  0.00  0.00    -0.191 NA
ENDBRANCH  20  34
ENDBRANCH   4  19
TORSDOF 7
