REMARK  Name = ZINC20207696
REMARK  9 active torsions:
REMARK  status: ('A' for Active; 'I' for Inactive)
REMARK    1  A    between atoms: C_1  and  C_2
REMARK    2  A    between atoms: C_5  and  O_9
REMARK    3  A    between atoms: C_6  and  C_8
REMARK    4  A    between atoms: O_9  and  C_10
REMARK    5  A    between atoms: C_10  and  C_11
REMARK    6  A    between atoms: C_11  and  N_12
REMARK    7  A    between atoms: C_14  and  C_21
REMARK    8  A    between atoms: C_31  and  S_33
REMARK    9  A    between atoms: S_33  and  C_36
REMARK                            x       y       z     vdW  Elec       q    Type
REMARK                         _______ _______ _______ _____ _____    ______ ____
ROOT
ATOM      1  N   UNL     1       0.065  -7.106  -2.342  0.00  0.00    -0.343 N 
ATOM      2  C   UNL     1      -1.030  -7.542  -2.996  0.00  0.00    +0.095 A 
ATOM      3  C   UNL     1      -0.671  -7.987  -4.254  0.00  0.00    +0.001 A 
ATOM      4  C   UNL     1       0.789  -7.795  -4.356  0.00  0.00    +0.007 A 
ATOM      5  C   UNL     1       1.190  -7.236  -3.132  0.00  0.00    +0.050 A 
ATOM      6  C   UNL     1       2.532  -6.934  -2.929  0.00  0.00    +0.026 A 
ATOM      7  C   UNL     1       3.452  -7.180  -3.926  0.00  0.00    +0.002 A 
ATOM      8  C   UNL     1       3.053  -7.729  -5.135  0.00  0.00    +0.001 A 
ATOM      9  C   UNL     1       1.728  -8.043  -5.353  0.00  0.00    +0.010 A 
ENDROOT
BRANCH   3  10
ATOM     10  C   UNL     1      -1.530  -8.519  -5.243  0.00  0.00    +0.026 C 
ATOM     11  C   UNL     1      -2.855  -8.127  -5.292  0.00  0.00    +0.081 C 
ATOM     12  C   UNL     1      -3.379  -7.027  -4.438  0.00  0.00    +0.153 C 
ATOM     13  N   UNL     1      -2.666  -5.987  -4.089  0.00  0.00    -0.283 NA
ATOM     14  N   UNL     1      -4.720  -7.215  -4.041  0.00  0.00    -0.150 N 
ATOM     15  C   UNL     1      -5.506  -8.033  -4.824  0.00  0.00    +0.182 C 
ATOM     16  N   UNL     1      -5.133  -8.746  -5.856  0.00  0.00    -0.152 NA
ATOM     17  C   UNL     1      -3.827  -8.777  -6.201  0.00  0.00    +0.273 C 
ATOM     18  O   UNL     1      -3.458  -9.326  -7.227  0.00  0.00    -0.268 OA
ATOM     19  S   UNL     1      -7.094  -7.871  -4.053  0.00  0.00    -0.015 S 
ATOM     20  C   UNL     1      -6.591  -6.819  -2.698  0.00  0.00    +0.235 C 
ATOM     21  N   UNL     1      -5.324  -6.642  -2.942  0.00  0.00    -0.145 NA
ATOM     22  H   UNL     1      -3.034  -5.329  -3.479  0.00  0.00    +0.188 HD
BRANCH  20  23
ATOM     23  S   UNL     1      -7.561  -6.185  -1.371  0.00  0.00    +0.019 S 
ATOM     24  O   UNL     1      -8.553  -7.175  -1.142  0.00  0.00    -0.168 OA
ATOM     25  O   UNL     1      -6.619  -5.855  -0.359  0.00  0.00    -0.168 OA
ATOM     26  C   UNL     1      -8.323  -4.676  -2.031  0.00  0.00    +0.202 C 
ENDBRANCH  20  23
ENDBRANCH   3  10
BRANCH   1  27
ATOM     27  C   UNL     1       0.062  -6.563  -0.982  0.00  0.00    +0.163 C 
BRANCH  27  28
ATOM     28  C   UNL     1      -0.033  -5.037  -1.042  0.00  0.00    +0.250 C 
BRANCH  28  29
ATOM     29  O   UNL     1      -0.036  -4.507   0.285  0.00  0.00    -0.490 OA
BRANCH  29  34
ATOM     30  C   UNL     1      -0.370   1.092   0.802  0.00  0.00    +0.044 C 
ATOM     31  C   UNL     1      -0.280  -0.406   0.663  0.00  0.00    -0.050 A 
ATOM     32  C   UNL     1      -0.271  -0.984  -0.593  0.00  0.00    +0.007 A 
ATOM     33  C   UNL     1      -0.190  -2.357  -0.722  0.00  0.00    +0.046 A 
ATOM     34  C   UNL     1      -0.116  -3.156   0.409  0.00  0.00    +0.123 A 
ATOM     35  C   UNL     1      -0.125  -2.574   1.669  0.00  0.00    -0.009 A 
ATOM     36  C   UNL     1      -0.201  -1.200   1.792  0.00  0.00    +0.010 A 
ATOM     37  C   UNL     1      -0.045  -3.439   2.900  0.00  0.00    +0.047 C 
ENDBRANCH  29  34
ENDBRANCH  28  29
ENDBRANCH  27  28
ENDBRANCH   1  27
TORSDOF 6
