REMARK  Name = ZINC33812657
REMARK  16 active torsions:
REMARK  status: ('A' for Active; 'I' for Inactive)
REMARK    1  A    between atoms: C_1  and  C_2
REMARK    2  A    between atoms: C_2  and  C_3
REMARK    3  A    between atoms: C_3  and  C_4
REMARK    4  A    between atoms: C_4  and  C_5
REMARK    5  A    between atoms: C_5  and  C_6
REMARK    6  A    between atoms: C_6  and  N_7
REMARK    7  A    between atoms: C_11  and  C_12
REMARK    8  A    between atoms: C_13  and  C_33
REMARK    9  A    between atoms: C_14  and  C_31
REMARK   10  A    between atoms: N_17  and  C_27
REMARK   11  A    between atoms: C_18  and  N_19
REMARK   12  A    between atoms: N_22  and  C_25
REMARK   13  A    between atoms: C_25  and  C_26
REMARK   14  A    between atoms: C_27  and  C_28
REMARK   15  A    between atoms: C_28  and  C_29
REMARK   16  A    between atoms: C_29  and  C_30
REMARK                            x       y       z     vdW  Elec       q    Type
REMARK                         _______ _______ _______ _____ _____    ______ ____
ROOT
ATOM      1  C   UNL     1       6.467  -5.427   3.857  0.00  0.00    +0.019 A 
ATOM      2  C   UNL     1       5.858  -4.975   2.674  0.00  0.00    -0.017 A 
ATOM      3  C   UNL     1       6.651  -4.757   1.550  0.00  0.00    +0.120 A 
ATOM      4  C   UNL     1       8.047  -4.995   1.625  0.00  0.00    +0.270 A 
ATOM      5  O   UNL     1       8.746  -4.806   0.645  0.00  0.00    -0.266 OA
ATOM      6  N   UNL     1       8.606  -5.427   2.769  0.00  0.00    -0.295 N 
ATOM      7  C   UNL     1       7.855  -5.642   3.881  0.00  0.00    +0.112 A 
ATOM      8  C   UNL     1       4.372  -4.731   2.622  0.00  0.00    +0.046 C 
ENDROOT
BRANCH   1  13
ATOM      9  N   UNL     1       4.435  -2.402   6.174  0.00  0.00    -0.255 N 
ATOM     10  C   UNL     1       5.134  -3.224   5.412  0.00  0.00    +0.258 C 
ATOM     11  O   UNL     1       5.830  -2.801   4.506  0.00  0.00    -0.269 OA
ATOM     12  C   UNL     1       5.051  -4.624   5.683  0.00  0.00    +0.077 C 
ATOM     13  C   UNL     1       5.663  -5.665   5.056  0.00  0.00    +0.032 C 
ATOM     14  S   UNL     1       3.924  -4.635   7.071  0.00  0.00    -0.061 S 
ATOM     15  C   UNL     1       3.668  -2.871   7.183  0.00  0.00    +0.121 C 
ATOM     16  S   UNL     1       2.695  -1.996   8.287  0.00  0.00    -0.027 S 
BRANCH   9  17
ATOM     17  C   UNL     1       4.496  -0.959   5.925  0.00  0.00    +0.115 C 
BRANCH  17  18
ATOM     18  C   UNL     1       5.638  -0.349   6.741  0.00  0.00    +0.019 C 
BRANCH  18  19
ATOM     19  C   UNL     1       5.702   1.157   6.481  0.00  0.00    +0.002 C 
BRANCH  19  20
ATOM     20  C   UNL     1       6.843   1.768   7.297  0.00  0.00    -0.000 C 
BRANCH  20  22
ATOM     21  C   UNL     1       8.049   3.884   7.852  0.00  0.00    +0.004 C 
ATOM     22  C   UNL     1       6.907   3.274   7.037  0.00  0.00    -0.003 C 
ENDBRANCH  20  22
ENDBRANCH  19  20
ENDBRANCH  18  19
ENDBRANCH  17  18
ENDBRANCH   9  17
ENDBRANCH   1  13
BRANCH   7  23
ATOM     23  N   UNL     1       8.453  -6.075   5.028  0.00  0.00    -0.320 N 
ATOM     24  C   UNL     1       8.951  -5.119   6.029  0.00  0.00    +0.088 C 
ATOM     25  C   UNL     1       8.404  -5.525   7.402  0.00  0.00    -0.060 C 
ATOM     26  N   UNL     1       8.755  -6.924   7.673  0.00  0.00    +0.382 N 
ATOM     27  C   UNL     1       8.087  -7.804   6.706  0.00  0.00    -0.060 C 
ATOM     28  C   UNL     1       8.613  -7.512   5.302  0.00  0.00    +0.088 C 
ATOM     29  H   UNL     1       9.755  -7.040   7.596  0.00  0.00    -0.082 HD
BRANCH  26  30
ATOM     30  C   UNL     1       8.328  -7.280   9.033  0.00  0.00    -0.082 C 
ATOM     31  C   UNL     1       8.803  -8.696   9.363  0.00  0.00    -0.017 C 
ENDBRANCH  26  30
ENDBRANCH   7  23
BRANCH   3  32
ATOM     32  C   UNL     1       6.061  -4.297   0.329  0.00  0.00    +0.105 C 
ATOM     33  N   UNL     1       5.593  -3.932  -0.640  0.00  0.00    -0.191 NA
ENDBRANCH   3  32
BRANCH   6  34
ATOM     34  C   UNL     1      10.050  -5.665   2.820  0.00  0.00    +0.126 C 
BRANCH  34  35
ATOM     35  C   UNL     1      10.774  -4.349   3.110  0.00  0.00    +0.021 C 
BRANCH  35  36
ATOM     36  C   UNL     1      12.283  -4.598   3.162  0.00  0.00    -0.002 C 
ATOM     37  C   UNL     1      13.007  -3.282   3.452  0.00  0.00    +0.004 C 
ENDBRANCH  35  36
ENDBRANCH  34  35
ENDBRANCH   6  34
TORSDOF 12
