REMARK  Name = ZINC40009163
REMARK  18 active torsions:
REMARK  status: ('A' for Active; 'I' for Inactive)
REMARK    1  A    between atoms: C_1  and  C_2
REMARK    2  A    between atoms: C_2  and  C_3
REMARK    3  A    between atoms: C_3  and  C_4
REMARK    4  A    between atoms: C_4  and  N_5
REMARK    5  A    between atoms: N_5  and  C_6
REMARK    6  A    between atoms: N_5  and  C_10
REMARK    7  A    between atoms: C_6  and  C_7
REMARK    8  A    between atoms: C_7  and  C_8
REMARK    9  A    between atoms: C_8  and  C_9
REMARK   10  A    between atoms: C_10  and  C_11
REMARK   11  A    between atoms: C_11  and  C_12
REMARK   12  A    between atoms: C_12  and  N_13
REMARK   13  A    between atoms: C_14  and  C_31
REMARK   14  A    between atoms: C_21  and  C_30
REMARK   15  A    between atoms: C_22  and  C_29
REMARK   16  A    between atoms: C_35  and  O_37
REMARK   17  A    between atoms: O_37  and  C_38
REMARK   18  A    between atoms: C_38  and  C_39
REMARK                            x       y       z     vdW  Elec       q    Type
REMARK                         _______ _______ _______ _____ _____    ______ ____
ROOT
ATOM      1  N   UNL     1      -5.694  -6.708   0.112  0.00  0.00    -0.284 N 
ATOM      2  C   UNL     1      -6.660  -6.857   1.213  0.00  0.00    +0.145 C 
ATOM      3  C   UNL     1      -7.902  -7.407   0.594  0.00  0.00    +0.072 A 
ATOM      4  C   UNL     1      -9.195  -7.773   1.183  0.00  0.00    +0.199 A 
ATOM      5  O   UNL     1      -9.506  -7.503   2.329  0.00  0.00    -0.287 OA
ATOM      6  C   UNL     1     -10.088  -8.504   0.248  0.00  0.00    +0.065 A 
ATOM      7  C   UNL     1     -11.264  -9.093   0.711  0.00  0.00    +0.019 A 
ATOM      8  C   UNL     1     -12.073  -9.767  -0.161  0.00  0.00    -0.047 A 
ATOM      9  C   UNL     1     -11.726  -9.867  -1.502  0.00  0.00    -0.044 A 
ATOM     10  C   UNL     1     -10.569  -9.290  -1.976  0.00  0.00    +0.050 A 
ATOM     11  C   UNL     1      -9.728  -8.595  -1.107  0.00  0.00    +0.140 A 
ATOM     12  O   UNL     1      -8.602  -8.028  -1.595  0.00  0.00    -0.450 OA
ATOM     13  C   UNL     1      -7.670  -7.555  -0.744  0.00  0.00    +0.199 A 
ATOM     14  C   UNL     1      -6.293  -7.113  -1.026  0.00  0.00    +0.283 C 
ATOM     15  O   UNL     1      -5.773  -7.115  -2.124  0.00  0.00    -0.267 OA
ATOM     16  C   UNL     1     -12.627 -10.615  -2.450  0.00  0.00    +0.044 C 
ATOM     17  C   UNL     1     -13.345 -10.404   0.334  0.00  0.00    +0.044 C 
ENDROOT
BRANCH   2  18
ATOM     18  C   UNL     1      -6.941  -5.517   1.843  0.00  0.00    -0.019 A 
ATOM     19  C   UNL     1      -7.077  -4.394   1.046  0.00  0.00    +0.006 A 
ATOM     20  C   UNL     1      -7.335  -3.163   1.621  0.00  0.00    +0.004 A 
ATOM     21  C   UNL     1      -7.457  -3.052   2.993  0.00  0.00    +0.045 A 
ATOM     22  C   UNL     1      -7.320  -4.176   3.793  0.00  0.00    +0.121 A 
ATOM     23  C   UNL     1      -7.067  -5.411   3.214  0.00  0.00    +0.051 A 
BRANCH  22  24
ATOM     24  O   UNL     1      -7.439  -4.069   5.143  0.00  0.00    -0.488 OA
BRANCH  24  25
ATOM     25  C   UNL     1      -7.705  -2.768   5.670  0.00  0.00    +0.256 C 
BRANCH  25  26
ATOM     26  C   UNL     1      -7.804  -2.844   7.171  0.00  0.00    +0.006 C 
ATOM     27  C   UNL     1      -7.198  -1.950   7.914  0.00  0.00    +0.007 C 
ENDBRANCH  25  26
ENDBRANCH  24  25
ENDBRANCH  22  24
ENDBRANCH   2  18
BRANCH   1  28
ATOM     28  C   UNL     1      -4.324  -6.202   0.230  0.00  0.00    +0.107 C 
BRANCH  28  29
ATOM     29  C   UNL     1      -4.323  -4.684   0.043  0.00  0.00    +0.000 C 
BRANCH  29  30
ATOM     30  C   UNL     1      -2.893  -4.155   0.167  0.00  0.00    -0.077 C 
BRANCH  30  31
ATOM     31  N   UNL     1      -2.874  -2.717  -0.134  0.00  0.00    +0.380 N 
ATOM     32  H   UNL     1      -3.287  -2.558  -1.040  0.00  0.00    -0.082 HD
BRANCH  31  33
ATOM     33  C   UNL     1      -3.642  -1.993   0.888  0.00  0.00    -0.079 C 
BRANCH  33  34
ATOM     34  C   UNL     1      -3.728  -0.514   0.508  0.00  0.00    -0.019 C 
BRANCH  34  36
ATOM     35  C   UNL     1      -4.613   1.720   1.192  0.00  0.00    +0.004 C 
ATOM     36  C   UNL     1      -4.528   0.241   1.572  0.00  0.00    -0.005 C 
ENDBRANCH  34  36
ENDBRANCH  33  34
ENDBRANCH  31  33
BRANCH  31  37
ATOM     37  C   UNL     1      -1.486  -2.236  -0.136  0.00  0.00    -0.079 C 
BRANCH  37  38
ATOM     38  C   UNL     1      -0.727  -2.873  -1.301  0.00  0.00    -0.019 C 
BRANCH  38  39
ATOM     39  C   UNL     1       0.737  -2.430  -1.259  0.00  0.00    -0.005 C 
ATOM     40  C   UNL     1       1.496  -3.068  -2.424  0.00  0.00    +0.004 C 
ENDBRANCH  38  39
ENDBRANCH  37  38
ENDBRANCH  31  37
ENDBRANCH  30  31
ENDBRANCH  29  30
ENDBRANCH  28  29
ENDBRANCH   1  28
TORSDOF 14
