REMARK  Name = ZINC12007432
REMARK  12 active torsions:
REMARK  status: ('A' for Active; 'I' for Inactive)
REMARK    1  A    between atoms: C_1  and  C_2
REMARK    2  A    between atoms: C_2  and  C_3
REMARK    3  A    between atoms: C_3  and  C_4
REMARK    4  A    between atoms: C_13  and  N_22
REMARK    5  A    between atoms: C_15  and  C_17
REMARK    6  A    between atoms: C_23  and  C_25
REMARK    7  A    between atoms: C_28  and  S_31
REMARK    8  A    between atoms: S_31  and  N_34
REMARK    9  A    between atoms: N_34  and  C_35
REMARK   10  A    between atoms: N_34  and  C_37
REMARK   11  A    between atoms: C_35  and  C_36
REMARK   12  A    between atoms: C_37  and  C_38
REMARK                            x       y       z     vdW  Elec       q    Type
REMARK                         _______ _______ _______ _____ _____    ______ ____
ROOT
ATOM      1  C   UNL     1       6.364  -2.773  -0.095  0.00  0.00    +0.050 A 
ATOM      2  C   UNL     1       7.423  -3.631  -0.115  0.00  0.00    +0.093 A 
ATOM      3  C   UNL     1       7.175  -5.017  -0.117  0.00  0.00    +0.253 A 
ATOM      4  O   UNL     1       8.098  -5.814  -0.134  0.00  0.00    -0.268 OA
ATOM      5  N   UNL     1       5.895  -5.446  -0.095  0.00  0.00    -0.291 N 
ATOM      6  H   UNL     1       5.700  -6.396  -0.092  0.00  0.00    +0.172 HD
ATOM      7  C   UNL     1       4.880  -4.542  -0.081  0.00  0.00    +0.234 A 
ATOM      8  N   UNL     1       5.120  -3.248  -0.079  0.00  0.00    -0.217 NA
ATOM      9  N   UNL     1       3.573  -4.989  -0.063  0.00  0.00    -0.184 N 
ATOM     10  C   UNL     1       2.455  -4.204  -0.043  0.00  0.00    +0.133 A 
ATOM     11  C   UNL     1       1.375  -5.025  -0.037  0.00  0.00    +0.077 A 
ATOM     12  C   UNL     1       1.844  -6.356  -0.048  0.00  0.00    +0.130 A 
ATOM     13  N   UNL     1       3.161  -6.328  -0.060  0.00  0.00    -0.159 NA
ENDROOT
BRANCH  12  14
ATOM     14  C   UNL     1       1.003  -7.571  -0.046  0.00  0.00    +0.155 A 
ATOM     15  C   UNL     1       1.454  -8.854  -0.062  0.00  0.00    +0.051 A 
ATOM     16  C   UNL     1       0.316  -9.684  -0.049  0.00  0.00    +0.042 A 
ATOM     17  C   UNL     1      -0.762  -8.877  -0.035  0.00  0.00    +0.196 A 
ATOM     18  O   UNL     1      -0.343  -7.601  -0.033  0.00  0.00    -0.461 OA
ENDBRANCH  12  14
BRANCH  10  19
ATOM     19  N   UNL     1       2.429  -2.812  -0.036  0.00  0.00    -0.266 N 
ATOM     20  C   UNL     1       1.250  -2.160  -0.021  0.00  0.00    +0.249 C 
ATOM     21  O   UNL     1       0.209  -2.788  -0.014  0.00  0.00    -0.270 OA
ATOM     22  H   UNL     1       3.260  -2.311  -0.041  0.00  0.00    +0.157 HD
BRANCH  20  23
ATOM     23  C   UNL     1       1.222  -0.682  -0.013  0.00  0.00    +0.037 A 
ATOM     24  C   UNL     1       0.002  -0.004   0.002  0.00  0.00    +0.015 A 
ATOM     25  C   UNL     1      -0.017   1.375   0.010  0.00  0.00    +0.029 A 
ATOM     26  C   UNL     1       1.170   2.086   0.002  0.00  0.00    +0.106 A 
ATOM     27  C   UNL     1       2.383   1.420  -0.013  0.00  0.00    +0.029 A 
ATOM     28  C   UNL     1       2.416   0.041  -0.021  0.00  0.00    +0.015 A 
BRANCH  26  29
ATOM     29  S   UNL     1       1.137   3.848   0.011  0.00  0.00    +0.061 S 
ATOM     30  O   UNL     1       2.370   4.280  -0.549  0.00  0.00    -0.153 OA
ATOM     31  O   UNL     1      -0.120   4.234  -0.526  0.00  0.00    -0.153 OA
BRANCH  29  32
ATOM     32  N   UNL     1       1.143   4.330   1.596  0.00  0.00    -0.177 NA
BRANCH  32  33
ATOM     33  C   UNL     1       2.414   4.566   2.285  0.00  0.00    +0.106 C 
ATOM     34  C   UNL     1       2.764   6.054   2.212  0.00  0.00    +0.022 C 
ENDBRANCH  32  33
BRANCH  32  35
ATOM     35  C   UNL     1      -0.123   4.519   2.308  0.00  0.00    +0.106 C 
ATOM     36  C   UNL     1      -0.471   3.243   3.078  0.00  0.00    +0.022 C 
ENDBRANCH  32  35
ENDBRANCH  29  32
ENDBRANCH  26  29
ENDBRANCH  20  23
ENDBRANCH  10  19
BRANCH   1  37
ATOM     37  C   UNL     1       6.601  -1.285  -0.092  0.00  0.00    +0.055 C 
BRANCH  37  39
ATOM     38  C   UNL     1       6.776   0.756  -1.523  0.00  0.00    +0.004 C 
ATOM     39  C   UNL     1       6.535  -0.755  -1.526  0.00  0.00    +0.003 C 
ENDBRANCH  37  39
ENDBRANCH   1  37
TORSDOF 9
