REMARK  Name = ZINC02448406
REMARK  3 active torsions:
REMARK  status: ('A' for Active; 'I' for Inactive)
REMARK    1  A    between atoms: C_1  and  C_2
REMARK    2  A    between atoms: C_4  and  C_36
REMARK    3  A    between atoms: N_20  and  C_23
REMARK                            x       y       z     vdW  Elec       q    Type
REMARK                         _______ _______ _______ _____ _____    ______ ____
ROOT
ATOM      1  C   UNL     1     -12.023  -2.118  -0.135  0.00  0.00    +0.044 C 
ATOM      2  C   UNL     1     -11.358  -0.834  -0.560  0.00  0.00    -0.050 A 
ATOM      3  C   UNL     1     -12.126   0.270  -0.882  0.00  0.00    +0.008 A 
ATOM      4  C   UNL     1     -11.522   1.448  -1.273  0.00  0.00    -0.029 A 
ATOM      5  C   UNL     1     -10.134   1.532  -1.347  0.00  0.00    +0.039 A 
ATOM      6  C   UNL     1      -9.371   0.415  -1.021  0.00  0.00    -0.027 A 
ATOM      7  C   UNL     1      -9.978  -0.758  -0.631  0.00  0.00    +0.008 A 
ATOM      8  C   UNL     1      -7.938   0.828  -1.200  0.00  0.00    +0.053 C 
ATOM      9  C   UNL     1      -7.145   0.688   0.104  0.00  0.00    +0.089 C 
ATOM     10  C   UNL     1      -6.386  -0.659  -0.038  0.00  0.00    +0.074 C 
ATOM     11  C   UNL     1      -6.792  -1.207  -1.419  0.00  0.00    -0.054 C 
ATOM     12  C   UNL     1      -6.002   0.649  -2.636  0.00  0.00    -0.076 C 
ATOM     13  C   UNL     1      -5.028  -0.499  -2.969  0.00  0.00    -0.020 C 
ATOM     14  C   UNL     1      -5.537  -1.706  -2.158  0.00  0.00    -0.016 C 
ATOM     15  C   UNL     1      -4.934  -0.239  -0.079  0.00  0.00    +0.228 C 
ATOM     16  O   UNL     1      -3.989  -0.991  -0.190  0.00  0.00    -0.275 OA
ATOM     17  N   UNL     1      -4.853   1.092   0.031  0.00  0.00    -0.210 N 
ATOM     18  C   UNL     1      -6.034   1.713   0.138  0.00  0.00    +0.229 C 
ATOM     19  O   UNL     1      -6.188   2.911   0.245  0.00  0.00    -0.275 OA
ATOM     20  C   UNL     1      -7.999   2.263  -1.649  0.00  0.00    +0.212 C 
ATOM     21  O   UNL     1      -7.057   2.982  -1.907  0.00  0.00    -0.277 OA
ATOM     22  N   UNL     1      -9.303   2.595  -1.709  0.00  0.00    -0.286 N 
ATOM     23  C   UNL     1     -12.368   2.645  -1.621  0.00  0.00    +0.045 C 
ATOM     24  H   UNL     1      -9.628   3.470  -1.974  0.00  0.00    +0.155 HD
ATOM     25  N   UNL     1      -7.217  -0.031  -2.144  0.00  0.00    +0.395 N 
ATOM     26  H   UNL     1      -7.826  -0.285  -2.931  0.00  0.00    -0.079 HD
ENDROOT
BRANCH  17  27
ATOM     27  C   UNL     1      -3.632   1.781   0.029  0.00  0.00    +0.044 A 
ATOM     28  C   UNL     1      -2.746   1.619   1.099  0.00  0.00    +0.024 A 
ATOM     29  C   UNL     1      -1.550   2.264   1.119  0.00  0.00    +0.010 A 
ATOM     30  C   UNL     1      -1.201   3.121   0.060  0.00  0.00    -0.018 A 
ATOM     31  C   UNL     1       0.020   3.817   0.058  0.00  0.00    +0.008 A 
ATOM     32  C   UNL     1       0.325   4.638  -0.984  0.00  0.00    +0.001 A 
ATOM     33  C   UNL     1      -0.555   4.801  -2.052  0.00  0.00    +0.001 A 
ATOM     34  C   UNL     1      -1.747   4.144  -2.084  0.00  0.00    +0.008 A 
ATOM     35  C   UNL     1      -2.099   3.291  -1.023  0.00  0.00    -0.016 A 
ATOM     36  C   UNL     1      -3.323   2.601  -1.020  0.00  0.00    +0.032 A 
ENDBRANCH  17  27
TORSDOF 1
