REMARK  Name = ZINC30791455
REMARK  4 active torsions:
REMARK  status: ('A' for Active; 'I' for Inactive)
REMARK    1  A    between atoms: C_4  and  C_7
REMARK    2  A    between atoms: C_13  and  C_15
REMARK    3  A    between atoms: N_17  and  N_18
REMARK    4  A    between atoms: C_19  and  C_20
REMARK                            x       y       z     vdW  Elec       q    Type
REMARK                         _______ _______ _______ _____ _____    ______ ____
ROOT
ATOM      1  C   UNL     1       2.841   1.482   1.662  0.00  0.00    +0.245 C 
ATOM      2  O   UNL     1       2.116   0.886   2.432  0.00  0.00    -0.273 OA
ATOM      3  N   UNL     1       3.241   2.737   1.948  0.00  0.00    -0.206 N 
ATOM      4  H   UNL     1       3.898   3.276   1.250  0.00  0.00    +0.177 HD
ENDROOT
BRANCH   1  10
ATOM      5  C   UNL     1       4.571  -0.017   0.635  0.00  0.00    +0.057 C 
ATOM      6  C   UNL     1       3.982  -1.418   0.912  0.00  0.00    +0.113 C 
ATOM      7  N   UNL     1       2.684  -1.440   0.229  0.00  0.00    -0.314 N 
ATOM      8  C   UNL     1       2.270  -0.197  -0.073  0.00  0.00    +0.226 C 
ATOM      9  O   UNL     1       1.230   0.071  -0.636  0.00  0.00    -0.275 OA
ATOM     10  C   UNL     1       3.293   0.818   0.387  0.00  0.00    +0.171 C 
ATOM     11  H   UNL     1       2.183  -2.399   0.029  0.00  0.00    +0.149 HD
BRANCH   5  15
ATOM     12  C   UNL     1       6.714   1.440   4.030  0.00  0.00    +0.000 A 
ATOM     13  C   UNL     1       5.517   0.772   4.204  0.00  0.00    +0.000 A 
ATOM     14  C   UNL     1       4.824   0.300   3.105  0.00  0.00    +0.004 A 
ATOM     15  C   UNL     1       5.327   0.497   1.833  0.00  0.00    -0.042 A 
ATOM     16  C   UNL     1       6.527   1.162   1.660  0.00  0.00    +0.004 A 
ATOM     17  C   UNL     1       7.218   1.637   2.758  0.00  0.00    +0.000 A 
ENDBRANCH   5  15
ENDBRANCH   1  10
BRANCH   3  18
ATOM     18  N   UNL     1       2.821   3.354   3.133  0.00  0.00    -0.188 NA
ATOM     19  C   UNL     1       3.086   4.607   3.342  0.00  0.00    +0.138 C 
BRANCH  19  20
ATOM     20  C   UNL     1       3.521   5.464   2.224  0.00  0.00    -0.002 A 
ATOM     21  C   UNL     1       4.241   6.634   2.478  0.00  0.00    +0.013 A 
ATOM     22  C   UNL     1       4.647   7.434   1.431  0.00  0.00    +0.050 A 
ATOM     23  C   UNL     1       4.344   7.082   0.124  0.00  0.00    +0.166 A 
ATOM     24  C   UNL     1       3.625   5.915  -0.137  0.00  0.00    +0.167 A 
ATOM     25  C   UNL     1       3.220   5.106   0.908  0.00  0.00    +0.059 A 
ATOM     26  O   UNL     1       3.459   5.798  -1.487  0.00  0.00    -0.453 OA
ATOM     27  C   UNL     1       4.432   6.684  -2.072  0.00  0.00    +0.466 C 
ATOM     28  O   UNL     1       4.626   7.693  -1.064  0.00  0.00    -0.453 OA
ENDBRANCH  19  20
ENDBRANCH   3  18
TORSDOF 4
