REMARK  Name = ZINC02056377
REMARK  11 active torsions:
REMARK  status: ('A' for Active; 'I' for Inactive)
REMARK    1  A    between atoms: C_1  and  C_2
REMARK    2  A    between atoms: C_2  and  O_3
REMARK    3  A    between atoms: O_3  and  C_4
REMARK    4  A    between atoms: C_4  and  C_6
REMARK    5  A    between atoms: C_12  and  C_13
REMARK    6  A    between atoms: C_21  and  N_37
REMARK    7  A    between atoms: C_22  and  C_32
REMARK    8  A    between atoms: C_23  and  C_25
REMARK    9  A    between atoms: C_32  and  O_34
REMARK   10  A    between atoms: O_34  and  C_35
REMARK   11  A    between atoms: C_35  and  C_36
REMARK                            x       y       z     vdW  Elec       q    Type
REMARK                         _______ _______ _______ _____ _____    ______ ____
ROOT
ATOM      1  C   UNL     1       0.988  -2.755  -2.628  0.00  0.00    +0.079 C 
ATOM      2  C   UNL     1       0.935  -4.063  -3.030  0.00  0.00    +0.100 A 
ATOM      3  N   UNL     1       1.415  -4.523  -4.240  0.00  0.00    -0.257 N 
ATOM      4  C   UNL     1       1.295  -5.840  -4.500  0.00  0.00    +0.271 A 
ATOM      5  O   UNL     1       1.698  -6.307  -5.549  0.00  0.00    -0.266 OA
ATOM      6  C   UNL     1       0.667  -6.698  -3.489  0.00  0.00    +0.080 A 
ATOM      7  C   UNL     1       0.435  -8.036  -3.516  0.00  0.00    +0.031 C 
ATOM      8  S   UNL     1       0.290  -5.508  -2.212  0.00  0.00    -0.065 S 
ATOM      9  C   UNL     1       1.995  -3.616  -5.131  0.00  0.00    +0.115 C 
ATOM     10  C   UNL     1       2.121  -2.291  -4.883  0.00  0.00    +0.087 C 
ATOM     11  C   UNL     1       1.605  -1.740  -3.569  0.00  0.00    +0.101 C 
ENDROOT
BRANCH   7  12
ATOM     12  C   UNL     1      -0.357  -8.666  -2.452  0.00  0.00    +0.011 A 
ATOM     13  C   UNL     1      -1.326  -7.926  -1.764  0.00  0.00    +0.011 A 
ATOM     14  C   UNL     1      -2.066  -8.525  -0.768  0.00  0.00    +0.001 A 
ATOM     15  C   UNL     1      -1.853  -9.855  -0.444  0.00  0.00    +0.003 A 
ATOM     16  C   UNL     1      -0.898 -10.595  -1.117  0.00  0.00    +0.039 A 
ATOM     17  C   UNL     1      -0.150 -10.013  -2.123  0.00  0.00    +0.131 A 
ATOM     18  F   UNL     1       0.779 -10.737  -2.783  0.00  0.00    -0.205 F 
ENDBRANCH   7  12
BRANCH  11  19
ATOM     19  C   UNL     1       2.755  -1.074  -2.857  0.00  0.00    +0.000 A 
ATOM     20  C   UNL     1       3.823  -1.829  -2.412  0.00  0.00    +0.007 A 
ATOM     21  C   UNL     1       4.877  -1.219  -1.758  0.00  0.00    +0.000 A 
ATOM     22  C   UNL     1       4.864   0.148  -1.550  0.00  0.00    +0.003 A 
ATOM     23  C   UNL     1       3.797   0.905  -1.994  0.00  0.00    +0.038 A 
ATOM     24  C   UNL     1       2.743   0.295  -2.654  0.00  0.00    +0.127 A 
ATOM     25  F   UNL     1       1.702   1.035  -3.093  0.00  0.00    -0.205 F 
ENDBRANCH  11  19
BRANCH   9  26
ATOM     26  N   UNL     1       2.464  -4.096  -6.326  0.00  0.00    -0.344 N 
ATOM     27  H   UNL     1       2.317  -3.592  -7.142  0.00  0.00    +0.144 HD
ATOM     28  H   UNL     1       2.942  -4.939  -6.355  0.00  0.00    +0.144 HD
ENDBRANCH   9  26
BRANCH   1  29
ATOM     29  C   UNL     1       0.479  -2.365  -1.382  0.00  0.00    +0.339 C 
ATOM     30  O   UNL     1      -0.014  -3.195  -0.638  0.00  0.00    -0.245 OA
BRANCH  29  31
ATOM     31  O   UNL     1       0.535  -1.069  -1.005  0.00  0.00    -0.462 OA
BRANCH  31  33
ATOM     32  C   UNL     1       0.149   0.760   0.527  0.00  0.00    +0.048 C 
ATOM     33  C   UNL     1      -0.002  -0.742   0.278  0.00  0.00    +0.229 C 
ENDBRANCH  31  33
ENDBRANCH  29  31
ENDBRANCH   1  29
BRANCH  10  34
ATOM     34  C   UNL     1       2.717  -1.442  -5.828  0.00  0.00    +0.339 C 
ATOM     35  O   UNL     1       3.216  -1.909  -6.837  0.00  0.00    -0.245 OA
BRANCH  34  36
ATOM     36  O   UNL     1       2.737  -0.108  -5.619  0.00  0.00    -0.462 OA
BRANCH  36  37
ATOM     37  C   UNL     1       3.360   0.696  -6.623  0.00  0.00    +0.229 C 
ATOM     38  C   UNL     1       3.286   2.169  -6.215  0.00  0.00    +0.048 C 
ENDBRANCH  36  37
ENDBRANCH  34  36
ENDBRANCH  10  34
TORSDOF 9
