REMARK  Name = ZINC39352672
REMARK  5 active torsions:
REMARK  status: ('A' for Active; 'I' for Inactive)
REMARK    1  A    between atoms: C_1  and  C_2
REMARK    2  A    between atoms: C_2  and  N_3
REMARK    3  A    between atoms: N_6  and  C_28
REMARK    4  A    between atoms: N_12  and  C_15
REMARK    5  A    between atoms: C_15  and  C_16
REMARK                            x       y       z     vdW  Elec       q    Type
REMARK                         _______ _______ _______ _____ _____    ______ ____
ROOT
ATOM      1  N   UNL     1       0.479  -0.709  -0.918  0.00  0.00    -0.271 N 
ATOM      2  C   UNL     1      -0.074  -1.022  -2.106  0.00  0.00    +0.312 C 
ATOM      3  O   UNL     1      -1.254  -0.877  -2.361  0.00  0.00    -0.252 OA
ATOM      4  N   UNL     1       0.821  -1.510  -2.973  0.00  0.00    -0.220 N 
ATOM      5  C   UNL     1       2.057  -1.565  -2.435  0.00  0.00    +0.247 C 
ATOM      6  O   UNL     1       3.073  -1.957  -2.967  0.00  0.00    -0.273 OA
ATOM      7  C   UNL     1       1.908  -1.028  -1.030  0.00  0.00    +0.112 C 
ATOM      8  C   UNL     1       2.754   0.228  -0.844  0.00  0.00    +0.017 C 
ATOM      9  C   UNL     1       2.621   0.718   0.601  0.00  0.00    -0.076 C 
ATOM     10  N   UNL     1       3.065  -0.336   1.520  0.00  0.00    +0.381 N 
ATOM     11  C   UNL     1       2.187  -1.506   1.401  0.00  0.00    -0.076 C 
ATOM     12  C   UNL     1       2.302  -2.091  -0.010  0.00  0.00    +0.017 C 
ATOM     13  H   UNL     1       4.011  -0.603   1.292  0.00  0.00    -0.082 HD
ENDROOT
BRANCH   4  14
ATOM     14  C   UNL     1       0.498  -1.933  -4.338  0.00  0.00    +0.094 C 
ATOM     15  C   UNL     1      -0.668  -2.944  -4.339  0.00  0.00    +0.058 C 
ATOM     16  C   UNL     1      -1.458  -2.637  -5.592  0.00  0.00    -0.042 A 
ATOM     17  C   UNL     1      -2.398  -3.396  -6.269  0.00  0.00    +0.004 A 
ATOM     18  C   UNL     1      -3.000  -2.902  -7.410  0.00  0.00    +0.000 A 
ATOM     19  C   UNL     1      -2.663  -1.646  -7.879  0.00  0.00    +0.000 A 
ATOM     20  C   UNL     1      -1.726  -0.887  -7.205  0.00  0.00    +0.004 A 
ATOM     21  C   UNL     1      -1.122  -1.381  -6.061  0.00  0.00    -0.042 A 
ATOM     22  C   UNL     1      -0.082  -0.758  -5.154  0.00  0.00    +0.058 C 
ENDBRANCH   4  14
BRANCH   1  24
ATOM     23  C   UNL     1      -1.170  -1.198   0.820  0.00  0.00    +0.024 C 
ATOM     24  C   UNL     1      -0.207  -0.154   0.251  0.00  0.00    +0.107 C 
ENDBRANCH   1  24
BRANCH  10  25
ATOM     25  C   UNL     1       3.021   0.168   2.899  0.00  0.00    -0.062 C 
BRANCH  25  26
ATOM     26  C   UNL     1       3.625  -0.874   3.843  0.00  0.00    +0.082 C 
ATOM     27  C   UNL     1       5.035  -1.169   3.369  0.00  0.00    -0.007 C 
ATOM     28  C   UNL     1       6.049  -0.958   4.256  0.00  0.00    -0.007 A 
ATOM     29  C   UNL     1       7.439  -1.217   3.882  0.00  0.00    +0.009 A 
ATOM     30  C   UNL     1       8.417  -0.993   4.798  0.00  0.00    +0.001 A 
ATOM     31  C   UNL     1       8.119  -0.524   6.077  0.00  0.00    +0.002 A 
ATOM     32  C   UNL     1       6.850  -0.264   6.486  0.00  0.00    +0.024 A 
ATOM     33  C   UNL     1       5.764  -0.462   5.614  0.00  0.00    +0.040 A 
ATOM     34  N   UNL     1       4.523  -0.203   6.025  0.00  0.00    -0.285 N 
ATOM     35  C   UNL     1       3.459  -0.369   5.258  0.00  0.00    +0.222 C 
ATOM     36  O   UNL     1       2.350  -0.115   5.690  0.00  0.00    -0.275 OA
ATOM     37  H   UNL     1       4.394   0.122   6.930  0.00  0.00    +0.155 HD
ENDBRANCH  25  26
ENDBRANCH  10  25
TORSDOF 4
