REMARK  Name = ZINC12342196
REMARK  8 active torsions:
REMARK  status: ('A' for Active; 'I' for Inactive)
REMARK    1  A    between atoms: C_1  and  C_2
REMARK    2  A    between atoms: C_7  and  C_23
REMARK    3  A    between atoms: C_9  and  C_10
REMARK    4  A    between atoms: C_9  and  N_45
REMARK    5  A    between atoms: C_10  and  C_12
REMARK    6  A    between atoms: C_10  and  O_13
REMARK    7  A    between atoms: O_13  and  C_14
REMARK    8  A    between atoms: C_14  and  C_16
REMARK                            x       y       z     vdW  Elec       q    Type
REMARK                         _______ _______ _______ _____ _____    ______ ____
ROOT
ATOM      1  C   UNL     1       1.207   1.595   0.615  0.00  0.00    +0.157 C 
ATOM      2  C   UNL     1       1.502   1.682  -0.883  0.00  0.00    +0.050 C 
ENDROOT
BRANCH   1   3
ATOM      3  C   UNL     1       1.063   3.006   1.189  0.00  0.00    -0.033 C 
BRANCH   3  11
ATOM      4  C   UNL     1      -0.831   4.718   2.373  0.00  0.00    -0.013 C 
ATOM      5  C   UNL     1       0.378   4.220   3.168  0.00  0.00    -0.071 C 
ATOM      6  C   UNL     1      -0.010   4.063   4.640  0.00  0.00    -0.016 C 
ATOM      7  C   UNL     1       1.196   3.546   5.429  0.00  0.00    -0.003 C 
ATOM      8  C   UNL     1       1.661   2.219   4.823  0.00  0.00    -0.016 C 
ATOM      9  C   UNL     1       2.001   2.430   3.345  0.00  0.00    -0.071 C 
ATOM     10  C   UNL     1       3.132   3.453   3.223  0.00  0.00    -0.013 C 
ATOM     11  N   UNL     1       0.792   2.904   2.638  0.00  0.00    +0.385 N 
ATOM     12  H   UNL     1       0.033   2.230   2.788  0.00  0.00    -0.081 HD
ENDBRANCH   3  11
ENDBRANCH   1   3
BRANCH   1  13
ATOM     13  O   UNL     1      -0.027   0.860   0.824  0.00  0.00    -0.460 OA
BRANCH  13  14
ATOM     14  C   UNL     1       0.079  -0.468   1.029  0.00  0.00    +0.339 C 
ATOM     15  O   UNL     1       1.162  -1.011   0.940  0.00  0.00    -0.245 OA
BRANCH  14  16
ATOM     16  C   UNL     1      -1.121  -1.262   1.361  0.00  0.00    +0.059 A 
ATOM     17  C   UNL     1      -2.382  -0.660   1.361  0.00  0.00    +0.016 A 
ATOM     18  C   UNL     1      -3.499  -1.409   1.666  0.00  0.00    +0.016 A 
ATOM     19  C   UNL     1      -3.371  -2.751   1.984  0.00  0.00    +0.018 A 
ATOM     20  C   UNL     1      -2.123  -3.351   1.992  0.00  0.00    +0.016 A 
ATOM     21  C   UNL     1      -0.999  -2.615   1.682  0.00  0.00    +0.016 A 
ATOM     22 BR   UNL     1      -4.908  -3.768   2.410  0.00  0.00    -0.050 Br
ENDBRANCH  14  16
ENDBRANCH  13  14
ENDBRANCH   1  13
TORSDOF 5
