REMARK  Name = ZINC03232671
REMARK  4 active torsions:
REMARK  status: ('A' for Active; 'I' for Inactive)
REMARK    1  A    between atoms: C_10  and  N_11
REMARK    2  A    between atoms: C_10  and  N_63
REMARK    3  A    between atoms: N_14  and  C_28
REMARK    4  A    between atoms: C_15  and  C_17
REMARK                            x       y       z     vdW  Elec       q    Type
REMARK                         _______ _______ _______ _____ _____    ______ ____
ROOT
ATOM      1  N   UNL     1       1.055   2.521   0.005  0.00  0.00    -0.257 N 
ATOM      2  C   UNL     1      -0.021   1.708   0.011  0.00  0.00    +0.181 A 
ATOM      3  S   UNL     1       0.002  -0.004   0.002  0.00  0.00    -0.011 S 
ATOM      4  N   UNL     1      -1.118   2.491   0.020  0.00  0.00    -0.272 N 
ATOM      5  C   UNL     1      -0.712   3.804   0.029  0.00  0.00    +0.181 A 
ATOM      6  N   UNL     1       0.582   3.840   0.017  0.00  0.00    -0.153 NA
ENDROOT
BRANCH   5   7
ATOM      7  C   UNL     1      -1.623   5.004   0.044  0.00  0.00    +0.278 C 
ATOM      8  C   UNL     1      -1.614   5.644   1.440  0.00  0.00    +0.281 C 
ATOM      9  O   UNL     1      -2.477   6.786   1.415  0.00  0.00    -0.484 OA
ATOM     10  C   UNL     1      -2.341   7.633   0.358  0.00  0.00    +0.162 A 
ATOM     11  C   UNL     1      -2.865   8.914   0.441  0.00  0.00    +0.049 A 
ATOM     12  C   UNL     1      -2.737   9.784  -0.625  0.00  0.00    +0.004 A 
ATOM     13  C   UNL     1      -2.087   9.380  -1.777  0.00  0.00    +0.004 A 
ATOM     14  C   UNL     1      -1.561   8.105  -1.865  0.00  0.00    +0.049 A 
ATOM     15  C   UNL     1      -1.685   7.227  -0.798  0.00  0.00    +0.163 A 
ATOM     16  O   UNL     1      -1.157   5.976  -0.898  0.00  0.00    -0.474 OA
ENDBRANCH   5   7
BRANCH   4  17
ATOM     17  C   UNL     1      -2.448   2.043   0.023  0.00  0.00    +0.054 A 
ATOM     18  C   UNL     1      -3.274   2.313  -1.060  0.00  0.00    +0.030 A 
ATOM     19  C   UNL     1      -4.581   1.868  -1.060  0.00  0.00    +0.051 A 
ATOM     20  C   UNL     1      -5.076   1.159   0.025  0.00  0.00    +0.162 A 
ATOM     21  C   UNL     1      -4.252   0.890   1.112  0.00  0.00    +0.164 A 
ATOM     22  C   UNL     1      -2.939   1.334   1.110  0.00  0.00    +0.075 A 
ATOM     23  O   UNL     1      -4.717   0.189   2.182  0.00  0.00    -0.485 OA
ATOM     24  C   UNL     1      -6.139   0.083   2.314  0.00  0.00    +0.270 C 
ATOM     25  C   UNL     1      -6.722  -0.291   0.945  0.00  0.00    +0.270 C 
ATOM     26  O   UNL     1      -6.371   0.738   0.012  0.00  0.00    -0.485 OA
ENDBRANCH   4  17
BRANCH   1  27
ATOM     27  C   UNL     1       2.459   2.103  -0.010  0.00  0.00    +0.072 C 
BRANCH  27  37
ATOM     28  C   UNL     1       4.047   2.923  -6.184  0.00  0.00    +0.000 A 
ATOM     29  C   UNL     1       3.003   3.776  -5.876  0.00  0.00    +0.000 A 
ATOM     30  C   UNL     1       2.519   3.831  -4.584  0.00  0.00    +0.002 A 
ATOM     31  C   UNL     1       3.074   3.034  -3.593  0.00  0.00    -0.061 A 
ATOM     32  C   UNL     1       4.112   2.182  -3.902  0.00  0.00    -0.048 A 
ATOM     33  C   UNL     1       4.599   2.129  -5.200  0.00  0.00    +0.004 A 
ATOM     34  C   UNL     1       4.743   1.293  -2.861  0.00  0.00    +0.017 C 
ATOM     35  C   UNL     1       4.374   1.785  -1.461  0.00  0.00    -0.071 C 
ATOM     36  C   UNL     1       2.518   3.136  -2.197  0.00  0.00    -0.040 C 
ATOM     37  N   UNL     1       2.906   1.952  -1.412  0.00  0.00    +0.396 N 
ATOM     38  H   UNL     1       2.461   1.120  -1.817  0.00  0.00    -0.079 HD
ENDBRANCH  27  37
ENDBRANCH   1  27
TORSDOF 4
