REMARK  Name = ZINC06485697
REMARK  5 active torsions:
REMARK  status: ('A' for Active; 'I' for Inactive)
REMARK    1  A    between atoms: C_1  and  C_2
REMARK    2  A    between atoms: C_5  and  S_8
REMARK    3  A    between atoms: S_8  and  N_11
REMARK    4  A    between atoms: N_11  and  N_12
REMARK    5  A    between atoms: C_13  and  C_24
REMARK                            x       y       z     vdW  Elec       q    Type
REMARK                         _______ _______ _______ _____ _____    ______ ____
ROOT
ATOM      1  N   UNL     1       2.520   4.194  -0.372  0.00  0.00    -0.189 N 
ATOM      2  C   UNL     1       3.692   3.572  -0.988  0.00  0.00    +0.212 C 
ATOM      3  N   UNL     1       3.985   2.287  -0.341  0.00  0.00    -0.320 N 
ATOM      4  C   UNL     1       2.930   1.421  -0.076  0.00  0.00    +0.041 A 
ATOM      5  C   UNL     1       3.097   0.048  -0.054  0.00  0.00    +0.024 A 
ATOM      6  C   UNL     1       2.013  -0.768   0.210  0.00  0.00    +0.002 A 
ATOM      7  C   UNL     1       0.762  -0.222   0.452  0.00  0.00    +0.001 A 
ATOM      8  C   UNL     1       0.579   1.145   0.435  0.00  0.00    +0.015 A 
ATOM      9  C   UNL     1       1.663   1.979   0.172  0.00  0.00    +0.059 A 
ATOM     10  C   UNL     1       1.526   3.447   0.150  0.00  0.00    +0.265 C 
ATOM     11  O   UNL     1       0.527   3.978   0.597  0.00  0.00    -0.268 OA
ATOM     12  H   UNL     1       4.895   2.047  -0.104  0.00  0.00    +0.148 HD
ENDROOT
BRANCH   2  13
ATOM     13  C   UNL     1       3.424   3.344  -2.453  0.00  0.00    +0.010 A 
ATOM     14  C   UNL     1       4.116   2.363  -3.149  0.00  0.00    +0.010 A 
ATOM     15  C   UNL     1       3.837   2.189  -4.495  0.00  0.00    +0.020 A 
ATOM     16  C   UNL     1       2.885   2.992  -5.096  0.00  0.00    +0.111 A 
ATOM     17  N   UNL     1       2.247   3.914  -4.402  0.00  0.00    -0.263 NA
ATOM     18  C   UNL     1       2.482   4.104  -3.119  0.00  0.00    +0.117 A 
ENDBRANCH   2  13
BRANCH   1  19
ATOM     19  N   UNL     1       2.429   5.591  -0.324  0.00  0.00    -0.103 NA
ATOM     20  H   UNL     1       2.045   6.078  -1.070  0.00  0.00    +0.172 HD
BRANCH  19  21
ATOM     21  S   UNL     1       2.976   6.411   1.007  0.00  0.00    +0.074 S 
ATOM     22  O   UNL     1       2.942   7.792   0.675  0.00  0.00    -0.152 OA
ATOM     23  O   UNL     1       2.280   5.879   2.126  0.00  0.00    -0.152 OA
BRANCH  21  28
ATOM     24  C   UNL     1       8.785   4.955   1.739  0.00  0.00    +0.044 C 
ATOM     25  C   UNL     1       7.334   5.318   1.556  0.00  0.00    -0.050 A 
ATOM     26  C   UNL     1       6.987   6.405   0.775  0.00  0.00    +0.005 A 
ATOM     27  C   UNL     1       5.656   6.738   0.607  0.00  0.00    +0.029 A 
ATOM     28  C   UNL     1       4.672   5.986   1.220  0.00  0.00    +0.107 A 
ATOM     29  C   UNL     1       5.019   4.902   2.006  0.00  0.00    +0.029 A 
ATOM     30  C   UNL     1       6.350   4.565   2.169  0.00  0.00    +0.005 A 
ENDBRANCH  21  28
ENDBRANCH  19  21
ENDBRANCH   1  19
TORSDOF 4
