REMARK  Name = ZINC20516398
REMARK  7 active torsions:
REMARK  status: ('A' for Active; 'I' for Inactive)
REMARK    1  A    between atoms: C_1  and  C_2
REMARK    2  A    between atoms: C_2  and  C_3
REMARK    3  A    between atoms: C_2  and  C_4
REMARK    4  A    between atoms: C_7  and  S_10
REMARK    5  A    between atoms: S_10  and  C_13
REMARK    6  A    between atoms: N_25  and  C_26
REMARK    7  A    between atoms: C_26  and  C_27
REMARK                            x       y       z     vdW  Elec       q    Type
REMARK                         _______ _______ _______ _____ _____    ______ ____
ROOT
ATOM      1  C   UNL     1       1.400   3.374   0.007  0.00  0.00    +0.249 A 
ATOM      2  C   UNL     1       1.134   2.014   0.002  0.00  0.00    +0.204 A 
ATOM      3  N   UNL     1      -0.016   1.318   0.009  0.00  0.00    -0.209 NA
ATOM      4  C   UNL     1       0.002  -0.004   0.002  0.00  0.00    +0.137 A 
ATOM      5  C   UNL     1       1.224  -0.683  -0.013  0.00  0.00    +0.077 A 
ATOM      6  C   UNL     1       2.445  -0.001  -0.021  0.00  0.00    +0.087 A 
ATOM      7  N   UNL     1       2.351   1.394  -0.013  0.00  0.00    -0.192 N 
ATOM      8  N   UNL     1       3.318   2.405  -0.017  0.00  0.00    -0.057 NA
ATOM      9  N   UNL     1       2.716   3.544  -0.005  0.00  0.00    -0.108 NA
ATOM     10  C   UNL     1       3.589  -0.801  -0.037  0.00  0.00    +0.036 A 
ATOM     11  C   UNL     1       3.477  -2.148  -0.043  0.00  0.00    +0.048 A 
ATOM     12  S   UNL     1       1.708  -2.390  -0.027  0.00  0.00    -0.092 S 
ATOM     13  N   UNL     1      -1.186  -0.714   0.010  0.00  0.00    -0.324 N 
ATOM     14  H   UNL     1      -1.169  -1.814   0.004  0.00  0.00    +0.148 HD
ENDROOT
BRANCH   1  15
ATOM     15  S   UNL     1       0.195   4.660   0.026  0.00  0.00    +0.047 S 
ATOM     16  O   UNL     1       0.821   5.811  -0.525  0.00  0.00    -0.163 OA
ATOM     17  O   UNL     1      -0.997   4.107  -0.516  0.00  0.00    -0.163 OA
BRANCH  15  21
ATOM     18  C   UNL     1      -0.676   5.613   4.364  0.00  0.00    -0.045 A 
ATOM     19  C   UNL     1       0.331   6.286   3.698  0.00  0.00    +0.006 A 
ATOM     20  C   UNL     1       0.597   5.995   2.373  0.00  0.00    +0.028 A 
ATOM     21  C   UNL     1      -0.144   5.031   1.715  0.00  0.00    +0.095 A 
ATOM     22  C   UNL     1      -1.154   4.362   2.380  0.00  0.00    +0.028 A 
ATOM     23  C   UNL     1      -1.417   4.649   3.706  0.00  0.00    +0.006 A 
BRANCH  18  25
ATOM     24  C   UNL     1      -2.409   6.417   5.945  0.00  0.00    +0.012 C 
ATOM     25  C   UNL     1      -0.966   5.929   5.809  0.00  0.00    +0.013 C 
ATOM     26  C   UNL     1      -0.771   4.670   6.656  0.00  0.00    +0.012 C 
ENDBRANCH  18  25
ENDBRANCH  15  21
ENDBRANCH   1  15
BRANCH  13  27
ATOM     27  C   UNL     1      -2.465  -0.001   0.027  0.00  0.00    +0.138 C 
BRANCH  27  28
ATOM     28  C   UNL     1      -3.596  -0.997   0.033  0.00  0.00    -0.030 A 
ATOM     29  C   UNL     1      -4.130  -1.443  -1.162  0.00  0.00    +0.008 A 
ATOM     30  C   UNL     1      -5.163  -2.360  -1.158  0.00  0.00    +0.038 A 
ATOM     31  C   UNL     1      -5.671  -2.825   0.043  0.00  0.00    +0.123 A 
ATOM     32  C   UNL     1      -5.139  -2.374   1.239  0.00  0.00    +0.038 A 
ATOM     33  C   UNL     1      -4.102  -1.460   1.233  0.00  0.00    +0.008 A 
ATOM     34  F   UNL     1      -6.685  -3.718   0.049  0.00  0.00    -0.205 F 
ENDBRANCH  27  28
ENDBRANCH  13  27
TORSDOF 5
