REMARK  Name = ZINC09963009
REMARK  11 active torsions:
REMARK  status: ('A' for Active; 'I' for Inactive)
REMARK    1  A    between atoms: C_1  and  C_2
REMARK    2  A    between atoms: N_5  and  S_8
REMARK    3  A    between atoms: S_8  and  C_11
REMARK    4  A    between atoms: N_17  and  C_22
REMARK    5  A    between atoms: C_22  and  C_23
REMARK    6  A    between atoms: N_25  and  C_26
REMARK    7  A    between atoms: C_26  and  C_27
REMARK    8  A    between atoms: C_27  and  C_28
REMARK    9  A    between atoms: C_28  and  N_76
REMARK   10  A    between atoms: C_29  and  N_76
REMARK   11  A    between atoms: C_30  and  N_76
REMARK                            x       y       z     vdW  Elec       q    Type
REMARK                         _______ _______ _______ _____ _____    ______ ____
ROOT
ATOM      1  C   UNL     1       7.036   4.186   7.542  0.00  0.00    +0.107 A 
ATOM      2  C   UNL     1       7.959   3.953   8.545  0.00  0.00    +0.032 A 
ATOM      3  C   UNL     1       9.028   3.104   8.325  0.00  0.00    +0.049 A 
ATOM      4  C   UNL     1       9.175   2.485   7.096  0.00  0.00    +0.143 A 
ATOM      5  C   UNL     1       8.249   2.723   6.083  0.00  0.00    +0.081 A 
ATOM      6  C   UNL     1       7.176   3.570   6.311  0.00  0.00    +0.055 A 
ATOM      7  N   UNL     1       8.406   2.086   4.844  0.00  0.00    -0.256 N 
ATOM      8  C   UNL     1       9.255   1.039   4.749  0.00  0.00    +0.258 C 
ATOM      9  O   UNL     1       9.433   0.495   3.680  0.00  0.00    -0.271 OA
ATOM     10  C   UNL     1       9.979   0.549   5.978  0.00  0.00    +0.325 C 
ATOM     11  O   UNL     1      10.220   1.646   6.863  0.00  0.00    -0.481 OA
ENDROOT
BRANCH   1  12
ATOM     12  S   UNL     1       5.677   5.269   7.833  0.00  0.00    +0.061 S 
ATOM     13  O   UNL     1       4.656   4.895   6.918  0.00  0.00    -0.153 OA
ATOM     14  O   UNL     1       5.470   5.292   9.238  0.00  0.00    -0.153 OA
BRANCH  12  19
ATOM     15  C   UNL     1       5.241  10.928   7.015  0.00  0.00    +0.007 C 
ATOM     16  C   UNL     1       5.971   9.584   6.990  0.00  0.00    -0.012 C 
ATOM     17  C   UNL     1       5.219   8.611   6.078  0.00  0.00    +0.020 C 
ATOM     18  C   UNL     1       5.972   7.278   6.028  0.00  0.00    +0.110 C 
ATOM     19  N   UNL     1       6.164   6.792   7.401  0.00  0.00    -0.177 NA
ATOM     20  C   UNL     1       6.792   7.684   8.385  0.00  0.00    +0.110 C 
ATOM     21  C   UNL     1       6.035   9.011   8.408  0.00  0.00    +0.020 C 
ENDBRANCH  12  19
ENDBRANCH   1  12
BRANCH   7  22
ATOM     22  C   UNL     1       7.666   2.552   3.670  0.00  0.00    +0.209 C 
BRANCH  22  23
ATOM     23  C   UNL     1       6.350   1.823   3.583  0.00  0.00    +0.231 C 
ATOM     24  O   UNL     1       6.059   0.995   4.420  0.00  0.00    -0.274 OA
ATOM     25  N   UNL     1       5.496   2.090   2.575  0.00  0.00    -0.314 N 
ATOM     26  H   UNL     1       5.729   2.752   1.905  0.00  0.00    +0.149 HD
BRANCH  25  27
ATOM     27  C   UNL     1       4.217   1.381   2.491  0.00  0.00    +0.102 C 
BRANCH  27  28
ATOM     28  C   UNL     1       3.444   1.868   1.264  0.00  0.00    +0.000 C 
BRANCH  28  29
ATOM     29  C   UNL     1       2.108   1.127   1.176  0.00  0.00    -0.077 C 
BRANCH  29  31
ATOM     30  C   UNL     1       2.056   1.218  -1.243  0.00  0.00    -0.096 C 
ATOM     31  N   UNL     1       1.364   1.623  -0.001  0.00  0.00    +0.380 N 
ATOM     32  H   UNL     1       1.323   2.648   0.038  0.00  0.00    -0.082 HD
BRANCH  31  33
ATOM     33  C   UNL     1      -0.013   1.086   0.008  0.00  0.00    -0.069 C 
ATOM     34  C   UNL     1      -0.729   1.579   1.267  0.00  0.00    -0.015 C 
ATOM     35  C   UNL     1      -2.164   1.050   1.278  0.00  0.00    -0.002 C 
ATOM     36  C   UNL     1      -2.904   1.556   0.038  0.00  0.00    -0.000 C 
ATOM     37  C   UNL     1      -2.188   1.063  -1.221  0.00  0.00    -0.002 C 
ATOM     38  C   UNL     1      -0.753   1.593  -1.232  0.00  0.00    -0.015 C 
ENDBRANCH  31  33
ENDBRANCH  29  31
ENDBRANCH  28  29
ENDBRANCH  27  28
ENDBRANCH  25  27
ENDBRANCH  22  23
ENDBRANCH   7  22
TORSDOF 9
