REMARK  Name = ZINC39601881
REMARK  11 active torsions:
REMARK  status: ('A' for Active; 'I' for Inactive)
REMARK    1  A    between atoms: C_1  and  C_2
REMARK    2  A    between atoms: C_2  and  N_3
REMARK    3  A    between atoms: C_4  and  C_10
REMARK    4  A    between atoms: C_6  and  C_8
REMARK    5  A    between atoms: C_14  and  C_23
REMARK    6  A    between atoms: N_25  and  C_26
REMARK    7  A    between atoms: C_26  and  C_27
REMARK    8  A    between atoms: C_27  and  O_28
REMARK    9  A    between atoms: O_28  and  C_29
REMARK   10  A    between atoms: C_29  and  C_30
REMARK   11  A    between atoms: C_30  and  O_31
REMARK                            x       y       z     vdW  Elec       q    Type
REMARK                         _______ _______ _______ _____ _____    ______ ____
ROOT
ATOM      1  C   UNL     1      -1.408  -0.694  -2.517  0.00  0.00    +0.266 C 
ATOM      2  O   UNL     1      -1.953  -1.110  -3.521  0.00  0.00    -0.268 OA
ATOM      3  N   UNL     1      -2.149  -0.275  -1.472  0.00  0.00    -0.295 N 
ATOM      4  C   UNL     1      -1.674   0.165  -0.139  0.00  0.00    +0.121 C 
ATOM      5  C   UNL     1      -2.583   1.360   0.225  0.00  0.00    +0.100 C 
ATOM      6  C   UNL     1      -3.862   1.145  -0.602  0.00  0.00    -0.004 C 
ATOM      7  C   UNL     1      -3.624  -0.146  -1.398  0.00  0.00    +0.115 C 
ATOM      8  C   UNL     1      -5.067   0.984   0.321  0.00  0.00    -0.010 C 
ATOM      9  C   UNL     1      -6.334   0.830  -0.524  0.00  0.00    -0.082 C 
ATOM     10  N   UNL     1      -6.502   2.013  -1.378  0.00  0.00    +0.379 N 
ATOM     11  C   UNL     1      -5.385   2.108  -2.326  0.00  0.00    -0.082 C 
ATOM     12  C   UNL     1      -4.077   2.316  -1.557  0.00  0.00    -0.010 C 
ATOM     13  H   UNL     1      -7.369   1.937  -1.889  0.00  0.00    -0.086 HD
ATOM     14  H   UNL     1      -6.525   2.841  -0.803  0.00  0.00    -0.086 HD
ENDROOT
BRANCH   1  16
ATOM     15  N   UNL     1       0.890  -1.624  -1.970  0.00  0.00    -0.258 N 
ATOM     16  C   UNL     1       0.060  -0.646  -2.442  0.00  0.00    +0.138 A 
ATOM     17  C   UNL     1       0.880   0.398  -2.837  0.00  0.00    +0.071 A 
ATOM     18  C   UNL     1       2.182  -0.032  -2.570  0.00  0.00    +0.075 A 
ATOM     19  N   UNL     1       2.110  -1.233  -2.054  0.00  0.00    -0.175 NA
ATOM     20  C   UNL     1       3.445   0.750  -2.824  0.00  0.00    +0.069 C 
ATOM     21 BR   UNL     1       0.349   2.054  -3.581  0.00  0.00    -0.046 Br
BRANCH  15  23
ATOM     22  C   UNL     1       0.132  -2.781   0.047  0.00  0.00    +0.029 C 
ATOM     23  C   UNL     1       0.454  -2.920  -1.442  0.00  0.00    +0.141 C 
ENDBRANCH  15  23
ENDBRANCH   1  16
BRANCH   5  24
ATOM     24  C   UNL     1      -1.921   2.659  -0.157  0.00  0.00    +0.218 C 
ATOM     25  O   UNL     1      -1.217   2.713  -1.143  0.00  0.00    -0.275 OA
ATOM     26  N   UNL     1      -2.111   3.759   0.597  0.00  0.00    -0.313 N 
ATOM     27  H   UNL     1      -2.614   3.699   1.425  0.00  0.00    +0.149 HD
BRANCH  26  28
ATOM     28  C   UNL     1      -1.557   5.046   0.168  0.00  0.00    +0.132 C 
BRANCH  28  29
ATOM     29  C   UNL     1      -1.806   6.096   1.253  0.00  0.00    +0.178 C 
BRANCH  29  30
ATOM     30  O   UNL     1      -1.091   5.736   2.437  0.00  0.00    -0.376 OA
BRANCH  30  31
ATOM     31  C   UNL     1      -1.257   6.655   3.518  0.00  0.00    +0.187 C 
BRANCH  31  32
ATOM     32  C   UNL     1      -0.452   6.173   4.726  0.00  0.00    +0.184 C 
BRANCH  32  33
ATOM     33  O   UNL     1       0.942   6.204   4.413  0.00  0.00    -0.393 OA
ATOM     34  H   UNL     1       1.514   5.910   5.136  0.00  0.00    +0.209 HD
ENDBRANCH  32  33
ENDBRANCH  31  32
ENDBRANCH  30  31
ENDBRANCH  29  30
ENDBRANCH  28  29
ENDBRANCH  26  28
ENDBRANCH   5  24
TORSDOF 9
