REMARK  Name = ZINC44713590
REMARK  6 active torsions:
REMARK  status: ('A' for Active; 'I' for Inactive)
REMARK    1  A    between atoms: C_1  and  C_2
REMARK    2  A    between atoms: C_3  and  C_12
REMARK    3  A    between atoms: C_12  and  C_13
REMARK    4  A    between atoms: C_13  and  N_14
REMARK    5  A    between atoms: C_15  and  C_17
REMARK    6  A    between atoms: C_28  and  C_30
REMARK                            x       y       z     vdW  Elec       q    Type
REMARK                         _______ _______ _______ _____ _____    ______ ____
ROOT
ATOM      1  C   UNL     1       2.536   1.105  -6.550  0.00  0.00    +0.100 C 
ATOM      2  C   UNL     1       1.755   2.436  -6.622  0.00  0.00    +0.121 C 
ATOM      3  N   UNL     1       2.796   3.486  -6.526  0.00  0.00    -0.297 N 
ATOM      4  C   UNL     1       3.923   2.964  -7.335  0.00  0.00    +0.115 C 
ATOM      5  C   UNL     1       3.957   1.455  -7.022  0.00  0.00    -0.004 C 
ATOM      6  C   UNL     1       4.967   1.169  -5.915  0.00  0.00    -0.010 C 
ATOM      7  C   UNL     1       6.378   1.471  -6.427  0.00  0.00    -0.082 C 
ATOM      8  N   UNL     1       6.662   0.639  -7.603  0.00  0.00    +0.379 N 
ATOM      9  C   UNL     1       5.745   0.985  -8.695  0.00  0.00    -0.082 C 
ATOM     10  C   UNL     1       4.307   0.663  -8.279  0.00  0.00    -0.010 C 
ATOM     11  C   UNL     1       2.733   4.653  -5.854  0.00  0.00    +0.260 C 
ATOM     12  O   UNL     1       1.774   4.898  -5.153  0.00  0.00    -0.271 OA
ATOM     13  H   UNL     1       7.613   0.795  -7.902  0.00  0.00    -0.086 HD
ATOM     14  H   UNL     1       6.544  -0.334  -7.361  0.00  0.00    -0.086 HD
ENDROOT
BRANCH  11  15
ATOM     15  C   UNL     1       3.854   5.653  -5.974  0.00  0.00    +0.296 C 
ATOM     16  C   UNL     1       3.868   6.248  -7.388  0.00  0.00    +0.283 C 
ATOM     17  O   UNL     1       4.933   7.202  -7.463  0.00  0.00    -0.484 OA
ATOM     18  C   UNL     1       5.037   8.085  -6.432  0.00  0.00    +0.162 A 
ATOM     19  C   UNL     1       5.787   9.239  -6.598  0.00  0.00    +0.049 A 
ATOM     20  C   UNL     1       5.905  10.143  -5.559  0.00  0.00    +0.004 A 
ATOM     21  C   UNL     1       5.274   9.900  -4.353  0.00  0.00    +0.004 A 
ATOM     22  C   UNL     1       4.523   8.753  -4.182  0.00  0.00    +0.049 A 
ATOM     23  C   UNL     1       4.400   7.842  -5.221  0.00  0.00    +0.163 A 
ATOM     24  O   UNL     1       3.651   6.720  -5.040  0.00  0.00    -0.473 OA
ENDBRANCH  11  15
BRANCH   1  26
ATOM     25  N   UNL     1       2.622  -0.737  -4.902  0.00  0.00    -0.315 N 
ATOM     26  C   UNL     1       2.565   0.589  -5.135  0.00  0.00    +0.218 C 
ATOM     27  O   UNL     1       2.537   1.367  -4.205  0.00  0.00    -0.275 OA
ATOM     28  H   UNL     1       2.645  -1.360  -5.645  0.00  0.00    +0.149 HD
BRANCH  25  29
ATOM     29  C   UNL     1       2.651  -1.239  -3.526  0.00  0.00    +0.109 C 
BRANCH  29  30
ATOM     30  C   UNL     1       2.716  -2.767  -3.541  0.00  0.00    +0.056 C 
BRANCH  30  33
ATOM     31  C   UNL     1       0.245  -3.499  -1.810  0.00  0.00    +0.063 C 
ATOM     32  C   UNL     1       1.682  -3.602  -1.369  0.00  0.00    +0.017 A 
ATOM     33  C   UNL     1       2.745  -3.283  -2.125  0.00  0.00    -0.018 A 
ATOM     34  C   UNL     1       3.938  -3.531  -1.313  0.00  0.00    +0.003 A 
ATOM     35  C   UNL     1       5.310  -3.394  -1.536  0.00  0.00    +0.010 A 
ATOM     36  C   UNL     1       6.194  -3.719  -0.546  0.00  0.00    +0.001 A 
ATOM     37  C   UNL     1       5.739  -4.185   0.680  0.00  0.00    +0.002 A 
ATOM     38  C   UNL     1       4.391  -4.328   0.921  0.00  0.00    +0.026 A 
ATOM     39  C   UNL     1       3.473  -4.003  -0.072  0.00  0.00    +0.047 A 
ATOM     40  N   UNL     1       2.097  -4.030  -0.138  0.00  0.00    -0.358 N 
ATOM     41  H   UNL     1       1.510  -4.311   0.581  0.00  0.00    +0.166 HD
ENDBRANCH  30  33
ENDBRANCH  29  30
ENDBRANCH  25  29
ENDBRANCH   1  26
TORSDOF 5
