REMARK  Name = ZINC13591961
REMARK  9 active torsions:
REMARK  status: ('A' for Active; 'I' for Inactive)
REMARK    1  A    between atoms: C_1  and  C_2
REMARK    2  A    between atoms: C_2  and  C_3
REMARK    3  A    between atoms: C_2  and  C_4
REMARK    4  A    between atoms: C_4  and  O_5
REMARK    5  A    between atoms: O_5  and  C_6
REMARK    6  A    between atoms: C_9  and  C_14
REMARK    7  A    between atoms: C_11  and  O_12
REMARK    8  A    between atoms: O_12  and  C_13
REMARK    9  A    between atoms: C_19  and  C_20
REMARK                            x       y       z     vdW  Elec       q    Type
REMARK                         _______ _______ _______ _____ _____    ______ ____
ROOT
ATOM      1  C   UNL     1      -1.259   4.948  -0.313  0.00  0.00    +0.005 A 
ATOM      2  C   UNL     1      -1.281   3.830   0.533  0.00  0.00    +0.036 A 
ATOM      3  C   UNL     1      -1.068   2.565   0.041  0.00  0.00    +0.052 A 
ATOM      4  N   UNL     1      -0.825   2.344  -1.293  0.00  0.00    -0.326 N 
ATOM      5  C   UNL     1      -0.792   3.400  -2.179  0.00  0.00    +0.123 A 
ATOM      6  C   UNL     1      -1.016   4.763  -1.686  0.00  0.00    +0.099 A 
ATOM      7  C   UNL     1      -0.597   0.985  -1.790  0.00  0.00    +0.128 C 
ATOM      8  C   UNL     1       0.211   0.171  -0.780  0.00  0.00    +0.057 C 
ATOM      9  C   UNL     1      -0.465   0.224   0.565  0.00  0.00    -0.033 A 
ATOM     10  C   UNL     1      -1.100   1.407   0.958  0.00  0.00    +0.005 A 
ATOM     11  C   UNL     1      -1.744   1.480   2.192  0.00  0.00    +0.059 A 
ATOM     12  C   UNL     1      -1.746   0.378   3.027  0.00  0.00    +0.167 A 
ATOM     13  C   UNL     1      -1.106  -0.798   2.634  0.00  0.00    +0.167 A 
ATOM     14  C   UNL     1      -0.468  -0.868   1.402  0.00  0.00    +0.054 A 
ATOM     15  O   UNL     1      -1.250  -1.724   3.626  0.00  0.00    -0.453 OA
ATOM     16  C   UNL     1      -1.631  -0.978   4.797  0.00  0.00    +0.466 C 
ATOM     17  O   UNL     1      -2.291   0.185   4.264  0.00  0.00    -0.453 OA
ATOM     18  H   UNL     1      -0.522   3.867  -4.152  0.00  0.00    +0.157 HD
ATOM     19  N   UNL     1      -0.554   3.117  -3.462  0.00  0.00    -0.384 N 
ATOM     20  H   UNL     1      -0.405   2.144  -3.754  0.00  0.00    +0.157 HD
ENDROOT
BRANCH   1  24
ATOM     21  C   UNL     1      -1.921   8.845   1.256  0.00  0.00    +0.162 A 
ATOM     22  C   UNL     1      -2.801   7.816   1.559  0.00  0.00    +0.050 A 
ATOM     23  C   UNL     1      -2.590   6.551   1.052  0.00  0.00    +0.012 A 
ATOM     24  C   UNL     1      -1.488   6.304   0.231  0.00  0.00    -0.013 A 
ATOM     25  C   UNL     1      -0.599   7.338  -0.071  0.00  0.00    +0.058 A 
ATOM     26  C   UNL     1      -0.820   8.604   0.437  0.00  0.00    +0.162 A 
BRANCH  26  27
ATOM     27  O   UNL     1       0.041   9.615   0.141  0.00  0.00    -0.491 OA
ATOM     28  C   UNL     1       1.149   9.297  -0.704  0.00  0.00    +0.277 C 
ENDBRANCH  26  27
BRANCH  21  29
ATOM     29  O   UNL     1      -2.134  10.089   1.758  0.00  0.00    -0.488 OA
BRANCH  29  30
ATOM     30  C   UNL     1      -3.282  10.265   2.591  0.00  0.00    +0.232 C 
BRANCH  30  32
ATOM     31  C   UNL     1      -4.647  11.938   3.847  0.00  0.00    +0.010 C 
ATOM     32  C   UNL     1      -3.354  11.720   3.059  0.00  0.00    +0.020 C 
ATOM     33  C   UNL     1      -2.153  12.028   3.955  0.00  0.00    +0.010 C 
ENDBRANCH  30  32
ENDBRANCH  29  30
ENDBRANCH  21  29
ENDBRANCH   1  24
BRANCH   6  34
ATOM     34  C   UNL     1      -0.988   5.880  -2.581  0.00  0.00    +0.103 C 
ATOM     35  N   UNL     1      -0.966   6.766  -3.292  0.00  0.00    -0.191 NA
ENDBRANCH   6  34
TORSDOF 6
