REMARK  Name = ZINC02762146
REMARK  11 active torsions:
REMARK  status: ('A' for Active; 'I' for Inactive)
REMARK    1  A    between atoms: C_1  and  C_2
REMARK    2  A    between atoms: C_2  and  S_3
REMARK    3  A    between atoms: S_3  and  C_4
REMARK    4  A    between atoms: C_4  and  C_5
REMARK    5  A    between atoms: C_5  and  O_6
REMARK    6  A    between atoms: O_6  and  C_7
REMARK    7  A    between atoms: C_7  and  C_9
REMARK    8  A    between atoms: C_10  and  C_36
REMARK    9  A    between atoms: C_14  and  C_16
REMARK   10  A    between atoms: C_20  and  O_22
REMARK   11  A    between atoms: C_26  and  C_29
REMARK                            x       y       z     vdW  Elec       q    Type
REMARK                         _______ _______ _______ _____ _____    ______ ____
ROOT
ATOM      1  C   UNL     1       1.940  -6.622   3.382  0.00  0.00    +0.065 C 
ATOM      2  C   UNL     1       2.728  -7.316   4.222  0.00  0.00    +0.016 C 
ATOM      3  N   UNL     1       2.856  -8.670   4.091  0.00  0.00    -0.321 N 
ATOM      4  C   UNL     1       2.534  -9.291   2.914  0.00  0.00    +0.016 C 
ATOM      5  C   UNL     1       1.732  -8.681   2.016  0.00  0.00    +0.024 C 
ATOM      6  C   UNL     1       1.170  -7.308   2.292  0.00  0.00    +0.092 C 
ATOM      7  C   UNL     1       1.390  -9.309   0.805  0.00  0.00    +0.162 C 
ATOM      8  O   UNL     1       0.680  -8.725   0.010  0.00  0.00    -0.292 OA
ATOM      9  C   UNL     1       1.890 -10.689   0.474  0.00  0.00    +0.088 C 
ATOM     10  C   UNL     1       2.121 -11.460   1.778  0.00  0.00    +0.033 C 
ATOM     11  C   UNL     1       3.098 -10.664   2.646  0.00  0.00    +0.059 C 
ATOM     12  C   UNL     1       3.474  -6.595   5.315  0.00  0.00    +0.061 C 
ATOM     13  H   UNL     1       3.179  -9.197   4.839  0.00  0.00    +0.152 HD
ENDROOT
BRANCH  10  14
ATOM     14  C   UNL     1       2.702 -12.816   1.468  0.00  0.00    -0.025 A 
ATOM     15  C   UNL     1       3.914 -12.915   0.810  0.00  0.00    +0.005 A 
ATOM     16  C   UNL     1       4.447 -14.158   0.525  0.00  0.00    +0.000 A 
ATOM     17  C   UNL     1       3.768 -15.303   0.898  0.00  0.00    +0.001 A 
ATOM     18  C   UNL     1       2.556 -15.206   1.556  0.00  0.00    +0.020 A 
ATOM     19  C   UNL     1       2.025 -13.961   1.846  0.00  0.00    +0.044 A 
ATOM     20 CL   UNL     1       0.506 -13.838   2.678  0.00  0.00    -0.083 Cl
ENDBRANCH  10  14
BRANCH   6  21
ATOM     21  C   UNL     1      -0.273  -7.433   2.708  0.00  0.00    -0.032 A 
ATOM     22  C   UNL     1      -0.603  -8.133   3.854  0.00  0.00    +0.005 A 
ATOM     23  C   UNL     1      -1.926  -8.250   4.239  0.00  0.00    +0.004 A 
ATOM     24  C   UNL     1      -2.921  -7.667   3.479  0.00  0.00    +0.045 A 
ATOM     25  C   UNL     1      -2.593  -6.964   2.329  0.00  0.00    +0.117 A 
ATOM     26  C   UNL     1      -1.264  -6.843   1.948  0.00  0.00    +0.050 A 
BRANCH  25  27
ATOM     27  O   UNL     1      -3.571  -6.390   1.580  0.00  0.00    -0.507 OA
ATOM     28  H   UNL     1      -3.781  -5.482   1.837  0.00  0.00    +0.292 HD
ENDBRANCH  25  27
ENDBRANCH   6  21
BRANCH   1  29
ATOM     29  C   UNL     1       1.830  -5.220   3.533  0.00  0.00    +0.338 C 
ATOM     30  O   UNL     1       2.388  -4.478   2.747  0.00  0.00    -0.245 OA
BRANCH  29  31
ATOM     31  O   UNL     1       1.106  -4.705   4.549  0.00  0.00    -0.460 OA
BRANCH  31  32
ATOM     32  C   UNL     1       1.038  -3.281   4.641  0.00  0.00    +0.243 C 
BRANCH  32  33
ATOM     33  C   UNL     1       0.180  -2.888   5.845  0.00  0.00    +0.110 C 
BRANCH  33  34
ATOM     34  S   UNL     1       0.093  -1.080   5.962  0.00  0.00    -0.158 S 
BRANCH  34  36
ATOM     35  C   UNL     1      -1.102   0.724   7.635  0.00  0.00    +0.015 C 
ATOM     36  C   UNL     1      -0.945  -0.783   7.419  0.00  0.00    +0.066 C 
ENDBRANCH  34  36
ENDBRANCH  33  34
ENDBRANCH  32  33
ENDBRANCH  31  32
ENDBRANCH  29  31
ENDBRANCH   1  29
TORSDOF 9
