REMARK  Name = ZINC39761213
REMARK  10 active torsions:
REMARK  status: ('A' for Active; 'I' for Inactive)
REMARK    1  A    between atoms: C_1  and  C_2
REMARK    2  A    between atoms: C_2  and  N_3
REMARK    3  A    between atoms: C_4  and  C_21
REMARK    4  A    between atoms: C_7  and  S_8
REMARK    5  A    between atoms: S_8  and  C_9
REMARK    6  A    between atoms: C_9  and  C_10
REMARK    7  A    between atoms: C_16  and  C_18
REMARK    8  A    between atoms: C_21  and  C_23
REMARK    9  A    between atoms: C_21  and  N_24
REMARK   10  A    between atoms: C_25  and  C_27
REMARK                            x       y       z     vdW  Elec       q    Type
REMARK                         _______ _______ _______ _____ _____    ______ ____
ROOT
ATOM      1  N   UNL     1       0.688  -0.476  -1.203  0.00  0.00    -0.305 N 
ATOM      2  C   UNL     1       0.126  -0.748  -2.420  0.00  0.00    +0.154 A 
ATOM      3  N   UNL     1       1.084  -1.140  -3.211  0.00  0.00    -0.132 NA
ATOM      4  N   UNL     1       2.205  -1.136  -2.582  0.00  0.00    -0.122 NA
ATOM      5  C   UNL     1       2.021  -0.732  -1.347  0.00  0.00    +0.192 A 
ENDROOT
BRANCH   1   7
ATOM      6  C   UNL     1      -0.019   1.526   0.010  0.00  0.00    +0.027 C 
ATOM      7  C   UNL     1       0.002  -0.004   0.002  0.00  0.00    +0.122 C 
ENDBRANCH   1   7
BRANCH   2   8
ATOM      8  C   UNL     1      -1.332  -0.617  -2.780  0.00  0.00    +0.138 C 
ATOM      9  C   UNL     1      -1.965  -2.007  -2.856  0.00  0.00    +0.036 C 
BRANCH   8  10
ATOM     10  N   UNL     1      -1.456   0.048  -4.080  0.00  0.00    -0.302 N 
ATOM     11  C   UNL     1      -2.583   0.720  -4.388  0.00  0.00    +0.245 C 
ATOM     12  O   UNL     1      -3.496   0.774  -3.588  0.00  0.00    -0.270 OA
ATOM     13  H   UNL     1      -0.727   0.004  -4.718  0.00  0.00    +0.150 HD
BRANCH  11  14
ATOM     14  C   UNL     1      -2.709   1.390  -5.699  0.00  0.00    +0.037 A 
ATOM     15  C   UNL     1      -1.664   1.324  -6.623  0.00  0.00    +0.014 A 
ATOM     16  C   UNL     1      -1.787   1.951  -7.845  0.00  0.00    +0.021 A 
ATOM     17  C   UNL     1      -2.944   2.646  -8.156  0.00  0.00    +0.041 A 
ATOM     18  C   UNL     1      -3.984   2.714  -7.244  0.00  0.00    +0.021 A 
ATOM     19  C   UNL     1      -3.875   2.087  -6.021  0.00  0.00    +0.014 A 
ATOM     20 CL   UNL     1      -3.091   3.434  -9.696  0.00  0.00    -0.084 Cl
ENDBRANCH  11  14
ENDBRANCH   8  10
ENDBRANCH   2   8
BRANCH   5  21
ATOM     21  S   UNL     1       3.261  -0.556  -0.107  0.00  0.00    -0.077 S 
BRANCH  21  22
ATOM     22  C   UNL     1       4.792  -1.052  -0.943  0.00  0.00    +0.173 C 
BRANCH  22  23
ATOM     23  C   UNL     1       5.947  -0.946   0.019  0.00  0.00    +0.229 C 
ATOM     24  O   UNL     1       5.756  -0.573   1.157  0.00  0.00    -0.275 OA
ATOM     25  N   UNL     1       7.192  -1.266  -0.386  0.00  0.00    -0.263 N 
ATOM     26  C   UNL     1       8.258  -1.169   0.502  0.00  0.00    +0.188 A 
ATOM     27  N   UNL     1       8.256  -0.794   1.766  0.00  0.00    -0.126 NA
ATOM     28  N   UNL     1       9.316  -0.755   2.453  0.00  0.00    -0.144 NA
ATOM     29  C   UNL     1      10.457  -1.099   1.891  0.00  0.00    +0.107 A 
ATOM     30  S   UNL     1       9.890  -1.506   0.246  0.00  0.00    -0.035 S 
ATOM     31  H   UNL     1       7.345  -1.565  -1.296  0.00  0.00    +0.157 HD
BRANCH  29  32
ATOM     32  C   UNL     1      11.847  -1.142   2.473  0.00  0.00    +0.047 C 
ATOM     33  C   UNL     1      11.988  -0.932   3.982  0.00  0.00    +0.011 C 
ATOM     34  C   UNL     1      12.428   0.167   3.012  0.00  0.00    +0.011 C 
ENDBRANCH  29  32
ENDBRANCH  22  23
ENDBRANCH  21  22
ENDBRANCH   5  21
TORSDOF 8
