REMARK  Name = ZINC40170758
REMARK  12 active torsions:
REMARK  status: ('A' for Active; 'I' for Inactive)
REMARK    1  A    between atoms: C_1  and  C_2
REMARK    2  A    between atoms: C_2  and  C_3
REMARK    3  A    between atoms: C_3  and  C_5
REMARK    4  A    between atoms: C_3  and  S_18
REMARK    5  A    between atoms: N_7  and  C_8
REMARK    6  A    between atoms: C_9  and  C_15
REMARK    7  A    between atoms: C_10  and  C_14
REMARK    8  A    between atoms: C_11  and  C_13
REMARK    9  A    between atoms: S_18  and  C_19
REMARK   10  A    between atoms: C_25  and  C_34
REMARK   11  A    between atoms: C_27  and  C_33
REMARK   12  A    between atoms: C_30  and  C_32
REMARK                            x       y       z     vdW  Elec       q    Type
REMARK                         _______ _______ _______ _____ _____    ______ ____
ROOT
ATOM      1  C   UNL     1       0.462  -0.483  -1.243  0.00  0.00    +0.140 C 
ENDROOT
BRANCH   1   2
ATOM      2  C   UNL     1       0.343  -1.984  -1.161  0.00  0.00    +0.231 C 
ATOM      3  O   UNL     1      -0.574  -2.550  -1.718  0.00  0.00    -0.274 OA
ATOM      4  N   UNL     1       1.255  -2.695  -0.470  0.00  0.00    -0.278 N 
ATOM      5  H   UNL     1       1.988  -2.242  -0.025  0.00  0.00    +0.155 HD
BRANCH   4   6
ATOM      6  C   UNL     1       1.145  -4.076  -0.395  0.00  0.00    +0.084 A 
ATOM      7  C   UNL     1       1.980  -4.962   0.270  0.00  0.00    +0.068 A 
ATOM      8  C   UNL     1       1.633  -6.363   0.185  0.00  0.00    -0.027 A 
ATOM      9  C   UNL     1       0.533  -6.652  -0.533  0.00  0.00    -0.008 A 
ATOM     10  S   UNL     1      -0.030  -5.056  -1.081  0.00  0.00    -0.078 S 
ATOM     11  C   UNL     1      -0.079  -8.003  -0.803  0.00  0.00    +0.052 C 
ATOM     12  C   UNL     1       2.453  -7.432   0.860  0.00  0.00    +0.045 C 
BRANCH   7  13
ATOM     13  C   UNL     1       3.153  -4.503   1.019  0.00  0.00    +0.244 C 
ATOM     14  O   UNL     1       3.049  -4.218   2.198  0.00  0.00    -0.270 OA
ATOM     15  N   UNL     1       4.347  -4.395   0.403  0.00  0.00    -0.325 N 
ATOM     16  H   UNL     1       4.430  -4.622  -0.537  0.00  0.00    +0.145 HD
ATOM     17  H   UNL     1       5.123  -4.091   0.898  0.00  0.00    +0.145 HD
ENDBRANCH   7  13
ENDBRANCH   4   6
ENDBRANCH   1   2
BRANCH   1  19
ATOM     18  C   UNL     1       0.161   1.652   0.018  0.00  0.00    +0.005 C 
ATOM     19  C   UNL     1      -0.082   0.142   0.043  0.00  0.00    +0.020 C 
ENDBRANCH   1  19
BRANCH   1  20
ATOM     20  S   UNL     1      -0.494   0.123  -2.661  0.00  0.00    -0.073 S 
BRANCH  20  21
ATOM     21  C   UNL     1       0.331  -0.567  -4.057  0.00  0.00    +0.197 A 
ATOM     22  N   UNL     1       1.469  -1.234  -3.999  0.00  0.00    -0.122 NA
ATOM     23  N   UNL     1       1.759  -1.707  -5.154  0.00  0.00    -0.129 NA
ATOM     24  C   UNL     1       0.798  -1.403  -6.005  0.00  0.00    +0.162 A 
ATOM     25  N   UNL     1      -0.036  -0.501  -5.366  0.00  0.00    -0.270 N 
ATOM     26  C   UNL     1      -0.945   0.223  -6.116  0.00  0.00    +0.061 A 
ATOM     27  C   UNL     1      -1.435   1.466  -5.746  0.00  0.00    -0.026 A 
ATOM     28  C   UNL     1      -2.501   2.026  -6.425  0.00  0.00    +0.008 A 
ATOM     29  C   UNL     1      -3.026   1.410  -7.548  0.00  0.00    -0.050 A 
ATOM     30  C   UNL     1      -2.433   0.269  -8.042  0.00  0.00    +0.013 A 
ATOM     31  C   UNL     1      -1.339  -0.284  -7.376  0.00  0.00    +0.002 A 
ATOM     32  C   UNL     1      -0.531  -1.336  -7.999  0.00  0.00    -0.038 A 
ATOM     33  C   UNL     1       0.531  -1.830  -7.324  0.00  0.00    +0.052 A 
ATOM     34  C   UNL     1      -0.862  -1.870  -9.368  0.00  0.00    +0.044 C 
ATOM     35  C   UNL     1      -4.240   1.984  -8.230  0.00  0.00    +0.044 C 
ATOM     36  C   UNL     1      -0.784   2.286  -4.662  0.00  0.00    +0.046 C 
ENDBRANCH  20  21
ENDBRANCH   1  20
TORSDOF 6
