REMARK  Name = ZINC35958188
REMARK  8 active torsions:
REMARK  status: ('A' for Active; 'I' for Inactive)
REMARK    1  A    between atoms: C_4  and  C_7
REMARK    2  A    between atoms: C_7  and  C_8
REMARK    3  A    between atoms: C_8  and  N_9
REMARK    4  A    between atoms: C_21  and  C_24
REMARK    5  A    between atoms: N_26  and  C_27
REMARK    6  A    between atoms: C_27  and  C_29
REMARK    7  A    between atoms: C_27  and  C_36
REMARK    8  A    between atoms: C_29  and  C_30
REMARK                            x       y       z     vdW  Elec       q    Type
REMARK                         _______ _______ _______ _____ _____    ______ ____
ROOT
ATOM      1  N   UNL     1       6.705  -1.905   2.472  0.00  0.00    -0.313 N 
ATOM      2  C   UNL     1       6.491  -3.207   2.050  0.00  0.00    +0.068 A 
ATOM      3  C   UNL     1       6.468  -4.435   2.693  0.00  0.00    +0.028 A 
ATOM      4  C   UNL     1       6.220  -5.584   1.970  0.00  0.00    +0.002 A 
ATOM      5  C   UNL     1       5.994  -5.519   0.604  0.00  0.00    +0.002 A 
ATOM      6  C   UNL     1       6.013  -4.309  -0.051  0.00  0.00    +0.028 A 
ATOM      7  C   UNL     1       6.262  -3.136   0.666  0.00  0.00    +0.065 A 
ATOM      8  N   UNL     1       6.344  -1.826   0.314  0.00  0.00    -0.327 N 
ATOM      9  C   UNL     1       6.598  -1.100   1.374  0.00  0.00    +0.177 A 
ATOM     10  N   UNL     1       6.741   0.271   1.380  0.00  0.00    -0.302 N 
ATOM     11  C   UNL     1       5.571   1.144   1.548  0.00  0.00    +0.108 C 
ATOM     12  C   UNL     1       5.537   2.151   0.394  0.00  0.00    +0.032 C 
ATOM     13  C   UNL     1       6.873   2.895   0.331  0.00  0.00    +0.078 C 
ATOM     14  C   UNL     1       8.003   1.896   0.069  0.00  0.00    +0.032 C 
ATOM     15  C   UNL     1       8.066   0.887   1.225  0.00  0.00    +0.108 C 
ATOM     16  H   UNL     1       6.228  -1.480  -0.585  0.00  0.00    +0.169 HD
ENDROOT
BRANCH  13  17
ATOM     17  C   UNL     1       6.831   3.909  -0.782  0.00  0.00    +0.217 C 
ATOM     18  O   UNL     1       5.831   4.026  -1.459  0.00  0.00    -0.275 OA
ATOM     19  N   UNL     1       7.904   4.687  -1.026  0.00  0.00    -0.308 N 
ATOM     20  H   UNL     1       8.704   4.594  -0.485  0.00  0.00    +0.149 HD
BRANCH  19  21
ATOM     21  C   UNL     1       7.863   5.674  -2.108  0.00  0.00    +0.107 C 
BRANCH  21  22
ATOM     22  C   UNL     1       8.231   5.008  -3.409  0.00  0.00    -0.027 A 
ATOM     23  C   UNL     1       9.243   4.067  -3.442  0.00  0.00    +0.005 A 
ATOM     24  C   UNL     1       9.581   3.456  -4.635  0.00  0.00    +0.000 A 
ATOM     25  C   UNL     1       8.906   3.786  -5.795  0.00  0.00    +0.000 A 
ATOM     26  C   UNL     1       7.893   4.726  -5.763  0.00  0.00    +0.000 A 
ATOM     27  C   UNL     1       7.553   5.334  -4.568  0.00  0.00    +0.005 A 
ENDBRANCH  21  22
BRANCH  21  28
ATOM     28  C   UNL     1       8.858   6.798  -1.812  0.00  0.00    +0.062 C 
BRANCH  28  29
ATOM     29  C   UNL     1       8.421   7.543  -0.577  0.00  0.00    -0.045 A 
ATOM     30  C   UNL     1       7.573   8.629  -0.688  0.00  0.00    +0.004 A 
ATOM     31  C   UNL     1       7.171   9.312   0.445  0.00  0.00    +0.000 A 
ATOM     32  C   UNL     1       7.618   8.909   1.689  0.00  0.00    +0.000 A 
ATOM     33  C   UNL     1       8.465   7.822   1.801  0.00  0.00    +0.000 A 
ATOM     34  C   UNL     1       8.863   7.136   0.669  0.00  0.00    +0.004 A 
ENDBRANCH  28  29
ENDBRANCH  21  28
ENDBRANCH  19  21
ENDBRANCH  13  17
BRANCH   1  35
ATOM     35  C   UNL     1       6.987  -1.472   3.843  0.00  0.00    +0.130 C 
BRANCH  35  36
ATOM     36  C   UNL     1       5.670  -1.292   4.601  0.00  0.00    +0.057 C 
BRANCH  36  40
ATOM     37  C   UNL     1       6.489  -0.028   8.599  0.00  0.00    +0.000 A 
ATOM     38  C   UNL     1       6.311   0.910   7.600  0.00  0.00    +0.000 A 
ATOM     39  C   UNL     1       6.046   0.502   6.306  0.00  0.00    +0.004 A 
ATOM     40  C   UNL     1       5.960  -0.846   6.012  0.00  0.00    -0.046 A 
ATOM     41  C   UNL     1       6.139  -1.785   7.010  0.00  0.00    +0.004 A 
ATOM     42  C   UNL     1       6.402  -1.376   8.304  0.00  0.00    +0.000 A 
ENDBRANCH  36  40
ENDBRANCH  35  36
ENDBRANCH   1  35
TORSDOF 8
