REMARK  Name = ZINC09041519
REMARK  7 active torsions:
REMARK  status: ('A' for Active; 'I' for Inactive)
REMARK    1  A    between atoms: C_1  and  O_2
REMARK    2  A    between atoms: O_2  and  C_3
REMARK    3  A    between atoms: C_6  and  C_9
REMARK    4  A    between atoms: C_9  and  N_47
REMARK    5  A    between atoms: C_15  and  S_26
REMARK    6  A    between atoms: N_16  and  C_20
REMARK    7  A    between atoms: C_20  and  C_21
REMARK                            x       y       z     vdW  Elec       q    Type
REMARK                         _______ _______ _______ _____ _____    ______ ____
ROOT
ATOM      1  C   UNL     1       5.045  -1.865   4.011  0.00  0.00    -0.031 C 
ATOM      2  C   UNL     1       4.782  -0.588   3.256  0.00  0.00    +0.040 A 
ATOM      3  C   UNL     1       5.037   0.648   3.886  0.00  0.00    +0.277 A 
ATOM      4  O   UNL     1       5.460   0.676   5.034  0.00  0.00    -0.265 OA
ATOM      5  N   UNL     1       4.815   1.793   3.223  0.00  0.00    -0.185 NA
ATOM      6  C   UNL     1       4.365   1.778   1.986  0.00  0.00    +0.171 A 
ATOM      7  N   UNL     1       4.101   0.606   1.347  0.00  0.00    -0.301 N 
ATOM      8  C   UNL     1       4.307  -0.595   1.982  0.00  0.00    +0.106 A 
ATOM      9  N   UNL     1       4.017  -1.754   1.308  0.00  0.00    -0.347 N 
ATOM     10  C   UNL     1       4.686  -2.925   1.884  0.00  0.00    +0.028 C 
ATOM     11  H   UNL     1       3.021  -1.899   1.250  0.00  0.00    +0.145 HD
ATOM     12  N   UNL     1       4.366  -2.977   3.323  0.00  0.00    +0.395 N 
ATOM     13  H   UNL     1       3.351  -2.881   3.447  0.00  0.00    -0.079 HD
ENDROOT
BRANCH   6  14
ATOM     14  S   UNL     1       4.096   3.303   1.145  0.00  0.00    -0.105 S 
ATOM     15  H   UNL     1       2.755   3.548   1.506  0.00  0.00    +0.110 HD
ENDBRANCH   6  14
BRANCH  12  16
ATOM     16  C   UNL     1       4.801  -4.272   3.896  0.00  0.00    -0.040 C 
BRANCH  16  20
ATOM     17  C   UNL     1       3.397  -7.455   1.415  0.00  0.00    +0.120 A 
ATOM     18  C   UNL     1       4.642  -6.891   1.182  0.00  0.00    +0.046 A 
ATOM     19  C   UNL     1       5.094  -5.862   1.986  0.00  0.00    +0.005 A 
ATOM     20  C   UNL     1       4.306  -5.394   3.021  0.00  0.00    -0.064 A 
ATOM     21  C   UNL     1       3.066  -5.959   3.258  0.00  0.00    +0.005 A 
ATOM     22  C   UNL     1       2.607  -6.984   2.454  0.00  0.00    +0.046 A 
BRANCH  17  24
ATOM     23  C   UNL     1       1.657  -8.999   0.923  0.00  0.00    +0.277 C 
ATOM     24  O   UNL     1       2.950  -8.467   0.625  0.00  0.00    -0.495 OA
ENDBRANCH  17  24
ENDBRANCH  16  20
ENDBRANCH  12  16
BRANCH   7  25
ATOM     25  C   UNL     1       3.599   0.625  -0.030  0.00  0.00    +0.199 C 
BRANCH  25  26
ATOM     26  C   UNL     1       2.092   0.660  -0.014  0.00  0.00    +0.125 A 
ATOM     27  C   UNL     1       1.331   1.769  -0.001  0.00  0.00    +0.046 A 
ATOM     28  C   UNL     1      -0.016   1.341   0.009  0.00  0.00    +0.041 A 
ATOM     29  C   UNL     1       0.002  -0.004   0.002  0.00  0.00    +0.195 A 
ATOM     30  O   UNL     1       1.282  -0.411  -0.012  0.00  0.00    -0.466 OA
ENDBRANCH  25  26
ENDBRANCH   7  25
TORSDOF 6
