REMARK  Name = ZINC06219659
REMARK  4 active torsions:
REMARK  status: ('A' for Active; 'I' for Inactive)
REMARK    1  A    between atoms: C_1  and  C_2
REMARK    2  A    between atoms: C_8  and  N_10
REMARK    3  A    between atoms: C_11  and  C_13
REMARK    4  A    between atoms: C_13  and  N_14
REMARK                            x       y       z     vdW  Elec       q    Type
REMARK                         _______ _______ _______ _____ _____    ______ ____
ROOT
ATOM      1  C   UNL     1       4.209   0.649   2.377  0.00  0.00    +0.212 C 
ENDROOT
BRANCH   1   2
ATOM      2  N   UNL     1       4.722   0.698   3.749  0.00  0.00    -0.233 N 
ATOM      3  C   UNL     1       4.585   1.773   4.544  0.00  0.00    +0.226 C 
ATOM      4  O   UNL     1       3.917   2.756   4.308  0.00  0.00    -0.275 OA
ATOM      5  C   UNL     1       5.423   1.536   5.800  0.00  0.00    +0.087 C 
ATOM      6  C   UNL     1       6.715   2.316   5.654  0.00  0.00    +0.013 C 
ATOM      7  C   UNL     1       7.855   1.715   6.464  0.00  0.00    +0.001 C 
ATOM      8  C   UNL     1       8.083   0.276   5.987  0.00  0.00    +0.001 C 
ATOM      9  C   UNL     1       6.849  -0.545   6.346  0.00  0.00    +0.013 C 
ATOM     10  C   UNL     1       5.565   0.020   5.786  0.00  0.00    +0.087 C 
ATOM     11  C   UNL     1       5.367  -0.332   4.328  0.00  0.00    +0.226 C 
ATOM     12  O   UNL     1       5.725  -1.353   3.781  0.00  0.00    -0.275 OA
ENDBRANCH   1   2
BRANCH   1  14
ATOM     13  N   UNL     1       2.116  -0.004   1.231  0.00  0.00    -0.311 N 
ATOM     14  C   UNL     1       2.795   0.128   2.388  0.00  0.00    +0.231 C 
ATOM     15  O   UNL     1       2.268  -0.174   3.438  0.00  0.00    -0.274 OA
ATOM     16  H   UNL     1       2.538   0.237   0.392  0.00  0.00    +0.149 HD
BRANCH  13  23
ATOM     17  C   UNL     1      -0.019   1.526   0.010  0.00  0.00    +0.009 C 
ATOM     18  C   UNL     1       0.002  -0.004   0.002  0.00  0.00    +0.006 C 
ATOM     19  C   UNL     1       0.718  -0.497  -1.257  0.00  0.00    +0.005 C 
ATOM     20  C   UNL     1       0.739  -2.027  -1.265  0.00  0.00    +0.000 C 
ATOM     21  C   UNL     1       1.479  -2.534  -0.026  0.00  0.00    +0.002 C 
ATOM     22  C   UNL     1       0.763  -2.041   1.233  0.00  0.00    +0.022 C 
ATOM     23  C   UNL     1       0.742  -0.511   1.242  0.00  0.00    +0.076 C 
ENDBRANCH  13  23
ENDBRANCH   1  14
TORSDOF 3
