REMARK  Name = ZINC17970754
REMARK  7 active torsions:
REMARK  status: ('A' for Active; 'I' for Inactive)
REMARK    1  A    between atoms: C_1  and  C_2
REMARK    2  A    between atoms: C_5  and  S_8
REMARK    3  A    between atoms: S_8  and  N_11
REMARK    4  A    between atoms: N_11  and  C_12
REMARK    5  A    between atoms: C_12  and  C_13
REMARK    6  A    between atoms: C_13  and  C_14
REMARK    7  A    between atoms: C_20  and  C_22
REMARK                            x       y       z     vdW  Elec       q    Type
REMARK                         _______ _______ _______ _____ _____    ______ ____
ROOT
ATOM      1  C   UNL     1       3.456  -3.136  -4.635  0.00  0.00    +0.105 A 
ATOM      2  N   UNL     1       4.660  -3.671  -4.680  0.00  0.00    -0.145 NA
ATOM      3  N   UNL     1       5.515  -3.261  -5.513  0.00  0.00    -0.126 NA
ATOM      4  C   UNL     1       5.251  -2.282  -6.361  0.00  0.00    +0.188 A 
ATOM      5  S   UNL     1       3.607  -1.912  -5.930  0.00  0.00    -0.035 S 
ATOM      6  N   UNL     1       6.064  -1.706  -7.331  0.00  0.00    -0.263 N 
ATOM      7  C   UNL     1       7.325  -2.149  -7.502  0.00  0.00    +0.231 C 
ATOM      8  O   UNL     1       7.751  -3.049  -6.811  0.00  0.00    -0.274 OA
ATOM      9  H   UNL     1       5.724  -0.985  -7.884  0.00  0.00    +0.157 HD
ENDROOT
BRANCH   7  10
ATOM     10  C   UNL     1       8.207  -1.524  -8.554  0.00  0.00    +0.142 C 
ATOM     11  C   UNL     1       7.563  -1.690  -9.903  0.00  0.00    +0.011 A 
ATOM     12  C   UNL     1       6.512  -0.862 -10.259  0.00  0.00    +0.008 A 
ATOM     13  C   UNL     1       5.907  -0.997 -11.494  0.00  0.00    +0.001 A 
ATOM     14  C   UNL     1       6.350  -1.962 -12.380  0.00  0.00    +0.004 A 
ATOM     15  C   UNL     1       7.397  -2.790 -12.030  0.00  0.00    +0.046 A 
ATOM     16  C   UNL     1       8.008  -2.657 -10.789  0.00  0.00    +0.133 A 
ATOM     17  O   UNL     1       9.034  -3.479 -10.464  0.00  0.00    -0.455 OA
ATOM     18  C   UNL     1       9.901  -3.131  -9.483  0.00  0.00    +0.133 A 
ATOM     19  C   UNL     1       9.556  -2.189  -8.528  0.00  0.00    +0.011 A 
ATOM     20  C   UNL     1      10.460  -1.851  -7.536  0.00  0.00    +0.008 A 
ATOM     21  C   UNL     1      11.704  -2.450  -7.495  0.00  0.00    +0.001 A 
ATOM     22  C   UNL     1      12.051  -3.392  -8.447  0.00  0.00    +0.004 A 
ATOM     23  C   UNL     1      11.153  -3.733  -9.438  0.00  0.00    +0.046 A 
ENDBRANCH   7  10
BRANCH   1  24
ATOM     24  C   UNL     1       2.286  -3.461  -3.742  0.00  0.00    +0.081 C 
BRANCH  24  25
ATOM     25  C   UNL     1       2.360  -2.607  -2.474  0.00  0.00    +0.112 C 
BRANCH  25  26
ATOM     26  N   UNL     1       1.223  -2.923  -1.606  0.00  0.00    -0.190 NA
ATOM     27  H   UNL     1       0.465  -3.414  -1.959  0.00  0.00    +0.148 HD
BRANCH  26  28
ATOM     28  S   UNL     1       1.232  -2.441  -0.022  0.00  0.00    +0.058 S 
ATOM     29  O   UNL     1       2.489  -2.832   0.515  0.00  0.00    -0.153 OA
ATOM     30  O   UNL     1      -0.002  -2.866   0.539  0.00  0.00    -0.153 OA
BRANCH  28  35
ATOM     31  C   UNL     1       1.151   3.592   0.010  0.00  0.00    +0.044 C 
ATOM     32  C   UNL     1       1.171   2.086   0.002  0.00  0.00    -0.050 A 
ATOM     33  C   UNL     1      -0.017   1.378   0.010  0.00  0.00    +0.005 A 
ATOM     34  C   UNL     1       0.002  -0.004   0.002  0.00  0.00    +0.029 A 
ATOM     35  C   UNL     1       1.208  -0.679  -0.013  0.00  0.00    +0.105 A 
ATOM     36  C   UNL     1       2.396   0.029  -0.021  0.00  0.00    +0.029 A 
ATOM     37  C   UNL     1       2.377   1.411  -0.015  0.00  0.00    +0.005 A 
ENDBRANCH  28  35
ENDBRANCH  26  28
ENDBRANCH  25  26
ENDBRANCH  24  25
ENDBRANCH   1  24
TORSDOF 6
