REMARK  Name = ZINC11883236
REMARK  11 active torsions:
REMARK  status: ('A' for Active; 'I' for Inactive)
REMARK    1  A    between atoms: C_1  and  C_2
REMARK    2  A    between atoms: C_2  and  C_3
REMARK    3  A    between atoms: C_2  and  N_64
REMARK    4  A    between atoms: C_9  and  N_13
REMARK    5  A    between atoms: C_10  and  C_11
REMARK    6  A    between atoms: C_14  and  C_16
REMARK    7  A    between atoms: C_19  and  S_22
REMARK    8  A    between atoms: S_22  and  N_25
REMARK    9  A    between atoms: N_25  and  C_26
REMARK   10  A    between atoms: N_25  and  C_27
REMARK   11  A    between atoms: C_27  and  C_28
REMARK                            x       y       z     vdW  Elec       q    Type
REMARK                         _______ _______ _______ _____ _____    ______ ____
ROOT
ATOM      1  N   UNL     1       3.136   7.895   1.890  0.00  0.00    -0.275 N 
ATOM      2  C   UNL     1       1.954   7.572   2.451  0.00  0.00    +0.249 C 
ATOM      3  O   UNL     1       1.250   8.442   2.926  0.00  0.00    -0.270 OA
ATOM      4  H   UNL     1       3.698   7.201   1.511  0.00  0.00    +0.156 HD
ENDROOT
BRANCH   1  10
ATOM      5  C   UNL     1       5.776  13.405   0.777  0.00  0.00    -0.073 C 
ATOM      6  C   UNL     1       6.135  11.921   0.892  0.00  0.00    +0.019 C 
ATOM      7  C   UNL     1       4.914  11.176   1.418  0.00  0.00    -0.022 A 
ATOM      8  C   UNL     1       3.912  11.857   2.022  0.00  0.00    -0.021 A 
ATOM      9  S   UNL     1       2.728  10.619   2.462  0.00  0.00    -0.079 S 
ATOM     10  C   UNL     1       3.550   9.218   1.855  0.00  0.00    +0.090 A 
ATOM     11  C   UNL     1       4.724   9.741   1.332  0.00  0.00    +0.083 A 
ATOM     12  C   UNL     1       3.854  13.334   2.251  0.00  0.00    -0.035 C 
ATOM     13  N   UNL     1       5.222  13.877   2.063  0.00  0.00    +0.384 N 
ATOM     14  H   UNL     1       5.821  13.544   2.827  0.00  0.00    -0.081 HD
BRANCH  13  16
ATOM     15  C   UNL     1       4.287  15.888   0.973  0.00  0.00    -0.014 C 
ATOM     16  C   UNL     1       5.188  15.355   2.088  0.00  0.00    -0.074 C 
ATOM     17  C   UNL     1       4.649  15.817   3.444  0.00  0.00    -0.014 C 
ENDBRANCH  13  16
BRANCH  11  18
ATOM     18  C   UNL     1       5.708   8.896   0.725  0.00  0.00    +0.102 C 
ATOM     19  N   UNL     1       6.489   8.226   0.243  0.00  0.00    -0.191 NA
ENDBRANCH  11  18
ENDBRANCH   1  10
BRANCH   2  20
ATOM     20  C   UNL     1       1.514   6.162   2.488  0.00  0.00    +0.037 A 
ATOM     21  C   UNL     1       0.290   5.825   3.068  0.00  0.00    +0.015 A 
ATOM     22  C   UNL     1      -0.116   4.507   3.099  0.00  0.00    +0.029 A 
ATOM     23  C   UNL     1       0.688   3.520   2.556  0.00  0.00    +0.106 A 
ATOM     24  C   UNL     1       1.905   3.846   1.984  0.00  0.00    +0.029 A 
ATOM     25  C   UNL     1       2.320   5.161   1.942  0.00  0.00    +0.015 A 
BRANCH  23  26
ATOM     26  S   UNL     1       0.163   1.838   2.600  0.00  0.00    +0.061 S 
ATOM     27  O   UNL     1      -0.756   1.728   3.678  0.00  0.00    -0.153 OA
ATOM     28  O   UNL     1       1.338   1.044   2.516  0.00  0.00    -0.153 OA
BRANCH  26  29
ATOM     29  N   UNL     1      -0.698   1.558   1.213  0.00  0.00    -0.177 NA
ATOM     30  C   UNL     1      -0.013   1.086   0.008  0.00  0.00    +0.131 C 
BRANCH  29  31
ATOM     31  C   UNL     1      -2.146   1.783   1.192  0.00  0.00    +0.140 C 
BRANCH  31  32
ATOM     32  C   UNL     1      -2.871   0.465   1.474  0.00  0.00    +0.134 C 
ATOM     33  C   UNL     1      -4.398   0.651   1.333  0.00  0.00    +0.035 C 
ATOM     34  C   UNL     1      -4.989  -0.237   2.451  0.00  0.00    +0.031 C 
ATOM     35  C   UNL     1      -3.748  -0.853   3.136  0.00  0.00    +0.160 C 
ATOM     36  O   UNL     1      -2.673   0.066   2.848  0.00  0.00    -0.375 OA
ENDBRANCH  31  32
ENDBRANCH  29  31
ENDBRANCH  26  29
ENDBRANCH  23  26
ENDBRANCH   2  20
TORSDOF 8
