REMARK  Name = ZINC24589937
REMARK  8 active torsions:
REMARK  status: ('A' for Active; 'I' for Inactive)
REMARK    1  A    between atoms: C_4  and  S_9
REMARK    2  A    between atoms: C_5  and  C_7
REMARK    3  A    between atoms: S_9  and  N_12
REMARK    4  A    between atoms: C_15  and  C_18
REMARK    5  A    between atoms: N_20  and  C_21
REMARK    6  A    between atoms: C_21  and  C_22
REMARK    7  A    between atoms: C_22  and  C_24
REMARK    8  A    between atoms: C_22  and  N_29
REMARK                            x       y       z     vdW  Elec       q    Type
REMARK                         _______ _______ _______ _____ _____    ______ ____
ROOT
ATOM      1  N   UNL     1      -6.610   1.921  -2.999  0.00  0.00    -0.177 NA
ATOM      2  C   UNL     1      -6.746   0.458  -3.007  0.00  0.00    +0.110 C 
ATOM      3  C   UNL     1      -5.882  -0.123  -1.883  0.00  0.00    +0.030 C 
ATOM      4  C   UNL     1      -4.444   0.375  -2.040  0.00  0.00    +0.077 C 
ATOM      5  C   UNL     1      -4.416   1.901  -1.931  0.00  0.00    +0.030 C 
ATOM      6  C   UNL     1      -5.263   2.505  -3.055  0.00  0.00    +0.110 C 
ENDROOT
BRANCH   4   7
ATOM      7  C   UNL     1      -3.584  -0.222  -0.956  0.00  0.00    +0.216 C 
ATOM      8  O   UNL     1      -4.074  -0.972  -0.138  0.00  0.00    -0.276 OA
ATOM      9  N   UNL     1      -2.272   0.078  -0.895  0.00  0.00    -0.316 N 
ATOM     10  H   UNL     1      -1.828   0.758  -1.637  0.00  0.00    +0.149 HD
BRANCH   9  11
ATOM     11  C   UNL     1      -1.436  -0.502   0.159  0.00  0.00    +0.096 C 
BRANCH  11  12
ATOM     12  C   UNL     1       0.002  -0.004   0.002  0.00  0.00    +0.016 C 
BRANCH  12  13
ATOM     13  N   UNL     1       0.013   1.465  -0.012  0.00  0.00    +0.387 N 
ATOM     14  C   UNL     1      -0.721   2.014   1.157  0.00  0.00    -0.078 C 
ATOM     15  C   UNL     1      -0.174   3.459   1.273  0.00  0.00    -0.020 C 
ATOM     16  C   UNL     1       1.319   3.293   0.907  0.00  0.00    -0.020 C 
ATOM     17  C   UNL     1       1.393   1.986   0.097  0.00  0.00    -0.078 C 
ATOM     18  H   UNL     1      -0.456   1.758  -0.963  0.00  0.00    -0.081 HD
ENDBRANCH  12  13
BRANCH  12  19
ATOM     19  C   UNL     1       0.835  -0.501   1.155  0.00  0.00    +0.093 A 
ATOM     20  C   UNL     1       1.758  -1.478   1.096  0.00  0.00    +0.043 A 
ATOM     21  C   UNL     1       2.291  -1.618   2.397  0.00  0.00    +0.041 A 
ATOM     22  C   UNL     1       1.663  -0.718   3.175  0.00  0.00    +0.195 A 
ATOM     23  O   UNL     1       0.786  -0.041   2.416  0.00  0.00    -0.469 OA
ENDBRANCH  12  19
ENDBRANCH  11  12
ENDBRANCH   9  11
ENDBRANCH   4   7
BRANCH   1  24
ATOM     24  S   UNL     1      -7.949   2.892  -2.929  0.00  0.00    +0.062 S 
ATOM     25  O   UNL     1      -7.573   4.144  -3.486  0.00  0.00    -0.153 OA
ATOM     26  O   UNL     1      -9.033   2.127  -3.438  0.00  0.00    -0.153 OA
BRANCH  24  30
ATOM     27  C   UNL     1      -8.834   3.640   1.458  0.00  0.00    +0.001 A 
ATOM     28  C   UNL     1      -8.459   4.685   0.632  0.00  0.00    +0.002 A 
ATOM     29  C   UNL     1      -8.185   4.455  -0.705  0.00  0.00    +0.030 A 
ATOM     30  C   UNL     1      -8.293   3.182  -1.225  0.00  0.00    +0.123 A 
ATOM     31  C   UNL     1      -8.671   2.123  -0.398  0.00  0.00    +0.078 A 
ATOM     32  C   UNL     1      -8.941   2.361   0.952  0.00  0.00    +0.021 A 
BRANCH  31  33
ATOM     33  C   UNL     1      -8.779   0.798  -0.930  0.00  0.00    +0.101 C 
ATOM     34  N   UNL     1      -8.866  -0.254  -1.352  0.00  0.00    -0.191 NA
ENDBRANCH  31  33
ENDBRANCH  24  30
ENDBRANCH   1  24
TORSDOF 8
