REMARK  Name = ZINC08385586
REMARK  9 active torsions:
REMARK  status: ('A' for Active; 'I' for Inactive)
REMARK    1  A    between atoms: C_1  and  C_2
REMARK    2  A    between atoms: C_2  and  C_35
REMARK    3  A    between atoms: C_4  and  N_22
REMARK    4  A    between atoms: C_6  and  C_20
REMARK    5  A    between atoms: C_6  and  C_21
REMARK    6  A    between atoms: C_8  and  C_10
REMARK    7  A    between atoms: C_14  and  N_16
REMARK    8  A    between atoms: C_23  and  C_25
REMARK    9  A    between atoms: C_29  and  N_31
REMARK                            x       y       z     vdW  Elec       q    Type
REMARK                         _______ _______ _______ _____ _____    ______ ____
ROOT
ATOM      1  C   UNL     1       4.202   1.662   1.719  0.00  0.00    +0.031 C 
ATOM      2  C   UNL     1       3.846   1.556   0.234  0.00  0.00    +0.034 C 
ATOM      3  C   UNL     1       5.089   1.141  -0.568  0.00  0.00    +0.047 C 
ATOM      4  C   UNL     1       6.140   2.249  -0.479  0.00  0.00    +0.077 C 
ATOM      5  C   UNL     1       5.580   3.536  -1.091  0.00  0.00    +0.047 C 
ATOM      6  C   UNL     1       4.345   3.977  -0.299  0.00  0.00    +0.034 C 
ATOM      7  N   UNL     1       3.388   2.863  -0.257  0.00  0.00    -0.287 N 
ATOM      8  C   UNL     1       2.112   3.037  -0.656  0.00  0.00    +0.248 C 
ATOM      9  O   UNL     1       1.798   4.041  -1.265  0.00  0.00    -0.270 OA
ATOM     10  C   UNL     1       3.699   5.182  -0.986  0.00  0.00    +0.031 C 
ATOM     11  C   UNL     1       4.753   4.357   1.125  0.00  0.00    +0.031 C 
ATOM     12  C   UNL     1       2.739   0.518   0.042  0.00  0.00    +0.031 C 
ENDROOT
BRANCH   8  13
ATOM     13  C   UNL     1       1.096   2.009  -0.352  0.00  0.00    +0.039 A 
ATOM     14  C   UNL     1       0.730   1.754   0.971  0.00  0.00    +0.014 A 
ATOM     15  C   UNL     1      -0.219   0.793   1.248  0.00  0.00    +0.023 A 
ATOM     16  C   UNL     1      -0.805   0.076   0.217  0.00  0.00    +0.071 A 
ATOM     17  C   UNL     1      -0.450   0.328  -1.098  0.00  0.00    +0.145 A 
ATOM     18  C   UNL     1       0.498   1.287  -1.387  0.00  0.00    +0.047 A 
ATOM     19 CL   UNL     1      -1.994  -1.137   0.574  0.00  0.00    -0.081 Cl
BRANCH  17  20
ATOM     20  N   UNL     1      -1.085  -0.437  -2.194  0.00  0.00    +0.058 N 
ATOM     21  O   UNL     1      -0.770  -0.219  -3.350  0.00  0.00    -0.126 OA
ATOM     22  O   UNL     1      -1.922  -1.284  -1.940  0.00  0.00    -0.126 OA
ENDBRANCH  17  20
ENDBRANCH   8  13
BRANCH   4  23
ATOM     23  N   UNL     1       7.341   1.843  -1.214  0.00  0.00    -0.308 N 
ATOM     24  C   UNL     1       8.276   1.084  -0.608  0.00  0.00    +0.244 C 
ATOM     25  O   UNL     1       8.123   0.736   0.546  0.00  0.00    -0.270 OA
ATOM     26  H   UNL     1       7.463   2.120  -2.135  0.00  0.00    +0.149 HD
BRANCH  24  27
ATOM     27  C   UNL     1       9.487   0.673  -1.349  0.00  0.00    +0.039 A 
ATOM     28  C   UNL     1       9.666   1.071  -2.675  0.00  0.00    +0.014 A 
ATOM     29  C   UNL     1      10.799   0.686  -3.361  0.00  0.00    +0.023 A 
ATOM     30  C   UNL     1      11.758  -0.094  -2.736  0.00  0.00    +0.071 A 
ATOM     31  C   UNL     1      11.586  -0.491  -1.420  0.00  0.00    +0.145 A 
ATOM     32  C   UNL     1      10.460  -0.108  -0.723  0.00  0.00    +0.047 A 
ATOM     33 CL   UNL     1      13.182  -0.574  -3.605  0.00  0.00    -0.081 Cl
BRANCH  31  34
ATOM     34  N   UNL     1      12.616  -1.324  -0.760  0.00  0.00    +0.058 N 
ATOM     35  O   UNL     1      12.466  -1.675   0.397  0.00  0.00    -0.126 OA
ATOM     36  O   UNL     1      13.614  -1.660  -1.373  0.00  0.00    -0.126 OA
ENDBRANCH  31  34
ENDBRANCH  24  27
ENDBRANCH   4  23
TORSDOF 5
