REMARK  Name = ZINC19948514
REMARK  7 active torsions:
REMARK  status: ('A' for Active; 'I' for Inactive)
REMARK    1  A    between atoms: C_5  and  C_7
REMARK    2  A    between atoms: C_9  and  C_24
REMARK    3  A    between atoms: C_11  and  N_23
REMARK    4  A    between atoms: C_14  and  S_18
REMARK    5  A    between atoms: C_15  and  C_16
REMARK    6  A    between atoms: S_18  and  C_19
REMARK    7  A    between atoms: C_19  and  C_20
REMARK                            x       y       z     vdW  Elec       q    Type
REMARK                         _______ _______ _______ _____ _____    ______ ____
ROOT
ATOM      1  C   UNL     1       2.451   3.939  -0.000  0.00  0.00    +0.083 C 
ATOM      2  C   UNL     1       2.513   4.812  -1.256  0.00  0.00    +0.138 C 
ATOM      3  C   UNL     1       3.704   5.771  -1.130  0.00  0.00    +0.154 C 
ATOM      4  N   UNL     1       3.470   6.632   0.038  0.00  0.00    -0.322 N 
ATOM      5  C   UNL     1       3.020   6.062   1.206  0.00  0.00    +0.077 C 
ATOM      6  C   UNL     1       2.526   4.797   1.232  0.00  0.00    +0.065 C 
ATOM      7  H   UNL     1       3.654   7.714  -0.031  0.00  0.00    +0.148 HD
ENDROOT
BRANCH   1  12
ATOM      8  C   UNL     1      -1.237   3.133   0.030  0.00  0.00    +0.000 A 
ATOM      9  C   UNL     1      -1.218   1.751   0.017  0.00  0.00    +0.001 A 
ATOM     10  C   UNL     1      -0.013   1.076   0.008  0.00  0.00    +0.020 A 
ATOM     11  C   UNL     1       1.176   1.784   0.000  0.00  0.00    +0.045 A 
ATOM     12  C   UNL     1       1.157   3.167   0.007  0.00  0.00    -0.020 A 
ATOM     13  C   UNL     1      -0.050   3.841   0.022  0.00  0.00    +0.006 A 
ATOM     14 CL   UNL     1       2.691   0.937  -0.017  0.00  0.00    -0.083 Cl
ENDBRANCH   1  12
BRANCH   3  15
ATOM     15  N   UNL     1       4.943   5.005  -0.942  0.00  0.00    -0.312 NA
ATOM     16  H   UNL     1       5.793   5.697  -0.852  0.00  0.00    +0.120 HD
ATOM     17  H   UNL     1       4.865   4.400  -0.026  0.00  0.00    +0.120 HD
ENDBRANCH   3  15
BRANCH   6  18
ATOM     18  C   UNL     1       2.062   4.262   2.476  0.00  0.00    +0.098 C 
ATOM     19  N   UNL     1       1.693   3.837   3.463  0.00  0.00    -0.191 NA
ENDBRANCH   6  18
BRANCH   2  20
ATOM     20  C   UNL     1       2.690   3.958  -2.442  0.00  0.00    +0.070 C 
ATOM     21  N   UNL     1       2.827   3.299  -3.357  0.00  0.00    -0.196 NA
ENDBRANCH   2  20
BRANCH   5  22
ATOM     22  S   UNL     1       3.085   6.993   2.700  0.00  0.00    -0.100 S 
BRANCH  22  23
ATOM     23  C   UNL     1       3.803   8.535   2.079  0.00  0.00    +0.171 C 
BRANCH  23  24
ATOM     24  C   UNL     1       3.956   9.511   3.216  0.00  0.00    +0.221 C 
ATOM     25  O   UNL     1       3.614   9.197   4.337  0.00  0.00    -0.275 OA
ATOM     26  N   UNL     1       4.474  10.735   2.989  0.00  0.00    -0.329 N 
ATOM     27  H   UNL     1       4.585  11.448   3.819  0.00  0.00    +0.145 HD
ATOM     28  H   UNL     1       4.784  11.021   1.973  0.00  0.00    +0.145 HD
ENDBRANCH  23  24
ENDBRANCH  22  23
ENDBRANCH   5  22
TORSDOF 7
