REMARK  Name = ZINC40645251
REMARK  9 active torsions:
REMARK  status: ('A' for Active; 'I' for Inactive)
REMARK    1  A    between atoms: C_1  and  C_2
REMARK    2  A    between atoms: C_2  and  C_32
REMARK    3  A    between atoms: C_4  and  N_10
REMARK    4  A    between atoms: C_6  and  C_8
REMARK    5  A    between atoms: C_6  and  C_9
REMARK    6  A    between atoms: C_12  and  N_29
REMARK    7  A    between atoms: C_13  and  N_17
REMARK    8  A    between atoms: N_17  and  C_18
REMARK    9  A    between atoms: C_22  and  C_24
REMARK                            x       y       z     vdW  Elec       q    Type
REMARK                         _______ _______ _______ _____ _____    ______ ____
ROOT
ATOM      1  N   UNL     1       1.268  -2.269  -2.727  0.00  0.00    -0.324 N 
ATOM      2  C   UNL     1       1.366  -3.608  -3.073  0.00  0.00    +0.155 A 
ATOM      3  C   UNL     1       1.992  -3.988  -4.256  0.00  0.00    +0.205 A 
ATOM      4  C   UNL     1       2.066  -5.344  -4.557  0.00  0.00    +0.159 A 
ATOM      5  N   UNL     1       1.538  -6.224  -3.708  0.00  0.00    -0.218 NA
ATOM      6  C   UNL     1       0.954  -5.825  -2.597  0.00  0.00    +0.225 A 
ATOM      7  N   UNL     1       0.868  -4.550  -2.274  0.00  0.00    -0.218 NA
ATOM      8  H   UNL     1       1.633  -1.589  -3.314  0.00  0.00    +0.148 HD
ENDROOT
BRANCH   1  12
ATOM      9  C   UNL     1      -0.848   1.508  -0.411  0.00  0.00    -0.010 C 
ATOM     10  C   UNL     1      -0.580  -0.011  -0.300  0.00  0.00    -0.072 C 
ATOM     11  C   UNL     1       0.081  -0.453  -1.602  0.00  0.00    +0.009 C 
ATOM     12  C   UNL     1       0.610  -1.881  -1.473  0.00  0.00    +0.069 C 
ATOM     13  C   UNL     1       1.634  -1.909  -0.338  0.00  0.00    +0.009 C 
ATOM     14  C   UNL     1       0.985  -1.478   0.974  0.00  0.00    -0.072 C 
ATOM     15  N   UNL     1       0.253  -0.229   0.870  0.00  0.00    +0.386 N 
ATOM     16  C   UNL     1       2.119  -1.274   2.005  0.00  0.00    -0.010 C 
ATOM     17  C   UNL     1       0.093  -2.605   1.504  0.00  0.00    -0.010 C 
ATOM     18  C   UNL     1      -1.942  -0.698  -0.151  0.00  0.00    -0.010 C 
ATOM     19  H   UNL     1       0.925   0.542   0.932  0.00  0.00    -0.084 HD
ATOM     20  H   UNL     1      -0.334  -0.130   1.704  0.00  0.00    -0.084 HD
ENDBRANCH   1  12
BRANCH   3  21
ATOM     21  N   UNL     1       2.564  -2.974  -5.171  0.00  0.00    +0.063 N 
ATOM     22  O   UNL     1       3.714  -2.623  -5.041  0.00  0.00    -0.126 OA
ATOM     23  O   UNL     1       1.883  -2.499  -6.049  0.00  0.00    -0.126 OA
ENDBRANCH   3  21
BRANCH   4  24
ATOM     24  N   UNL     1       2.679  -5.774  -5.725  0.00  0.00    -0.297 N 
ATOM     25  H   UNL     1       3.134  -5.136  -6.297  0.00  0.00    +0.154 HD
BRANCH  24  26
ATOM     26  C   UNL     1       2.642  -7.126  -6.078  0.00  0.00    +0.033 A 
ATOM     27  C   UNL     1       1.516  -7.889  -5.793  0.00  0.00    +0.025 A 
ATOM     28  C   UNL     1       1.483  -9.225  -6.142  0.00  0.00    +0.022 A 
ATOM     29  C   UNL     1       2.569  -9.803  -6.775  0.00  0.00    +0.053 A 
ATOM     30  C   UNL     1       3.692  -9.046  -7.059  0.00  0.00    +0.075 A 
ATOM     31  C   UNL     1       3.728  -7.708  -6.718  0.00  0.00    +0.037 A 
ATOM     32 CL   UNL     1       2.524 -11.483  -7.211  0.00  0.00    -0.083 Cl
BRANCH  30  33
ATOM     33  C   UNL     1       4.873  -9.680  -7.748  0.00  0.00    +0.419 C 
ATOM     34  F   UNL     1       5.877  -8.723  -7.927  0.00  0.00    -0.166 F 
ATOM     35  F   UNL     1       5.362 -10.729  -6.963  0.00  0.00    -0.166 F 
ATOM     36  F   UNL     1       4.475 -10.177  -8.994  0.00  0.00    -0.166 F 
ENDBRANCH  30  33
ENDBRANCH  24  26
ENDBRANCH   4  24
TORSDOF 5
