REMARK  Name = ZINC65164355
REMARK  5 active torsions:
REMARK  status: ('A' for Active; 'I' for Inactive)
REMARK    1  A    between atoms: C_1  and  C_2
REMARK    2  A    between atoms: C_2  and  C_3
REMARK    3  A    between atoms: C_2  and  C_4
REMARK    4  A    between atoms: C_7  and  S_10
REMARK    5  A    between atoms: S_10  and  N_13
REMARK                            x       y       z     vdW  Elec       q    Type
REMARK                         _______ _______ _______ _____ _____    ______ ____
ROOT
ATOM      1  S   UNL     1       2.826  -1.950  -4.962  0.00  0.00    +0.061 S 
ATOM      2  O   UNL     1       3.544  -3.118  -4.589  0.00  0.00    -0.153 OA
ATOM      3  O   UNL     1       1.860  -1.951  -6.005  0.00  0.00    -0.153 OA
ENDROOT
BRANCH   1   4
ATOM      4  N   UNL     1       3.955  -0.808  -5.364  0.00  0.00    -0.170 NA
ATOM      5  C   UNL     1       3.613   0.307  -6.260  0.00  0.00    +0.116 C 
ATOM      6  C   UNL     1       3.724   1.626  -5.484  0.00  0.00    +0.072 C 
ATOM      7  C   UNL     1       5.001   1.614  -4.686  0.00  0.00    +0.041 A 
ATOM      8  N   UNL     1       5.658   2.671  -4.132  0.00  0.00    -0.348 N 
ATOM      9  C   UNL     1       6.752   2.175  -3.509  0.00  0.00    +0.197 A 
ATOM     10  N   UNL     1       6.776   0.878  -3.669  0.00  0.00    -0.239 NA
ATOM     11  C   UNL     1       5.715   0.507  -4.389  0.00  0.00    +0.078 A 
ATOM     12  H   UNL     1       5.392   3.603  -4.175  0.00  0.00    +0.166 HD
ATOM     13  C   UNL     1       5.326  -0.881  -4.827  0.00  0.00    +0.166 C 
ENDBRANCH   1   4
BRANCH   1  17
ATOM     14  C   UNL     1       0.707  -0.490  -1.238  0.00  0.00    -0.045 A 
ATOM     15  C   UNL     1       0.222  -0.151  -2.487  0.00  0.00    +0.006 A 
ATOM     16  C   UNL     1       0.869  -0.597  -3.624  0.00  0.00    +0.029 A 
ATOM     17  C   UNL     1       2.002  -1.381  -3.513  0.00  0.00    +0.106 A 
ATOM     18  C   UNL     1       2.488  -1.720  -2.263  0.00  0.00    +0.029 A 
ATOM     19  C   UNL     1       1.843  -1.270  -1.126  0.00  0.00    +0.006 A 
BRANCH  14  21
ATOM     20  C   UNL     1      -0.019   1.526   0.010  0.00  0.00    +0.012 C 
ATOM     21  C   UNL     1       0.002  -0.004   0.002  0.00  0.00    +0.013 C 
ATOM     22  C   UNL     1      -1.433  -0.534   0.013  0.00  0.00    +0.012 C 
ENDBRANCH  14  21
ENDBRANCH   1  17
TORSDOF 3
