REMARK  Name = ZINC36017381
REMARK  14 active torsions:
REMARK  status: ('A' for Active; 'I' for Inactive)
REMARK    1  A    between atoms: C_1  and  C_2
REMARK    2  A    between atoms: C_2  and  N_3
REMARK    3  A    between atoms: C_4  and  C_24
REMARK    4  A    between atoms: C_5  and  C_19
REMARK    5  A    between atoms: C_6  and  C_11
REMARK    6  A    between atoms: C_13  and  C_18
REMARK    7  A    between atoms: C_16  and  C_17
REMARK    8  A    between atoms: C_19  and  O_21
REMARK    9  A    between atoms: O_21  and  C_22
REMARK   10  A    between atoms: C_22  and  C_23
REMARK   11  A    between atoms: C_24  and  N_25
REMARK   12  A    between atoms: N_34  and  C_35
REMARK   13  A    between atoms: C_35  and  C_36
REMARK   14  A    between atoms: C_35  and  C_37
REMARK                            x       y       z     vdW  Elec       q    Type
REMARK                         _______ _______ _______ _____ _____    ______ ____
ROOT
ATOM      1  N   UNL     1       0.482  -0.205   1.146  0.00  0.00    -0.261 N 
ATOM      2  C   UNL     1       1.799  -0.515   0.958  0.00  0.00    +0.010 C 
ATOM      3  C   UNL     1       2.502  -1.176   1.903  0.00  0.00    +0.076 C 
ATOM      4  C   UNL     1       1.779  -1.560   3.179  0.00  0.00    +0.144 C 
ATOM      5  N   UNL     1       0.361  -1.179   3.283  0.00  0.00    -0.288 N 
ATOM      6  C   UNL     1      -0.203  -0.516   2.253  0.00  0.00    +0.307 C 
ATOM      7  O   UNL     1      -1.372  -0.193   2.331  0.00  0.00    -0.252 OA
ATOM      8  H   UNL     1      -0.155  -1.397   4.075  0.00  0.00    +0.151 HD
ENDROOT
BRANCH   4   9
ATOM      9  C   UNL     1       1.870  -3.057   3.331  0.00  0.00    -0.019 A 
ATOM     10  C   UNL     1       2.195  -3.844   2.242  0.00  0.00    +0.009 A 
ATOM     11  C   UNL     1       2.278  -5.216   2.381  0.00  0.00    -0.050 A 
ATOM     12  C   UNL     1       2.036  -5.802   3.610  0.00  0.00    +0.003 A 
ATOM     13  C   UNL     1       1.712  -5.015   4.699  0.00  0.00    +0.004 A 
ATOM     14  C   UNL     1       1.633  -3.642   4.561  0.00  0.00    -0.045 A 
ATOM     15  C   UNL     1       1.285  -2.783   5.749  0.00  0.00    +0.044 C 
ATOM     16  C   UNL     1       2.632  -6.075   1.194  0.00  0.00    +0.044 C 
ENDBRANCH   4   9
BRANCH   1  18
ATOM     17  C   UNL     1      -0.134   2.018   0.336  0.00  0.00    +0.025 C 
ATOM     18  C   UNL     1      -0.218   0.512   0.078  0.00  0.00    +0.111 C 
ENDBRANCH   1  18
BRANCH   3  19
ATOM     19  C   UNL     1       3.865  -1.498   1.710  0.00  0.00    +0.339 C 
ATOM     20  O   UNL     1       4.434  -1.152   0.691  0.00  0.00    -0.245 OA
BRANCH  19  21
ATOM     21  O   UNL     1       4.536  -2.190   2.654  0.00  0.00    -0.462 OA
BRANCH  21  22
ATOM     22  C   UNL     1       5.936  -2.384   2.445  0.00  0.00    +0.229 C 
ATOM     23  C   UNL     1       6.496  -3.285   3.547  0.00  0.00    +0.048 C 
ENDBRANCH  21  22
ENDBRANCH  19  21
ENDBRANCH   3  19
BRANCH   2  24
ATOM     24  C   UNL     1       2.479  -0.114  -0.326  0.00  0.00    -0.026 C 
BRANCH  24  25
ATOM     25  N   UNL     1       2.545  -1.272  -1.228  0.00  0.00    +0.384 N 
ATOM     26  C   UNL     1       3.441  -0.944  -2.334  0.00  0.00    -0.077 C 
ATOM     27  C   UNL     1       4.093  -2.211  -2.841  0.00  0.00    +0.000 C 
ATOM     28  C   UNL     1       3.268  -2.780  -4.010  0.00  0.00    +0.107 C 
ATOM     29  N   UNL     1       1.820  -2.647  -3.752  0.00  0.00    -0.287 N 
ATOM     30  C   UNL     1       1.237  -2.910  -2.453  0.00  0.00    +0.091 C 
ATOM     31  C   UNL     1       1.229  -1.615  -1.609  0.00  0.00    -0.059 C 
ATOM     32  C   UNL     1       1.012  -2.268  -4.762  0.00  0.00    +0.302 C 
ATOM     33  O   UNL     1       1.465  -2.123  -5.881  0.00  0.00    -0.253 OA
ATOM     34  N   UNL     1      -0.298  -2.049  -4.532  0.00  0.00    -0.297 N 
ATOM     35  H   UNL     1      -0.645  -2.096  -3.627  0.00  0.00    +0.150 HD
ATOM     36  H   UNL     1       2.941  -2.048  -0.719  0.00  0.00    -0.081 HD
BRANCH  34  37
ATOM     37  C   UNL     1      -1.196  -1.740  -5.647  0.00  0.00    +0.068 C 
ATOM     38  C   UNL     1      -1.677  -3.043  -6.290  0.00  0.00    +0.027 C 
ATOM     39  C   UNL     1      -2.401  -0.953  -5.128  0.00  0.00    +0.027 C 
ENDBRANCH  34  37
ENDBRANCH  24  25
ENDBRANCH   2  24
TORSDOF 8
