REMARK  Name = ZINC38702246
REMARK  12 active torsions:
REMARK  status: ('A' for Active; 'I' for Inactive)
REMARK    1  A    between atoms: C_1  and  C_2
REMARK    2  A    between atoms: C_2  and  C_3
REMARK    3  A    between atoms: C_3  and  C_4
REMARK    4  A    between atoms: C_4  and  C_5
REMARK    5  A    between atoms: C_5  and  O_6
REMARK    6  A    between atoms: O_6  and  C_7
REMARK    7  A    between atoms: C_10  and  C_13
REMARK    8  A    between atoms: C_16  and  C_32
REMARK    9  A    between atoms: N_23  and  C_24
REMARK   10  A    between atoms: C_34  and  C_40
REMARK   11  A    between atoms: C_35  and  C_39
REMARK   12  A    between atoms: C_37  and  O_38
REMARK                            x       y       z     vdW  Elec       q    Type
REMARK                         _______ _______ _______ _____ _____    ______ ____
ROOT
ATOM      1  C   UNL     1      -7.980  -6.631   0.022  0.00  0.00    +0.142 C 
ATOM      2  C   UNL     1      -8.136  -7.256   1.382  0.00  0.00    +0.035 A 
ATOM      3  C   UNL     1      -8.230  -7.063   2.765  0.00  0.00    +0.102 A 
ATOM      4  N   UNL     1      -8.367  -8.251   3.320  0.00  0.00    -0.173 NA
ATOM      5  N   UNL     1      -8.370  -9.174   2.426  0.00  0.00    -0.272 N 
ATOM      6  H   UNL     1      -8.459 -10.123   2.605  0.00  0.00    +0.189 HD
ATOM      7  C   UNL     1      -8.228  -8.620   1.185  0.00  0.00    +0.126 A 
ATOM      8  C   UNL     1      -8.136  -8.891  -0.254  0.00  0.00    +0.266 C 
ATOM      9  O   UNL     1      -8.184  -9.997  -0.757  0.00  0.00    -0.268 OA
ATOM     10  N   UNL     1      -7.992  -7.741  -0.940  0.00  0.00    -0.280 N 
ENDROOT
BRANCH   3  11
ATOM     11  C   UNL     1      -8.182  -5.761   3.475  0.00  0.00    +0.044 A 
ATOM     12  C   UNL     1      -8.941  -4.687   3.018  0.00  0.00    +0.017 A 
ATOM     13  C   UNL     1      -8.894  -3.478   3.683  0.00  0.00    -0.047 A 
ATOM     14  C   UNL     1      -8.095  -3.329   4.802  0.00  0.00    -0.044 A 
ATOM     15  C   UNL     1      -7.338  -4.388   5.264  0.00  0.00    +0.049 A 
ATOM     16  C   UNL     1      -7.380  -5.609   4.610  0.00  0.00    +0.126 A 
ATOM     17  C   UNL     1      -8.050  -2.005   5.521  0.00  0.00    +0.044 C 
ATOM     18  C   UNL     1      -9.716  -2.316   3.187  0.00  0.00    +0.044 C 
BRANCH  16  19
ATOM     19  O   UNL     1      -6.641  -6.654   5.067  0.00  0.00    -0.506 OA
ATOM     20  H   UNL     1      -5.729  -6.659   4.747  0.00  0.00    +0.292 HD
ENDBRANCH  16  19
ENDBRANCH   3  11
BRANCH  10  21
ATOM     21  C   UNL     1      -7.869  -7.617  -2.394  0.00  0.00    +0.100 C 
ATOM     22  C   UNL     1      -9.108  -8.224  -3.074  0.00  0.00    +0.047 C 
ATOM     23  C   UNL     1      -8.849  -8.389  -4.591  0.00  0.00    +0.168 C 
ATOM     24  S   UNL     1      -7.024  -8.605  -4.669  0.00  0.00    -0.029 S 
ATOM     25  O   UNL     1      -6.733  -9.940  -5.058  0.00  0.00    -0.174 OA
ATOM     26  O   UNL     1      -6.462  -7.524  -5.401  0.00  0.00    -0.174 OA
ATOM     27  C   UNL     1      -6.617  -8.398  -2.884  0.00  0.00    +0.188 C 
ENDBRANCH  10  21
BRANCH   1  31
ATOM     28  C   UNL     1      -4.269  -4.524  -0.210  0.00  0.00    +0.121 A 
ATOM     29  C   UNL     1      -5.466  -3.822  -0.167  0.00  0.00    +0.046 A 
ATOM     30  C   UNL     1      -6.664  -4.506  -0.092  0.00  0.00    +0.009 A 
ATOM     31  C   UNL     1      -6.671  -5.888  -0.060  0.00  0.00    -0.022 A 
ATOM     32  C   UNL     1      -5.481  -6.590  -0.102  0.00  0.00    +0.009 A 
ATOM     33  C   UNL     1      -4.280  -5.911  -0.184  0.00  0.00    +0.046 A 
BRANCH  28  34
ATOM     34  O   UNL     1      -3.090  -3.854  -0.285  0.00  0.00    -0.492 OA
BRANCH  34  35
ATOM     35  C   UNL     1      -3.155  -2.426  -0.308  0.00  0.00    +0.229 C 
BRANCH  35  36
ATOM     36  C   UNL     1      -1.739  -1.853  -0.393  0.00  0.00    +0.041 C 
BRANCH  36  37
ATOM     37  C   UNL     1      -1.808  -0.325  -0.418  0.00  0.00    +0.003 C 
BRANCH  37  39
ATOM     38  C   UNL     1      -0.462   1.777  -0.529  0.00  0.00    +0.004 C 
ATOM     39  C   UNL     1      -0.393   0.249  -0.503  0.00  0.00    -0.003 C 
ENDBRANCH  37  39
ENDBRANCH  36  37
ENDBRANCH  35  36
ENDBRANCH  34  35
ENDBRANCH  28  34
ENDBRANCH   1  31
TORSDOF 9
