REMARK  Name = ZINC13506318
REMARK  10 active torsions:
REMARK  status: ('A' for Active; 'I' for Inactive)
REMARK    1  A    between atoms: C_1  and  C_2
REMARK    2  A    between atoms: C_2  and  C_3
REMARK    3  A    between atoms: C_8  and  N_9
REMARK    4  A    between atoms: N_9  and  C_10
REMARK    5  A    between atoms: C_10  and  C_12
REMARK    6  A    between atoms: C_10  and  C_18
REMARK    7  A    between atoms: N_20  and  C_21
REMARK    8  A    between atoms: C_26  and  C_28
REMARK    9  A    between atoms: C_28  and  N_29
REMARK   10  A    between atoms: C_30  and  C_32
REMARK                            x       y       z     vdW  Elec       q    Type
REMARK                         _______ _______ _______ _____ _____    ______ ____
ROOT
ATOM      1  N   UNL     1      -3.286   3.021   0.712  0.00  0.00    -0.254 N 
ATOM      2  C   UNL     1      -3.802   3.615   1.807  0.00  0.00    +0.238 C 
ATOM      3  O   UNL     1      -3.485   4.751   2.088  0.00  0.00    -0.274 OA
ENDROOT
BRANCH   1   9
ATOM      4  C   UNL     1      -4.827   1.469  -0.312  0.00  0.00    -0.026 A 
ATOM      5  C   UNL     1      -5.184   0.174  -0.634  0.00  0.00    +0.005 A 
ATOM      6  C   UNL     1      -4.379  -0.882  -0.251  0.00  0.00    +0.000 A 
ATOM      7  C   UNL     1      -3.211  -0.645   0.451  0.00  0.00    +0.002 A 
ATOM      8  C   UNL     1      -2.846   0.647   0.771  0.00  0.00    +0.024 A 
ATOM      9  C   UNL     1      -3.653   1.710   0.388  0.00  0.00    +0.041 A 
BRANCH   4  11
ATOM     10  C   UNL     1      -5.225   3.178  -2.064  0.00  0.00    +0.009 C 
ATOM     11  C   UNL     1      -5.709   2.620  -0.725  0.00  0.00    +0.033 C 
ENDBRANCH   4  11
ENDBRANCH   1   9
BRANCH   1  12
ATOM     12  C   UNL     1      -2.341   3.749  -0.139  0.00  0.00    +0.197 C 
BRANCH  12  13
ATOM     13  C   UNL     1      -1.095   4.063   0.649  0.00  0.00    -0.015 A 
ATOM     14  C   UNL     1      -0.611   3.173   1.595  0.00  0.00    +0.025 A 
ATOM     15  C   UNL     1       0.532   3.496   2.301  0.00  0.00    +0.111 A 
ATOM     16  N   UNL     1       1.166   4.630   2.076  0.00  0.00    -0.263 NA
ATOM     17  C   UNL     1       0.737   5.498   1.180  0.00  0.00    +0.111 A 
ATOM     18  C   UNL     1      -0.402   5.245   0.439  0.00  0.00    +0.025 A 
ENDBRANCH  12  13
BRANCH  12  19
ATOM     19  C   UNL     1      -1.982   2.900  -1.331  0.00  0.00    +0.239 C 
ATOM     20  O   UNL     1      -2.500   1.814  -1.480  0.00  0.00    -0.273 OA
ATOM     21  N   UNL     1      -1.086   3.349  -2.232  0.00  0.00    -0.311 N 
ATOM     22  H   UNL     1      -0.672   4.218  -2.113  0.00  0.00    +0.149 HD
BRANCH  21  23
ATOM     23  C   UNL     1      -0.737   2.524  -3.391  0.00  0.00    +0.073 C 
ATOM     24  C   UNL     1       0.425   1.574  -3.033  0.00  0.00    +0.022 C 
ATOM     25  C   UNL     1       1.282   1.518  -4.322  0.00  0.00    +0.002 C 
ATOM     26  C   UNL     1       1.211   2.976  -4.842  0.00  0.00    +0.002 C 
ATOM     27  C   UNL     1      -0.237   3.415  -4.541  0.00  0.00    +0.022 C 
ENDBRANCH  21  23
ENDBRANCH  12  19
ENDBRANCH   1  12
BRANCH   2  28
ATOM     28  C   UNL     1      -4.774   2.866   2.682  0.00  0.00    +0.201 C 
BRANCH  28  29
ATOM     29  N   UNL     1      -5.186   3.721   3.798  0.00  0.00    -0.302 N 
ATOM     30  C   UNL     1      -6.058   3.259   4.716  0.00  0.00    +0.251 C 
ATOM     31  O   UNL     1      -6.503   2.131   4.617  0.00  0.00    -0.270 OA
ATOM     32  H   UNL     1      -4.831   4.621   3.876  0.00  0.00    +0.150 HD
BRANCH  30  33
ATOM     33  C   UNL     1      -6.469   4.115   5.832  0.00  0.00    +0.074 A 
ATOM     34  C   UNL     1      -7.348   3.838   6.867  0.00  0.00    +0.021 A 
ATOM     35  C   UNL     1      -7.555   4.829   7.794  0.00  0.00    +0.008 A 
ATOM     36  C   UNL     1      -6.910   6.016   7.651  0.00  0.00    +0.046 A 
ATOM     37  S   UNL     1      -5.976   5.788   6.208  0.00  0.00    -0.092 S 
ENDBRANCH  30  33
ENDBRANCH  28  29
ENDBRANCH   2  28
TORSDOF 9
