REMARK  Name = ZINC64002752
REMARK  11 active torsions:
REMARK  status: ('A' for Active; 'I' for Inactive)
REMARK    1  A    between atoms: C_1  and  C_2
REMARK    2  A    between atoms: C_5  and  C_8
REMARK    3  A    between atoms: C_8  and  C_10
REMARK    4  A    between atoms: C_8  and  N_17
REMARK    5  A    between atoms: C_10  and  C_11
REMARK    6  A    between atoms: C_11  and  O_13
REMARK    7  A    between atoms: O_13  and  C_14
REMARK    8  A    between atoms: C_14  and  C_15
REMARK    9  A    between atoms: C_14  and  C_16
REMARK   10  A    between atoms: N_17  and  S_18
REMARK   11  A    between atoms: S_18  and  C_21
REMARK                            x       y       z     vdW  Elec       q    Type
REMARK                         _______ _______ _______ _____ _____    ______ ____
ROOT
ATOM      1  N   UNL     1       1.071  -4.801   0.870  0.00  0.00    -0.182 NA
ATOM      2  H   UNL     1       1.130  -4.465   1.778  0.00  0.00    +0.149 HD
ENDROOT
BRANCH   1   3
ATOM      3  S   UNL     1       2.075  -6.020   0.372  0.00  0.00    +0.059 S 
ATOM      4  O   UNL     1       2.930  -6.316   1.468  0.00  0.00    -0.153 OA
ATOM      5  O   UNL     1       1.250  -7.003  -0.237  0.00  0.00    -0.153 OA
BRANCH   3   6
ATOM      6  C   UNL     1       3.100  -5.363  -0.903  0.00  0.00    +0.107 A 
ATOM      7  C   UNL     1       2.647  -5.446  -2.286  0.00  0.00    +0.030 A 
ATOM      8  C   UNL     1       3.384  -4.962  -3.310  0.00  0.00    +0.027 A 
ATOM      9  C   UNL     1       4.674  -4.334  -3.037  0.00  0.00    +0.056 A 
ATOM     10  N   UNL     1       5.607  -3.781  -3.771  0.00  0.00    -0.268 N 
ATOM     11  C   UNL     1       6.617  -3.355  -2.941  0.00  0.00    +0.308 C 
ATOM     12  O   UNL     1       7.631  -2.800  -3.306  0.00  0.00    -0.252 OA
ATOM     13  N   UNL     1       6.304  -3.653  -1.636  0.00  0.00    -0.267 N 
ATOM     14  C   UNL     1       5.139  -4.248  -1.615  0.00  0.00    +0.058 A 
ATOM     15  C   UNL     1       4.277  -4.793  -0.568  0.00  0.00    +0.053 A 
ATOM     16  H   UNL     1       6.854  -3.455  -0.862  0.00  0.00    +0.156 HD
ATOM     17  H   UNL     1       5.588  -3.688  -4.736  0.00  0.00    +0.156 HD
ENDBRANCH   3   6
ENDBRANCH   1   3
BRANCH   1  18
ATOM     18  C   UNL     1       0.095  -4.229  -0.061  0.00  0.00    +0.117 C 
BRANCH  18  23
ATOM     19  C   UNL     1      -0.370   1.453   0.880  0.00  0.00    +0.044 C 
ATOM     20  C   UNL     1      -0.249  -0.029   0.634  0.00  0.00    -0.050 A 
ATOM     21  C   UNL     1      -0.253  -0.518  -0.658  0.00  0.00    +0.003 A 
ATOM     22  C   UNL     1      -0.141  -1.877  -0.884  0.00  0.00    +0.005 A 
ATOM     23  C   UNL     1      -0.025  -2.747   0.184  0.00  0.00    -0.028 A 
ATOM     24  C   UNL     1      -0.021  -2.258   1.477  0.00  0.00    +0.005 A 
ATOM     25  C   UNL     1      -0.128  -0.899   1.702  0.00  0.00    +0.003 A 
ENDBRANCH  18  23
BRANCH  18  26
ATOM     26  C   UNL     1      -1.266  -4.894   0.155  0.00  0.00    +0.145 C 
BRANCH  26  27
ATOM     27  C   UNL     1      -2.227  -4.429  -0.908  0.00  0.00    +0.309 C 
ATOM     28  O   UNL     1      -1.834  -3.734  -1.815  0.00  0.00    -0.251 OA
BRANCH  27  29
ATOM     29  O   UNL     1      -3.520  -4.786  -0.847  0.00  0.00    -0.462 OA
BRANCH  29  30
ATOM     30  C   UNL     1      -4.374  -4.309  -1.888  0.00  0.00    +0.170 C 
ATOM     31  C   UNL     1      -4.390  -5.318  -3.038  0.00  0.00    +0.052 C 
ATOM     32  C   UNL     1      -5.793  -4.134  -1.343  0.00  0.00    +0.052 C 
ENDBRANCH  29  30
ENDBRANCH  27  29
ENDBRANCH  26  27
ENDBRANCH  18  26
ENDBRANCH   1  18
TORSDOF 8
