REMARK  Name = ZINC36490542
REMARK  12 active torsions:
REMARK  status: ('A' for Active; 'I' for Inactive)
REMARK    1  A    between atoms: C_1  and  C_2
REMARK    2  A    between atoms: C_3  and  C_4
REMARK    3  A    between atoms: C_4  and  C_6
REMARK    4  A    between atoms: C_4  and  N_20
REMARK    5  A    between atoms: N_8  and  C_9
REMARK    6  A    between atoms: C_9  and  S_10
REMARK    7  A    between atoms: S_10  and  C_13
REMARK    8  A    between atoms: C_16  and  C_19
REMARK    9  A    between atoms: N_20  and  C_21
REMARK   10  A    between atoms: C_27  and  C_29
REMARK   11  A    between atoms: C_29  and  N_30
REMARK   12  A    between atoms: C_31  and  C_33
REMARK                            x       y       z     vdW  Elec       q    Type
REMARK                         _______ _______ _______ _____ _____    ______ ____
ROOT
ATOM      1  N   UNL     1       0.296  -2.472  -0.172  0.00  0.00    -0.282 N 
ATOM      2  C   UNL     1       0.857  -3.248   0.777  0.00  0.00    +0.234 C 
ATOM      3  O   UNL     1       0.167  -3.734   1.648  0.00  0.00    -0.274 OA
ENDROOT
BRANCH   1   4
ATOM      4  C   UNL     1       1.103  -1.991  -1.296  0.00  0.00    +0.077 C 
ATOM      5  C   UNL     1       0.298  -0.969  -2.101  0.00  0.00    +0.022 C 
ATOM      6  C   UNL     1       1.140  -0.468  -3.276  0.00  0.00    +0.002 C 
ATOM      7  C   UNL     1       1.514  -1.647  -4.176  0.00  0.00    +0.000 C 
ATOM      8  C   UNL     1       2.318  -2.669  -3.371  0.00  0.00    +0.002 C 
ATOM      9  C   UNL     1       1.476  -3.170  -2.197  0.00  0.00    +0.022 C 
ENDBRANCH   1   4
BRANCH   1  10
ATOM     10  C   UNL     1      -1.120  -2.108  -0.078  0.00  0.00    +0.185 C 
BRANCH  10  11
ATOM     11  C   UNL     1      -1.828  -2.515  -1.345  0.00  0.00    +0.239 C 
ATOM     12  O   UNL     1      -1.291  -3.275  -2.122  0.00  0.00    -0.273 OA
ATOM     13  N   UNL     1      -3.058  -2.034  -1.613  0.00  0.00    -0.294 N 
ATOM     14  H   UNL     1      -3.488  -1.427  -0.991  0.00  0.00    +0.150 HD
BRANCH  13  15
ATOM     15  C   UNL     1      -3.746  -2.430  -2.845  0.00  0.00    +0.278 C 
BRANCH  15  16
ATOM     16  S   UNL     1      -4.843  -3.833  -2.501  0.00  0.00    +0.013 S 
ATOM     17  O   UNL     1      -5.565  -4.189  -3.671  0.00  0.00    -0.168 OA
ATOM     18  O   UNL     1      -4.152  -4.821  -1.748  0.00  0.00    -0.168 OA
BRANCH  16  19
ATOM     19  C   UNL     1      -6.060  -3.197  -1.397  0.00  0.00    +0.090 A 
ATOM     20  C   UNL     1      -5.850  -3.249  -0.032  0.00  0.00    +0.027 A 
ATOM     21  C   UNL     1      -6.805  -2.750   0.834  0.00  0.00    +0.005 A 
ATOM     22  C   UNL     1      -7.970  -2.199   0.335  0.00  0.00    -0.050 A 
ATOM     23  C   UNL     1      -8.180  -2.146  -1.030  0.00  0.00    +0.005 A 
ATOM     24  C   UNL     1      -7.223  -2.641  -1.897  0.00  0.00    +0.027 A 
ATOM     25  C   UNL     1      -9.011  -1.656   1.279  0.00  0.00    +0.044 C 
ENDBRANCH  16  19
ENDBRANCH  15  16
ENDBRANCH  13  15
ENDBRANCH  10  11
BRANCH  10  28
ATOM     26  C   UNL     1      -0.283   1.607   0.404  0.00  0.00    +0.035 C 
ATOM     27  C   UNL     1      -0.176   0.105   0.335  0.00  0.00    -0.032 C 
ATOM     28  C   UNL     1      -1.245  -0.618   0.111  0.00  0.00    +0.000 C 
ENDBRANCH  10  28
ENDBRANCH   1  10
BRANCH   2  29
ATOM     29  C   UNL     1       2.340  -3.513   0.754  0.00  0.00    +0.200 C 
BRANCH  29  30
ATOM     30  N   UNL     1       2.686  -4.444   1.831  0.00  0.00    -0.303 N 
ATOM     31  C   UNL     1       3.967  -4.827   2.005  0.00  0.00    +0.244 C 
ATOM     32  O   UNL     1       4.834  -4.401   1.267  0.00  0.00    -0.270 OA
ATOM     33  H   UNL     1       1.994  -4.784   2.420  0.00  0.00    +0.150 HD
BRANCH  31  34
ATOM     34  C   UNL     1       4.316  -5.766   3.091  0.00  0.00    +0.037 A 
ATOM     35  C   UNL     1       3.322  -6.262   3.936  0.00  0.00    +0.013 A 
ATOM     36  C   UNL     1       3.655  -7.138   4.948  0.00  0.00    +0.001 A 
ATOM     37  C   UNL     1       4.971  -7.526   5.127  0.00  0.00    +0.000 A 
ATOM     38  C   UNL     1       5.962  -7.037   4.293  0.00  0.00    +0.001 A 
ATOM     39  C   UNL     1       5.641  -6.165   3.274  0.00  0.00    +0.013 A 
ENDBRANCH  31  34
ENDBRANCH  29  30
ENDBRANCH   2  29
TORSDOF 10
