REMARK  Name = ZINC01873972
REMARK  14 active torsions:
REMARK  status: ('A' for Active; 'I' for Inactive)
REMARK    1  A    between atoms: C_1  and  C_2
REMARK    2  A    between atoms: C_2  and  C_3
REMARK    3  A    between atoms: C_3  and  S_4
REMARK    4  A    between atoms: S_4  and  C_5
REMARK    5  A    between atoms: C_14  and  C_16
REMARK    6  A    between atoms: C_14  and  C_17
REMARK    7  A    between atoms: C_17  and  C_18
REMARK    8  A    between atoms: C_21  and  S_24
REMARK    9  A    between atoms: S_24  and  C_25
REMARK   10  A    between atoms: C_25  and  C_26
REMARK   11  A    between atoms: N_28  and  C_29
REMARK   12  A    between atoms: C_29  and  C_31
REMARK   13  A    between atoms: C_29  and  C_32
REMARK   14  A    between atoms: C_32  and  C_33
REMARK                            x       y       z     vdW  Elec       q    Type
REMARK                         _______ _______ _______ _____ _____    ______ ____
ROOT
ATOM      1  C   UNL     1       1.641  -2.747   2.702  0.00  0.00    +0.178 A 
ATOM      2  N   UNL     1       2.082  -1.791   3.486  0.00  0.00    -0.216 NA
ATOM      3  C   UNL     1       2.748  -2.045   4.610  0.00  0.00    +0.115 A 
ATOM      4  C   UNL     1       3.028  -3.351   5.038  0.00  0.00    +0.056 A 
ATOM      5  C   UNL     1       3.766  -3.468   6.290  0.00  0.00    -0.019 A 
ATOM      6  C   UNL     1       4.107  -2.316   6.914  0.00  0.00    +0.021 A 
ATOM      7  S   UNL     1       3.469  -1.031   5.878  0.00  0.00    -0.071 S 
ATOM      8  C   UNL     1       4.862  -2.196   8.201  0.00  0.00    +0.203 C 
ATOM      9  O   UNL     1       5.435  -3.479   8.498  0.00  0.00    -0.368 OA
ATOM     10  C   UNL     1       4.506  -4.560   8.383  0.00  0.00    +0.071 C 
ATOM     11  C   UNL     1       4.159  -4.806   6.912  0.00  0.00    +0.071 C 
ATOM     12  C   UNL     1       3.230  -4.215   9.154  0.00  0.00    +0.042 C 
ATOM     13  C   UNL     1       2.530  -4.423   4.148  0.00  0.00    +0.174 A 
ATOM     14  N   UNL     1       1.844  -4.067   3.007  0.00  0.00    -0.248 N 
ATOM     15  C   UNL     1       1.506  -5.247   2.402  0.00  0.00    +0.198 A 
ATOM     16  N   UNL     1       1.969  -6.216   3.157  0.00  0.00    -0.122 NA
ATOM     17  N   UNL     1       2.580  -5.732   4.182  0.00  0.00    -0.128 NA
ENDROOT
BRANCH  10  18
ATOM     18  C   UNL     1       5.126  -5.827   8.977  0.00  0.00    +0.032 C 
ATOM     19  C   UNL     1       5.341  -5.633  10.479  0.00  0.00    +0.007 C 
ENDBRANCH  10  18
BRANCH   1  20
ATOM     20  S   UNL     1       0.767  -2.325   1.232  0.00  0.00    -0.087 S 
BRANCH  20  21
ATOM     21  C   UNL     1       0.742  -0.511   1.242  0.00  0.00    +0.077 C 
BRANCH  21  23
ATOM     22  C   UNL     1      -0.019   1.526   0.010  0.00  0.00    +0.004 C 
ATOM     23  C   UNL     1       0.002  -0.004   0.002  0.00  0.00    +0.008 C 
ENDBRANCH  21  23
ENDBRANCH  20  21
ENDBRANCH   1  20
BRANCH  15  24
ATOM     24  S   UNL     1       0.617  -5.431   0.892  0.00  0.00    -0.076 S 
BRANCH  24  25
ATOM     25  C   UNL     1       0.511  -7.227   0.661  0.00  0.00    +0.173 C 
BRANCH  25  26
ATOM     26  C   UNL     1      -0.237  -7.527  -0.612  0.00  0.00    +0.224 C 
ATOM     27  O   UNL     1      -0.657  -6.619  -1.296  0.00  0.00    -0.275 OA
ATOM     28  N   UNL     1      -0.438  -8.805  -0.990  0.00  0.00    -0.312 N 
ATOM     29  H   UNL     1      -0.102  -9.532  -0.443  0.00  0.00    +0.149 HD
BRANCH  28  30
ATOM     30  C   UNL     1      -1.165  -9.096  -2.228  0.00  0.00    +0.074 C 
ATOM     31  C   UNL     1      -2.670  -9.096  -1.948  0.00  0.00    +0.028 C 
BRANCH  30  32
ATOM     32  C   UNL     1      -0.745 -10.470  -2.756  0.00  0.00    +0.057 C 
BRANCH  32  33
ATOM     33  C   UNL     1       0.710 -10.434  -3.147  0.00  0.00    -0.046 A 
ATOM     34  C   UNL     1       1.071 -10.080  -4.434  0.00  0.00    +0.004 A 
ATOM     35  C   UNL     1       2.405 -10.047  -4.793  0.00  0.00    +0.000 A 
ATOM     36  C   UNL     1       3.379 -10.367  -3.865  0.00  0.00    +0.000 A 
ATOM     37  C   UNL     1       3.018 -10.720  -2.578  0.00  0.00    +0.000 A 
ATOM     38  C   UNL     1       1.684 -10.749  -2.218  0.00  0.00    +0.004 A 
ENDBRANCH  32  33
ENDBRANCH  30  32
ENDBRANCH  28  30
ENDBRANCH  25  26
ENDBRANCH  24  25
ENDBRANCH  15  24
TORSDOF 10
