REMARK  Name = ZINC43209065
REMARK  11 active torsions:
REMARK  status: ('A' for Active; 'I' for Inactive)
REMARK    1  A    between atoms: C_3  and  N_37
REMARK    2  A    between atoms: C_6  and  C_7
REMARK    3  A    between atoms: C_7  and  C_9
REMARK    4  A    between atoms: C_7  and  N_26
REMARK    5  A    between atoms: C_9  and  C_11
REMARK    6  A    between atoms: C_9  and  C_23
REMARK    7  A    between atoms: C_11  and  N_12
REMARK    8  A    between atoms: N_12  and  C_13
REMARK    9  A    between atoms: C_13  and  C_14
REMARK   10  A    between atoms: N_26  and  C_27
REMARK   11  A    between atoms: C_27  and  C_28
REMARK                            x       y       z     vdW  Elec       q    Type
REMARK                         _______ _______ _______ _____ _____    ______ ____
ROOT
ATOM      1  C   UNL     1      -1.283  -0.789   0.006  0.00  0.00    -0.028 C 
ENDROOT
BRANCH   1   7
ATOM      2  C   UNL     1      -0.387   1.542   0.176  0.00  0.00    +0.004 A 
ATOM      3  C   UNL     1       0.665   2.438   0.224  0.00  0.00    +0.033 A 
ATOM      4  C   UNL     1       1.967   1.979   0.154  0.00  0.00    +0.126 A 
ATOM      5  C   UNL     1       2.218   0.625   0.037  0.00  0.00    +0.033 A 
ATOM      6  C   UNL     1       1.166  -0.271  -0.010  0.00  0.00    +0.004 A 
ATOM      7  C   UNL     1      -0.136   0.188   0.058  0.00  0.00    -0.061 A 
BRANCH   4   8
ATOM      8  N   UNL     1       3.093   2.939   0.204  0.00  0.00    +0.056 N 
ATOM      9  O   UNL     1       2.874   4.123   0.306  0.00  0.00    -0.126 OA
ATOM     10  O   UNL     1       4.232   2.538   0.143  0.00  0.00    -0.126 OA
ENDBRANCH   4   8
ENDBRANCH   1   7
BRANCH   1  11
ATOM     11  N   UNL     1      -0.955  -1.879  -0.922  0.00  0.00    +0.387 N 
ATOM     12  H   UNL     1      -0.080  -2.301  -0.651  0.00  0.00    -0.085 HD
ATOM     13  H   UNL     1      -1.686  -2.575  -0.896  0.00  0.00    -0.085 HD
BRANCH  11  14
ATOM     14  C   UNL     1      -0.839  -1.344  -2.285  0.00  0.00    -0.046 C 
BRANCH  14  15
ATOM     15  C   UNL     1      -0.503  -2.462  -3.238  0.00  0.00    -0.061 A 
ATOM     16  C   UNL     1       0.819  -2.779  -3.491  0.00  0.00    +0.005 A 
ATOM     17  C   UNL     1       1.132  -3.804  -4.364  0.00  0.00    +0.050 A 
ATOM     18  C   UNL     1       0.121  -4.517  -4.987  0.00  0.00    +0.166 A 
ATOM     19  C   UNL     1      -1.210  -4.199  -4.732  0.00  0.00    +0.166 A 
ATOM     20  C   UNL     1      -1.517  -3.173  -3.852  0.00  0.00    +0.051 A 
ATOM     21  O   UNL     1      -2.007  -5.036  -5.458  0.00  0.00    -0.453 OA
ATOM     22  C   UNL     1      -1.151  -5.598  -6.471  0.00  0.00    +0.466 C 
ATOM     23  O   UNL     1       0.159  -5.554  -5.874  0.00  0.00    -0.453 OA
ENDBRANCH  14  15
ENDBRANCH  11  14
ENDBRANCH   1  11
BRANCH   1  24
ATOM     24  C   UNL     1      -1.526  -1.365   1.403  0.00  0.00    +0.075 C 
BRANCH  24  25
ATOM     25  C   UNL     1      -2.756  -2.236   1.379  0.00  0.00    +0.356 C 
ATOM     26  O   UNL     1      -2.880  -3.136   2.192  0.00  0.00    -0.246 OA
ATOM     27  O   UNL     1      -3.626  -2.041   0.548  0.00  0.00    -0.246 OA
ENDBRANCH  24  25
BRANCH  24  28
ATOM     28  C   UNL     1      -0.317  -2.200   1.829  0.00  0.00    -0.069 C 
BRANCH  28  29
ATOM     29  N   UNL     1      -0.499  -2.653   3.214  0.00  0.00    +0.382 N 
ATOM     30  H   UNL     1      -0.585  -1.852   3.821  0.00  0.00    -0.085 HD
ATOM     31  H   UNL     1      -1.334  -3.215   3.277  0.00  0.00    -0.085 HD
BRANCH  29  32
ATOM     32  C   UNL     1       0.662  -3.454   3.623  0.00  0.00    -0.047 C 
BRANCH  32  33
ATOM     33  C   UNL     1       0.476  -3.919   5.044  0.00  0.00    -0.061 A 
ATOM     34  C   UNL     1       0.931  -3.139   6.091  0.00  0.00    +0.005 A 
ATOM     35  C   UNL     1       0.762  -3.561   7.396  0.00  0.00    +0.050 A 
ATOM     36  C   UNL     1       0.137  -4.768   7.659  0.00  0.00    +0.166 A 
ATOM     37  C   UNL     1      -0.321  -5.555   6.605  0.00  0.00    +0.166 A 
ATOM     38  C   UNL     1      -0.154  -5.123   5.299  0.00  0.00    +0.051 A 
ATOM     39  O   UNL     1      -0.894  -6.683   7.119  0.00  0.00    -0.453 OA
ATOM     40  C   UNL     1      -0.418  -6.771   8.475  0.00  0.00    +0.466 C 
ATOM     41  O   UNL     1      -0.149  -5.403   8.833  0.00  0.00    -0.453 OA
ENDBRANCH  32  33
ENDBRANCH  29  32
ENDBRANCH  28  29
ENDBRANCH  24  28
ENDBRANCH   1  24
TORSDOF 11
