REMARK  Name = ZINC38872486
REMARK  4 active torsions:
REMARK  status: ('A' for Active; 'I' for Inactive)
REMARK    1  A    between atoms: C_12  and  C_14
REMARK    2  A    between atoms: N_17  and  C_20
REMARK    3  A    between atoms: C_20  and  C_21
REMARK    4  A    between atoms: C_23  and  C_26
REMARK                            x       y       z     vdW  Elec       q    Type
REMARK                         _______ _______ _______ _____ _____    ______ ____
ROOT
ATOM      1  C   UNL     1       6.018  -0.905  -0.587  0.00  0.00    +0.072 C 
ATOM      2  C   UNL     1       6.447  -1.174   0.858  0.00  0.00    -0.006 C 
ATOM      3  C   UNL     1       7.799  -1.891   0.858  0.00  0.00    -0.077 C 
ATOM      4  N   UNL     1       8.803  -1.050   0.195  0.00  0.00    +0.386 N 
ATOM      5  C   UNL     1       8.434  -0.848  -1.211  0.00  0.00    -0.077 C 
ATOM      6  C   UNL     1       7.107  -0.090  -1.290  0.00  0.00    -0.006 C 
ATOM      7  H   UNL     1       8.852  -0.156   0.661  0.00  0.00    -0.081 HD
ENDROOT
BRANCH   1  19
ATOM      8  C   UNL     1      -0.017   1.378   0.010  0.00  0.00    +0.002 A 
ATOM      9  C   UNL     1       1.167   2.094   0.002  0.00  0.00    +0.002 A 
ATOM     10  C   UNL     1       2.381   1.430  -0.011  0.00  0.00    +0.025 A 
ATOM     11  C   UNL     1       2.406   0.047  -0.018  0.00  0.00    +0.058 A 
ATOM     12  C   UNL     1       1.213  -0.677  -0.014  0.00  0.00    +0.055 A 
ATOM     13  C   UNL     1       0.002  -0.004   0.002  0.00  0.00    +0.025 A 
ATOM     14  N   UNL     1       1.254  -2.076  -0.032  0.00  0.00    -0.283 N 
ATOM     15  C   UNL     1       2.399  -2.734   0.232  0.00  0.00    +0.235 C 
ATOM     16  O   UNL     1       2.422  -3.945   0.168  0.00  0.00    -0.274 OA
ATOM     17  C   UNL     1       3.652  -1.984   0.605  0.00  0.00    +0.209 C 
ATOM     18  N   UNL     1       3.622  -0.656  -0.025  0.00  0.00    -0.261 N 
ATOM     19  C   UNL     1       4.725  -0.130  -0.593  0.00  0.00    +0.223 C 
ATOM     20  O   UNL     1       4.678   0.967  -1.108  0.00  0.00    -0.275 OA
ATOM     21  H   UNL     1       0.450  -2.577  -0.237  0.00  0.00    +0.155 HD
ENDBRANCH   1  19
BRANCH   4  22
ATOM     22  C   UNL     1      10.114  -1.708   0.266  0.00  0.00    +0.022 C 
BRANCH  22  23
ATOM     23  C   UNL     1      11.167  -0.792  -0.304  0.00  0.00    +0.211 A 
ATOM     24  N   UNL     1      11.860   0.083   0.368  0.00  0.00    -0.193 NA
ATOM     25  C   UNL     1      12.709   0.727  -0.452  0.00  0.00    +0.203 A 
ATOM     26  N   UNL     1      12.556   0.256  -1.665  0.00  0.00    -0.056 NA
ATOM     27  O   UNL     1      11.553  -0.745  -1.585  0.00  0.00    -0.340 OA
BRANCH  25  28
ATOM     28  C   UNL     1      13.659   1.793  -0.050  0.00  0.00    +0.041 A 
ATOM     29  C   UNL     1      13.729   2.202   1.280  0.00  0.00    +0.014 A 
ATOM     30  C   UNL     1      14.616   3.193   1.649  0.00  0.00    +0.021 A 
ATOM     31  C   UNL     1      15.435   3.782   0.700  0.00  0.00    +0.042 A 
ATOM     32  C   UNL     1      15.369   3.380  -0.623  0.00  0.00    +0.040 A 
ATOM     33  C   UNL     1      14.490   2.384  -1.001  0.00  0.00    +0.053 A 
ATOM     34 CL   UNL     1      14.414   1.875  -2.659  0.00  0.00    -0.083 Cl
ATOM     35 CL   UNL     1      16.547   5.029   1.172  0.00  0.00    -0.083 Cl
ENDBRANCH  25  28
ENDBRANCH  22  23
ENDBRANCH   4  22
TORSDOF 4
