REMARK  Name = ZINC38626422
REMARK  15 active torsions:
REMARK  status: ('A' for Active; 'I' for Inactive)
REMARK    1  A    between atoms: C_1  and  C_2
REMARK    2  A    between atoms: C_2  and  O_3
REMARK    3  A    between atoms: O_3  and  C_4
REMARK    4  A    between atoms: C_4  and  C_6
REMARK    5  A    between atoms: C_8  and  N_20
REMARK    6  A    between atoms: C_11  and  O_18
REMARK    7  A    between atoms: C_12  and  O_16
REMARK    8  A    between atoms: O_16  and  C_17
REMARK    9  A    between atoms: O_18  and  C_19
REMARK   10  A    between atoms: C_21  and  C_23
REMARK   11  A    between atoms: C_23  and  N_24
REMARK   12  A    between atoms: N_27  and  C_32
REMARK   13  A    between atoms: C_28  and  C_31
REMARK   14  A    between atoms: C_35  and  O_38
REMARK   15  A    between atoms: O_38  and  C_39
REMARK                            x       y       z     vdW  Elec       q    Type
REMARK                         _______ _______ _______ _____ _____    ______ ____
ROOT
ATOM      1  N   UNL     1      -3.340  -2.754  -2.759  0.00  0.00    -0.285 N 
ATOM      2  C   UNL     1      -4.113  -2.606  -3.853  0.00  0.00    +0.231 C 
ATOM      3  O   UNL     1      -4.988  -3.410  -4.091  0.00  0.00    -0.274 OA
ATOM      4  H   UNL     1      -2.680  -2.080  -2.536  0.00  0.00    +0.155 HD
ENDROOT
BRANCH   1   6
ATOM      5  C   UNL     1      -4.508  -4.960  -2.116  0.00  0.00    +0.234 C 
ATOM      6  C   UNL     1      -3.487  -3.854  -1.964  0.00  0.00    +0.053 C 
ATOM      7  C   UNL     1      -2.734  -4.188  -0.856  0.00  0.00    +0.021 A 
ATOM      8  C   UNL     1      -1.639  -3.549  -0.219  0.00  0.00    +0.061 A 
ATOM      9  C   UNL     1      -1.077  -4.112   0.879  0.00  0.00    +0.162 A 
ATOM     10  C   UNL     1      -1.556  -5.325   1.409  0.00  0.00    +0.163 A 
ATOM     11  C   UNL     1      -2.603  -5.988   0.846  0.00  0.00    +0.075 A 
ATOM     12  C   UNL     1      -3.238  -5.457  -0.303  0.00  0.00    +0.049 A 
ATOM     13  N   UNL     1      -4.253  -5.902  -1.022  0.00  0.00    -0.367 N 
ATOM     14  H   UNL     1      -4.749  -6.718  -0.854  0.00  0.00    +0.161 HD
BRANCH   5  15
ATOM     15  C   UNL     1      -5.902  -4.398  -2.002  0.00  0.00    +0.336 C 
ATOM     16  O   UNL     1      -6.316  -4.022  -0.931  0.00  0.00    -0.248 OA
BRANCH  15  17
ATOM     17  O   UNL     1      -6.683  -4.314  -3.090  0.00  0.00    -0.463 OA
BRANCH  17  19
ATOM     18  C   UNL     1      -8.729  -3.757  -4.250  0.00  0.00    +0.048 C 
ATOM     19  C   UNL     1      -7.993  -3.772  -2.909  0.00  0.00    +0.229 C 
ENDBRANCH  17  19
ENDBRANCH  15  17
ENDBRANCH   5  15
BRANCH  10  20
ATOM     20  O   UNL     1      -0.959  -5.848   2.510  0.00  0.00    -0.491 OA
ATOM     21  C   UNL     1      -1.483  -7.080   3.009  0.00  0.00    +0.277 C 
ENDBRANCH  10  20
BRANCH   9  22
ATOM     22  O   UNL     1      -0.027  -3.492   1.482  0.00  0.00    -0.491 OA
ATOM     23  C   UNL     1       0.420  -2.264   0.904  0.00  0.00    +0.277 C 
ENDBRANCH   9  22
ENDBRANCH   1   6
BRANCH   2  24
ATOM     24  C   UNL     1      -3.889  -1.440  -4.781  0.00  0.00    +0.180 C 
BRANCH  24  25
ATOM     25  N   UNL     1      -4.851  -1.503  -5.888  0.00  0.00    -0.291 NA
ATOM     26  C   UNL     1      -4.607  -2.681  -6.731  0.00  0.00    +0.104 C 
ATOM     27  C   UNL     1      -5.735  -2.811  -7.761  0.00  0.00    +0.121 C 
ATOM     28  N   UNL     1      -5.851  -1.538  -8.489  0.00  0.00    -0.325 N 
ATOM     29  C   UNL     1      -5.961  -0.297  -7.708  0.00  0.00    +0.084 C 
ATOM     30  C   UNL     1      -4.824  -0.266  -6.681  0.00  0.00    +0.107 C 
ATOM     31  C   UNL     1      -5.848   0.910  -8.642  0.00  0.00    +0.029 C 
BRANCH  28  32
ATOM     32  C   UNL     1      -5.856  -1.510  -9.888  0.00  0.00    +0.030 A 
ATOM     33  C   UNL     1      -4.658  -1.552 -10.589  0.00  0.00    +0.027 A 
ATOM     34  C   UNL     1      -4.665  -1.524 -11.970  0.00  0.00    +0.047 A 
ATOM     35  C   UNL     1      -5.867  -1.454 -12.657  0.00  0.00    +0.120 A 
ATOM     36  C   UNL     1      -7.065  -1.410 -11.958  0.00  0.00    +0.047 A 
ATOM     37  C   UNL     1      -7.060  -1.444 -10.577  0.00  0.00    +0.027 A 
BRANCH  35  38
ATOM     38  O   UNL     1      -5.873  -1.426 -14.016  0.00  0.00    -0.495 OA
ATOM     39  C   UNL     1      -7.147  -1.353 -14.659  0.00  0.00    +0.277 C 
ENDBRANCH  35  38
ENDBRANCH  28  32
ENDBRANCH  24  25
ENDBRANCH   2  24
TORSDOF 10
