REMARK  Name = ZINC20027249
REMARK  12 active torsions:
REMARK  status: ('A' for Active; 'I' for Inactive)
REMARK    1  A    between atoms: C_1  and  C_2
REMARK    2  A    between atoms: C_2  and  C_3
REMARK    3  A    between atoms: C_2  and  O_4
REMARK    4  A    between atoms: O_4  and  C_5
REMARK    5  A    between atoms: C_6  and  O_32
REMARK    6  A    between atoms: C_8  and  C_12
REMARK    7  A    between atoms: N_17  and  C_31
REMARK    8  A    between atoms: C_21  and  C_29
REMARK    9  A    between atoms: C_22  and  N_28
REMARK   10  A    between atoms: C_23  and  C_24
REMARK   11  A    between atoms: C_23  and  C_26
REMARK   12  A    between atoms: O_32  and  C_33
REMARK                            x       y       z     vdW  Elec       q    Type
REMARK                         _______ _______ _______ _____ _____    ______ ____
ROOT
ATOM      1  C   UNL     1      -0.297  -0.988  -2.299  0.00  0.00    +0.068 C 
ATOM      2  C   UNL     1       0.592  -0.568  -1.127  0.00  0.00    +0.044 C 
ATOM      3  C   UNL     1      -0.223  -0.101   0.059  0.00  0.00    +0.093 C 
ATOM      4  N   UNL     1      -0.303   1.360   0.129  0.00  0.00    -0.301 NA
ATOM      5  C   UNL     1       1.047   1.938   0.254  0.00  0.00    +0.111 C 
ATOM      6  C   UNL     1       1.813   1.589  -0.998  0.00  0.00    -0.007 C 
ATOM      7  C   UNL     1       1.573   0.453  -1.627  0.00  0.00    -0.026 C 
ATOM      8  C   UNL     1       2.249   0.167  -2.917  0.00  0.00    +0.074 C 
ATOM      9  C   UNL     1       1.761  -0.812  -3.720  0.00  0.00    +0.054 C 
ATOM     10  C   UNL     1       0.572  -1.654  -3.366  0.00  0.00    +0.188 C 
ATOM     11  C   UNL     1      -1.163   1.788   1.240  0.00  0.00    +0.105 C 
ENDROOT
BRANCH   1  15
ATOM     12  C   UNL     1      -2.205   2.461  -3.958  0.00  0.00    +0.180 A 
ATOM     13  C   UNL     1      -2.814   1.759  -2.922  0.00  0.00    +0.163 A 
ATOM     14  C   UNL     1      -2.193   0.642  -2.387  0.00  0.00    +0.053 A 
ATOM     15  C   UNL     1      -0.971   0.227  -2.882  0.00  0.00    -0.036 A 
ATOM     16  C   UNL     1      -0.362   0.926  -3.908  0.00  0.00    +0.028 A 
ATOM     17  C   UNL     1      -0.980   2.040  -4.450  0.00  0.00    +0.086 A 
ATOM     18 CL   UNL     1      -0.216   2.913  -5.742  0.00  0.00    -0.080 Cl
BRANCH  13  19
ATOM     19  O   UNL     1      -4.016   2.168  -2.436  0.00  0.00    -0.491 OA
ATOM     20  C   UNL     1      -4.582   1.399  -1.373  0.00  0.00    +0.277 C 
ENDBRANCH  13  19
BRANCH  12  21
ATOM     21  O   UNL     1      -2.811   3.559  -4.486  0.00  0.00    -0.484 OA
BRANCH  21  23
ATOM     22  C   UNL     1      -1.293   5.437  -4.591  0.00  0.00    +0.051 C 
ATOM     23  C   UNL     1      -2.504   4.820  -3.888  0.00  0.00    +0.168 C 
ATOM     24  C   UNL     1      -3.706   5.756  -4.026  0.00  0.00    +0.051 C 
ENDBRANCH  21  23
ENDBRANCH  12  21
ENDBRANCH   1  15
BRANCH   9  25
ATOM     25  N   UNL     1       2.386  -1.043  -4.913  0.00  0.00    -0.358 N 
ATOM     26  H   UNL     1       2.014  -1.830  -5.585  0.00  0.00    +0.142 HD
ATOM     27  H   UNL     1       3.261  -0.442  -5.200  0.00  0.00    +0.142 HD
ENDBRANCH   9  25
BRANCH  10  28
ATOM     28  C   UNL     1      -0.238  -1.873  -4.576  0.00  0.00    +0.091 C 
ATOM     29  N   UNL     1      -0.862  -2.042  -5.510  0.00  0.00    -0.194 NA
ENDBRANCH  10  28
BRANCH  10  30
ATOM     30  C   UNL     1       1.039  -2.955  -2.860  0.00  0.00    +0.091 C 
ATOM     31  N   UNL     1       1.399  -3.959  -2.469  0.00  0.00    -0.194 NA
ENDBRANCH  10  30
BRANCH   8  32
ATOM     32  C   UNL     1       3.405   0.916  -3.310  0.00  0.00    +0.101 C 
ATOM     33  N   UNL     1       4.322   1.510  -3.622  0.00  0.00    -0.191 NA
ENDBRANCH   8  32
TORSDOF 8
