REMARK  Name = ZINC57549672
REMARK  6 active torsions:
REMARK  status: ('A' for Active; 'I' for Inactive)
REMARK    1  A    between atoms: C_1  and  C_2
REMARK    2  A    between atoms: C_2  and  C_3
REMARK    3  A    between atoms: C_2  and  C_15
REMARK    4  A    between atoms: C_2  and  N_18
REMARK    5  A    between atoms: C_6  and  C_9
REMARK    6  A    between atoms: N_18  and  N_19
REMARK                            x       y       z     vdW  Elec       q    Type
REMARK                         _______ _______ _______ _____ _____    ______ ____
ROOT
ATOM      1  C   UNL     1       0.731  -0.503   1.223  0.00  0.00    -0.046 A 
ATOM      2  C   UNL     1       0.080  -1.317   2.132  0.00  0.00    +0.003 A 
ATOM      3  C   UNL     1       0.749  -1.774   3.252  0.00  0.00    +0.004 A 
ATOM      4  C   UNL     1       2.068  -1.419   3.462  0.00  0.00    -0.044 A 
ATOM      5  C   UNL     1       2.719  -0.607   2.553  0.00  0.00    +0.004 A 
ATOM      6  C   UNL     1       2.052  -0.152   1.431  0.00  0.00    +0.003 A 
ENDROOT
BRANCH   4   7
ATOM      7  C   UNL     1       2.797  -1.918   4.684  0.00  0.00    +0.019 C 
ATOM      8  C   UNL     1       3.264  -0.726   5.521  0.00  0.00    +0.008 C 
ATOM      9  C   UNL     1       4.004  -1.232   6.761  0.00  0.00    +0.001 C 
ATOM     10  C   UNL     1       5.217  -2.058   6.330  0.00  0.00    +0.000 C 
ATOM     11  C   UNL     1       4.750  -3.251   5.492  0.00  0.00    +0.001 C 
ATOM     12  C   UNL     1       4.010  -2.744   4.252  0.00  0.00    +0.008 C 
ENDBRANCH   4   7
BRANCH   1  14
ATOM     13  C   UNL     1      -0.019   1.526   0.010  0.00  0.00    +0.009 C 
ATOM     14  C   UNL     1       0.002  -0.004   0.002  0.00  0.00    +0.076 C 
BRANCH  14  15
ATOM     15  C   UNL     1       0.707  -0.490  -1.238  0.00  0.00    +0.352 C 
ATOM     16  O   UNL     1       1.869  -0.179  -1.440  0.00  0.00    -0.247 OA
ATOM     17  O   UNL     1       0.117  -1.195  -2.039  0.00  0.00    -0.247 OA
ENDBRANCH  14  15
BRANCH  14  18
ATOM     18  N   UNL     1      -1.376  -0.512   0.012  0.00  0.00    +0.399 N 
ATOM     19  H   UNL     1      -1.362  -1.521   0.007  0.00  0.00    -0.059 HD
ATOM     20  H   UNL     1      -1.848  -0.187   0.843  0.00  0.00    -0.059 HD
BRANCH  18  21
ATOM     21  N   UNL     1      -2.079  -0.031  -1.165  0.00  0.00    -0.380 NA
ATOM     22  H   UNL     1      -3.030  -0.367  -1.181  0.00  0.00    +0.098 HD
ATOM     23  H   UNL     1      -2.051   0.976  -1.217  0.00  0.00    +0.098 HD
ENDBRANCH  18  21
ENDBRANCH  14  18
ENDBRANCH   1  14
TORSDOF 5
