REMARK  Name = ZINC20589556
REMARK  9 active torsions:
REMARK  status: ('A' for Active; 'I' for Inactive)
REMARK    1  A    between atoms: C_4  and  C_7
REMARK    2  A    between atoms: C_12  and  C_13
REMARK    3  A    between atoms: C_16  and  O_20
REMARK    4  A    between atoms: C_18  and  O_19
REMARK    5  A    between atoms: O_20  and  C_21
REMARK    6  A    between atoms: C_21  and  C_22
REMARK    7  A    between atoms: C_22  and  N_23
REMARK    8  A    between atoms: N_26  and  C_29
REMARK    9  A    between atoms: C_29  and  C_30
REMARK                            x       y       z     vdW  Elec       q    Type
REMARK                         _______ _______ _______ _____ _____    ______ ____
ROOT
ATOM      1  C   UNL     1       3.206  -2.115   1.973  0.00  0.00    +0.044 A 
ATOM      2  C   UNL     1       1.899  -1.647   2.098  0.00  0.00    +0.017 A 
ATOM      3  C   UNL     1       1.107  -2.082   3.140  0.00  0.00    +0.046 A 
ATOM      4  C   UNL     1       1.609  -2.986   4.068  0.00  0.00    +0.124 A 
ATOM      5  C   UNL     1       2.909  -3.456   3.952  0.00  0.00    +0.091 A 
ATOM      6  C   UNL     1       3.708  -3.030   2.905  0.00  0.00    +0.130 A 
ENDROOT
BRANCH   1  12
ATOM      7  C   UNL     1       3.680  -1.578  -0.511  0.00  0.00    +0.027 A 
ATOM      8  C   UNL     1       4.747  -1.094  -1.206  0.00  0.00    +0.114 A 
ATOM      9  N   UNL     1       5.749  -0.879  -0.330  0.00  0.00    -0.284 N 
ATOM     10  H   UNL     1       6.630  -0.535  -0.548  0.00  0.00    +0.188 HD
ATOM     11  N   UNL     1       5.303  -1.234   0.949  0.00  0.00    -0.173 NA
ATOM     12  C   UNL     1       4.059  -1.650   0.854  0.00  0.00    +0.104 A 
BRANCH   7  16
ATOM     13  C   UNL     1      -0.100  -2.654  -2.133  0.00  0.00    +0.000 A 
ATOM     14  C   UNL     1       0.404  -1.383  -2.345  0.00  0.00    +0.001 A 
ATOM     15  C   UNL     1       1.630  -1.029  -1.820  0.00  0.00    +0.008 A 
ATOM     16  C   UNL     1       2.361  -1.953  -1.076  0.00  0.00    -0.014 A 
ATOM     17  C   UNL     1       1.848  -3.232  -0.866  0.00  0.00    +0.008 A 
ATOM     18  C   UNL     1       0.621  -3.576  -1.395  0.00  0.00    +0.001 A 
ENDBRANCH   7  16
ENDBRANCH   1  12
BRANCH   6  19
ATOM     19  O   UNL     1       4.979  -3.494   2.786  0.00  0.00    -0.506 OA
ATOM     20  H   UNL     1       5.638  -2.961   3.251  0.00  0.00    +0.292 HD
ENDBRANCH   6  19
BRANCH   4  21
ATOM     21  O   UNL     1       0.825  -3.410   5.093  0.00  0.00    -0.491 OA
BRANCH  21  22
ATOM     22  C   UNL     1      -0.503  -2.885   5.154  0.00  0.00    +0.244 C 
BRANCH  22  23
ATOM     23  C   UNL     1      -1.229  -3.473   6.366  0.00  0.00    +0.125 C 
BRANCH  23  24
ATOM     24  N   UNL     1      -0.574  -3.015   7.598  0.00  0.00    -0.303 NA
ATOM     25  C   UNL     1      -0.733  -1.565   7.772  0.00  0.00    +0.066 C 
ATOM     26  C   UNL     1       0.012  -1.120   9.032  0.00  0.00    -0.063 C 
ATOM     27  N   UNL     1      -0.528  -1.832  10.198  0.00  0.00    +0.384 N 
ATOM     28  C   UNL     1      -0.340  -3.278  10.021  0.00  0.00    -0.063 C 
ATOM     29  C   UNL     1      -1.088  -3.740   8.769  0.00  0.00    +0.066 C 
ATOM     30  H   UNL     1      -1.513  -1.630  10.288  0.00  0.00    -0.081 HD
BRANCH  27  31
ATOM     31  C   UNL     1       0.175  -1.391  11.410  0.00  0.00    -0.043 C 
BRANCH  31  32
ATOM     32  C   UNL     1      -0.460  -2.029  12.619  0.00  0.00    -0.060 A 
ATOM     33  C   UNL     1      -1.504  -1.393  13.265  0.00  0.00    +0.005 A 
ATOM     34  C   UNL     1      -2.090  -1.974  14.374  0.00  0.00    +0.050 A 
ATOM     35  C   UNL     1      -1.632  -3.195  14.841  0.00  0.00    +0.166 A 
ATOM     36  C   UNL     1      -0.581  -3.836  14.190  0.00  0.00    +0.166 A 
ATOM     37  C   UNL     1      -0.002  -3.250  13.075  0.00  0.00    +0.051 A 
ATOM     38  O   UNL     1      -0.318  -5.010  14.835  0.00  0.00    -0.453 OA
ATOM     39  C   UNL     1      -0.944  -4.888  16.125  0.00  0.00    +0.466 C 
ATOM     40  O   UNL     1      -2.028  -3.968  15.894  0.00  0.00    -0.453 OA
ENDBRANCH  31  32
ENDBRANCH  27  31
ENDBRANCH  23  24
ENDBRANCH  22  23
ENDBRANCH  21  22
ENDBRANCH   4  21
TORSDOF 9
