REMARK  Name = ZINC65009430
REMARK  10 active torsions:
REMARK  status: ('A' for Active; 'I' for Inactive)
REMARK    1  A    between atoms: C_1  and  C_2
REMARK    2  A    between atoms: C_5  and  C_17
REMARK    3  A    between atoms: C_7  and  S_8
REMARK    4  A    between atoms: S_8  and  N_11
REMARK    5  A    between atoms: C_20  and  N_23
REMARK    6  A    between atoms: N_23  and  C_24
REMARK    7  A    between atoms: C_24  and  C_25
REMARK    8  A    between atoms: C_25  and  C_26
REMARK    9  A    between atoms: C_26  and  C_27
REMARK   10  A    between atoms: C_26  and  C_28
REMARK                            x       y       z     vdW  Elec       q    Type
REMARK                         _______ _______ _______ _____ _____    ______ ____
ROOT
ATOM      1  C   UNL     1      -0.347   1.429   0.029  0.00  0.00    +0.046 C 
ATOM      2  C   UNL     1      -0.138  -0.063   0.024  0.00  0.00    -0.024 A 
ATOM      3  C   UNL     1      -0.225  -0.767  -1.164  0.00  0.00    +0.006 A 
ATOM      4  C   UNL     1      -0.034  -2.134  -1.175  0.00  0.00    +0.010 A 
ATOM      5  C   UNL     1       0.246  -2.805   0.013  0.00  0.00    +0.004 A 
ATOM      6  C   UNL     1       0.333  -2.091   1.207  0.00  0.00    +0.039 A 
ATOM      7  C   UNL     1       0.146  -0.724   1.206  0.00  0.00    +0.109 A 
ENDROOT
BRANCH   5   8
ATOM      8  C   UNL     1       0.452  -4.274   0.008  0.00  0.00    +0.091 A 
ATOM      9  C   UNL     1       0.468  -4.976  -1.202  0.00  0.00    +0.033 A 
ATOM     10  C   UNL     1       0.663  -6.344  -1.156  0.00  0.00    +0.045 A 
ATOM     11  C   UNL     1       0.832  -6.941   0.095  0.00  0.00    +0.113 A 
ATOM     12  N   UNL     1       0.802  -6.196   1.191  0.00  0.00    -0.264 N 
ATOM     13  N   UNL     1       0.626  -4.926   1.150  0.00  0.00    -0.172 NA
ATOM     14  H   UNL     1       0.920  -6.626   2.053  0.00  0.00    +0.190 HD
BRANCH  11  15
ATOM     15  N   UNL     1       1.030  -8.313   0.190  0.00  0.00    -0.329 N 
ATOM     16  H   UNL     1       1.147  -8.726   1.060  0.00  0.00    +0.147 HD
BRANCH  15  17
ATOM     17  C   UNL     1       1.063  -9.135  -1.022  0.00  0.00    +0.103 C 
BRANCH  17  18
ATOM     18  C   UNL     1       1.294 -10.598  -0.640  0.00  0.00    +0.021 C 
BRANCH  18  19
ATOM     19  C   UNL     1       1.328 -11.456  -1.907  0.00  0.00    -0.016 C 
ATOM     20  C   UNL     1       1.682 -12.898  -1.536  0.00  0.00    +0.007 C 
ATOM     21  C   UNL     1      -0.046 -11.425  -2.581  0.00  0.00    +0.007 C 
ENDBRANCH  18  19
ENDBRANCH  17  18
ENDBRANCH  15  17
ENDBRANCH  11  15
ENDBRANCH   5   8
BRANCH   7  22
ATOM     22  S   UNL     1       0.263   0.182   2.713  0.00  0.00    +0.061 S 
ATOM     23  O   UNL     1      -0.847   1.069   2.741  0.00  0.00    -0.153 OA
ATOM     24  O   UNL     1       0.504  -0.770   3.740  0.00  0.00    -0.153 OA
BRANCH  22  25
ATOM     25  N   UNL     1       1.621   1.125   2.613  0.00  0.00    -0.172 NA
ATOM     26  C   UNL     1       2.947   0.580   2.941  0.00  0.00    +0.137 C 
ATOM     27  C   UNL     1       3.904   0.910   1.789  0.00  0.00    +0.177 C 
ATOM     28  O   UNL     1       3.844   2.312   1.514  0.00  0.00    -0.377 OA
ATOM     29  C   UNL     1       2.561   2.768   1.079  0.00  0.00    +0.177 C 
ATOM     30  C   UNL     1       1.536   2.531   2.188  0.00  0.00    +0.137 C 
ENDBRANCH  22  25
ENDBRANCH   7  22
TORSDOF 7
