REMARK  Name = ZINC09846891
REMARK  6 active torsions:
REMARK  status: ('A' for Active; 'I' for Inactive)
REMARK    1  A    between atoms: C_1  and  C_2
REMARK    2  A    between atoms: C_2  and  O_3
REMARK    3  A    between atoms: O_3  and  C_4
REMARK    4  A    between atoms: C_4  and  C_6
REMARK    5  A    between atoms: C_7  and  N_34
REMARK    6  A    between atoms: C_24  and  C_27
REMARK                            x       y       z     vdW  Elec       q    Type
REMARK                         _______ _______ _______ _____ _____    ______ ____
ROOT
ATOM      1  C   UNL     1      -0.781   1.574   3.566  0.00  0.00    +0.117 C 
ATOM      2  C   UNL     1      -0.289   1.150   4.761  0.00  0.00    +0.195 C 
ATOM      3  O   UNL     1      -0.826   1.556   5.920  0.00  0.00    -0.446 OA
ATOM      4  C   UNL     1      -1.573   2.675   5.967  0.00  0.00    +0.116 C 
ATOM      5  C   UNL     1      -2.140   3.188   4.858  0.00  0.00    +0.057 C 
ATOM      6  C   UNL     1      -1.950   2.514   3.524  0.00  0.00    +0.141 C 
ATOM      7  C   UNL     1      -3.199   1.803   3.107  0.00  0.00    -0.002 A 
ATOM      8  C   UNL     1      -3.890   0.758   3.682  0.00  0.00    +0.007 A 
ATOM      9  C   UNL     1      -5.038   0.325   3.027  0.00  0.00    +0.000 A 
ATOM     10  C   UNL     1      -5.464   0.917   1.855  0.00  0.00    +0.002 A 
ATOM     11  C   UNL     1      -4.774   1.968   1.272  0.00  0.00    +0.023 A 
ATOM     12  C   UNL     1      -3.620   2.412   1.919  0.00  0.00    +0.038 A 
ATOM     13  N   UNL     1      -2.750   3.428   1.565  0.00  0.00    -0.284 N 
ATOM     14  C   UNL     1      -1.739   3.559   2.449  0.00  0.00    +0.237 C 
ATOM     15  O   UNL     1      -0.833   4.363   2.393  0.00  0.00    -0.274 OA
ATOM     16  C   UNL     1      -2.919   4.360   4.909  0.00  0.00    +0.165 C 
ATOM     17  O   UNL     1      -3.431   4.780   3.891  0.00  0.00    -0.292 OA
ATOM     18  C   UNL     1      -3.128   5.101   6.201  0.00  0.00    +0.088 C 
ATOM     19  C   UNL     1      -1.923   4.853   7.114  0.00  0.00    +0.034 C 
ATOM     20  C   UNL     1      -1.764   3.344   7.308  0.00  0.00    +0.083 C 
ATOM     21  H   UNL     1      -2.854   3.980   0.774  0.00  0.00    +0.155 HD
ENDROOT
BRANCH  19  22
ATOM     22  C   UNL     1      -2.152   5.518   8.447  0.00  0.00    -0.043 A 
ATOM     23  C   UNL     1      -3.240   5.158   9.221  0.00  0.00    +0.007 A 
ATOM     24  C   UNL     1      -3.449   5.763  10.445  0.00  0.00    +0.038 A 
ATOM     25  C   UNL     1      -2.573   6.738  10.893  0.00  0.00    +0.123 A 
ATOM     26  C   UNL     1      -1.487   7.102  10.115  0.00  0.00    +0.038 A 
ATOM     27  C   UNL     1      -1.278   6.491   8.893  0.00  0.00    +0.007 A 
ATOM     28  F   UNL     1      -2.779   7.334  12.088  0.00  0.00    -0.205 F 
ENDBRANCH  19  22
BRANCH   2  29
ATOM     29  N   UNL     1       0.780   0.295   4.780  0.00  0.00    -0.329 N 
ATOM     30  H   UNL     1       1.488   0.389   4.125  0.00  0.00    +0.145 HD
ATOM     31  H   UNL     1       0.829  -0.405   5.450  0.00  0.00    +0.145 HD
ENDBRANCH   2  29
BRANCH   1  32
ATOM     32  C   UNL     1      -0.198   1.127   2.370  0.00  0.00    +0.342 C 
ATOM     33  O   UNL     1       0.802   0.432   2.402  0.00  0.00    -0.245 OA
BRANCH  32  34
ATOM     34  O   UNL     1      -0.745   1.469   1.183  0.00  0.00    -0.462 OA
BRANCH  34  36
ATOM     35  C   UNL     1      -0.856   1.466  -1.231  0.00  0.00    +0.048 C 
ATOM     36  C   UNL     1      -0.099   0.979   0.006  0.00  0.00    +0.229 C 
ENDBRANCH  34  36
ENDBRANCH  32  34
ENDBRANCH   1  32
TORSDOF 5
