REMARK  Name = ZINC10810668
REMARK  10 active torsions:
REMARK  status: ('A' for Active; 'I' for Inactive)
REMARK    1  A    between atoms: C_1  and  C_2
REMARK    2  A    between atoms: N_4  and  C_5
REMARK    3  A    between atoms: C_8  and  S_11
REMARK    4  A    between atoms: S_11  and  N_14
REMARK    5  A    between atoms: N_14  and  C_15
REMARK    6  A    between atoms: N_14  and  C_16
REMARK    7  A    between atoms: C_16  and  C_17
REMARK    8  A    between atoms: N_19  and  C_20
REMARK    9  A    between atoms: C_20  and  C_21
REMARK   10  A    between atoms: C_24  and  C_26
REMARK                            x       y       z     vdW  Elec       q    Type
REMARK                         _______ _______ _______ _____ _____    ______ ____
ROOT
ATOM      1  C   UNL     1       0.352   8.879   1.840  0.00  0.00    +0.204 C 
ENDROOT
BRANCH   1   2
ATOM      2  C   UNL     1       0.757  10.319   1.660  0.00  0.00    +0.229 C 
ATOM      3  O   UNL     1       0.027  11.085   1.067  0.00  0.00    -0.274 OA
ATOM      4  N   UNL     1       1.932  10.755   2.156  0.00  0.00    -0.307 N 
ATOM      5  H   UNL     1       2.516  10.142   2.630  0.00  0.00    +0.149 HD
BRANCH   4   6
ATOM      6  C   UNL     1       2.326  12.155   1.981  0.00  0.00    +0.178 C 
BRANCH   6   7
ATOM      7  C   UNL     1       3.670  12.383   2.623  0.00  0.00    +0.123 A 
ATOM      8  C   UNL     1       4.865  12.244   2.016  0.00  0.00    +0.047 A 
ATOM      9  C   UNL     1       5.853  12.552   2.973  0.00  0.00    +0.050 A 
ATOM     10  C   UNL     1       5.199  12.864   4.124  0.00  0.00    +0.135 A 
ATOM     11  O   UNL     1       3.876  12.763   3.895  0.00  0.00    -0.458 OA
BRANCH  10  12
ATOM     12  C   UNL     1       5.831  13.253   5.402  0.00  0.00    +0.017 A 
ATOM     13  C   UNL     1       7.222  13.320   5.504  0.00  0.00    +0.013 A 
ATOM     14  C   UNL     1       7.806  13.689   6.698  0.00  0.00    +0.021 A 
ATOM     15  C   UNL     1       7.016  13.982   7.797  0.00  0.00    +0.041 A 
ATOM     16  C   UNL     1       5.636  13.913   7.703  0.00  0.00    +0.021 A 
ATOM     17  C   UNL     1       5.040  13.550   6.513  0.00  0.00    +0.013 A 
ATOM     18 CL   UNL     1       7.758  14.439   9.298  0.00  0.00    -0.084 Cl
ENDBRANCH  10  12
ENDBRANCH   6   7
ENDBRANCH   4   6
ENDBRANCH   1   2
BRANCH   1  19
ATOM     19  N   UNL     1      -0.955   8.657   1.215  0.00  0.00    -0.171 NA
ATOM     20  C   UNL     1      -2.182   8.950   1.960  0.00  0.00    +0.132 C 
BRANCH  19  21
ATOM     21  S   UNL     1      -1.044   8.076  -0.333  0.00  0.00    +0.061 S 
ATOM     22  O   UNL     1       0.182   8.415  -0.965  0.00  0.00    -0.153 OA
ATOM     23  O   UNL     1      -2.305   8.485  -0.847  0.00  0.00    -0.153 OA
BRANCH  21  27
ATOM     24  C   UNL     1      -1.159   3.557  -0.063  0.00  0.00    +0.033 A 
ATOM     25  C   UNL     1       0.059   4.218  -0.156  0.00  0.00    +0.025 A 
ATOM     26  C   UNL     1       0.090   5.596  -0.244  0.00  0.00    +0.030 A 
ATOM     27  C   UNL     1      -1.089   6.318  -0.228  0.00  0.00    +0.106 A 
ATOM     28  C   UNL     1      -2.303   5.663  -0.130  0.00  0.00    +0.030 A 
ATOM     29  C   UNL     1      -2.341   4.285  -0.048  0.00  0.00    +0.025 A 
BRANCH  24  33
ATOM     30  C   UNL     1      -2.182  -0.031  -0.565  0.00  0.00    +0.109 C 
ATOM     31  C   UNL     1      -2.198   1.476  -0.564  0.00  0.00    +0.214 C 
ATOM     32  O   UNL     1      -3.117   2.073  -1.085  0.00  0.00    -0.276 OA
ATOM     33  N   UNL     1      -1.195   2.161   0.019  0.00  0.00    -0.286 N 
ATOM     34  H   UNL     1      -0.497   1.685   0.497  0.00  0.00    +0.155 HD
ENDBRANCH  24  33
ENDBRANCH  21  27
ENDBRANCH  19  21
ENDBRANCH   1  19
TORSDOF 8
