REMARK  Name = ZINC50518024
REMARK  5 active torsions:
REMARK  status: ('A' for Active; 'I' for Inactive)
REMARK    1  A    between atoms: C_3  and  N_17
REMARK    2  A    between atoms: C_4  and  O_9
REMARK    3  A    between atoms: C_6  and  C_7
REMARK    4  A    between atoms: O_9  and  C_10
REMARK    5  A    between atoms: C_10  and  C_11
REMARK                            x       y       z     vdW  Elec       q    Type
REMARK                         _______ _______ _______ _____ _____    ______ ____
ROOT
ATOM      1  C   UNL     1      -0.017   1.378   0.010  0.00  0.00    +0.007 A 
ATOM      2  C   UNL     1       1.170   2.088   0.002  0.00  0.00    +0.037 A 
ATOM      3  C   UNL     1       2.377   1.417  -0.013  0.00  0.00    +0.168 A 
ATOM      4  C   UNL     1       2.399   0.030  -0.021  0.00  0.00    +0.151 A 
ATOM      5  C   UNL     1       1.207  -0.680  -0.013  0.00  0.00    +0.052 A 
ATOM      6  C   UNL     1       0.002  -0.004   0.002  0.00  0.00    -0.029 A 
ENDROOT
BRANCH   3   7
ATOM      7  N   UNL     1       3.647   2.178  -0.022  0.00  0.00    +0.060 N 
ATOM      8  O   UNL     1       3.628   3.387  -0.016  0.00  0.00    -0.126 OA
ATOM      9  O   UNL     1       4.704   1.590  -0.036  0.00  0.00    -0.126 OA
ENDBRANCH   3   7
BRANCH   6  10
ATOM     10  C   UNL     1      -1.293  -0.775   0.010  0.00  0.00    +0.143 C 
ATOM     11 CL   UNL     1      -1.826  -1.073  -1.686  0.00  0.00    -0.120 Cl
ENDBRANCH   6  10
BRANCH   4  12
ATOM     12  O   UNL     1       3.586  -0.632  -0.037  0.00  0.00    -0.489 OA
BRANCH  12  13
ATOM     13  C   UNL     1       3.531  -2.060  -0.044  0.00  0.00    +0.235 C 
BRANCH  13  14
ATOM     14  C   UNL     1       4.954  -2.624  -0.062  0.00  0.00    +0.054 C 
ATOM     15  C   UNL     1       4.923  -4.169  -0.150  0.00  0.00    +0.037 C 
ATOM     16  C   UNL     1       6.059  -4.573   0.824  0.00  0.00    +0.160 C 
ATOM     17  O   UNL     1       5.951  -3.604   1.888  0.00  0.00    -0.379 OA
ATOM     18  C   UNL     1       5.666  -2.333   1.273  0.00  0.00    +0.166 C 
ENDBRANCH  13  14
ENDBRANCH  12  13
ENDBRANCH   4  12
TORSDOF 5
