REMARK  Name = ZINC03148045
REMARK  6 active torsions:
REMARK  status: ('A' for Active; 'I' for Inactive)
REMARK    1  A    between atoms: C_4  and  O_10
REMARK    2  A    between atoms: C_5  and  N_7
REMARK    3  A    between atoms: O_10  and  C_11
REMARK    4  A    between atoms: C_11  and  C_12
REMARK    5  A    between atoms: N_14  and  N_15
REMARK    6  A    between atoms: C_16  and  C_17
REMARK                            x       y       z     vdW  Elec       q    Type
REMARK                         _______ _______ _______ _____ _____    ______ ____
ROOT
ATOM      1  C   UNL     1      -2.453  -2.723   0.010  0.00  0.00    +0.270 C 
ATOM      2  O   UNL     1      -3.426  -1.998   0.023  0.00  0.00    -0.270 OA
ATOM      3  N   UNL     1      -2.610  -4.061   0.004  0.00  0.00    -0.204 N 
ATOM      4  H   UNL     1      -1.833  -4.641  -0.006  0.00  0.00    +0.177 HD
ENDROOT
BRANCH   3   5
ATOM      5  N   UNL     1      -3.897  -4.615   0.013  0.00  0.00    -0.185 NA
ATOM      6  C   UNL     1      -4.049  -5.908   0.007  0.00  0.00    +0.176 C 
BRANCH   6   7
ATOM      7  C   UNL     1      -5.395  -6.487   0.017  0.00  0.00    +0.150 A 
ATOM      8  C   UNL     1      -5.694  -7.819   0.007  0.00  0.00    +0.067 A 
ATOM      9  C   UNL     1      -7.097  -7.919   0.025  0.00  0.00    +0.071 A 
ATOM     10  C   UNL     1      -7.585  -6.660   0.035  0.00  0.00    +0.185 A 
ATOM     11  O   UNL     1      -6.554  -5.798   0.030  0.00  0.00    -0.446 OA
ATOM     12 BR   UNL     1      -9.415  -6.186   0.055  0.00  0.00    -0.007 Br
ATOM     13 BR   UNL     1      -8.110  -9.516   0.026  0.00  0.00    -0.046 Br
ENDBRANCH   6   7
ENDBRANCH   3   5
BRANCH   1  14
ATOM     14  C   UNL     1      -1.069  -2.126   0.000  0.00  0.00    +0.326 C 
BRANCH  14  15
ATOM     15  O   UNL     1      -1.165  -0.701   0.009  0.00  0.00    -0.480 OA
BRANCH  15  19
ATOM     16  C   UNL     1       2.377   1.414  -0.013  0.00  0.00    +0.002 A 
ATOM     17  C   UNL     1       2.399   0.031  -0.021  0.00  0.00    +0.004 A 
ATOM     18  C   UNL     1       1.214  -0.679  -0.013  0.00  0.00    +0.048 A 
ATOM     19  C   UNL     1       0.002  -0.004   0.002  0.00  0.00    +0.151 A 
ATOM     20  C   UNL     1      -0.017   1.383   0.010  0.00  0.00    +0.168 A 
ATOM     21  C   UNL     1       1.171   2.089   0.002  0.00  0.00    +0.036 A 
BRANCH  20  22
ATOM     22  N   UNL     1      -1.308   2.106   0.020  0.00  0.00    +0.060 N 
ATOM     23  O   UNL     1      -1.324   3.324   0.026  0.00  0.00    -0.126 OA
ATOM     24  O   UNL     1      -2.355   1.483   0.021  0.00  0.00    -0.126 OA
ENDBRANCH  20  22
ENDBRANCH  15  19
ENDBRANCH  14  15
ENDBRANCH   1  14
TORSDOF 6
