REMARK  Name = ZINC01131689
REMARK  12 active torsions:
REMARK  status: ('A' for Active; 'I' for Inactive)
REMARK    1  A    between atoms: C_1  and  C_2
REMARK    2  A    between atoms: C_2  and  C_3
REMARK    3  A    between atoms: C_7  and  C_34
REMARK    4  A    between atoms: C_8  and  N_9
REMARK    5  A    between atoms: C_10  and  C_12
REMARK    6  A    between atoms: C_12  and  S_13
REMARK    7  A    between atoms: S_13  and  C_14
REMARK    8  A    between atoms: C_17  and  C_20
REMARK    9  A    between atoms: N_18  and  C_19
REMARK   10  A    between atoms: C_20  and  C_22
REMARK   11  A    between atoms: C_20  and  N_23
REMARK   12  A    between atoms: C_24  and  C_26
REMARK                            x       y       z     vdW  Elec       q    Type
REMARK                         _______ _______ _______ _____ _____    ______ ____
ROOT
ATOM      1  C   UNL     1       4.254   3.941   2.761  0.00  0.00    +0.192 A 
ATOM      2  N   UNL     1       4.637   3.733   1.523  0.00  0.00    -0.122 NA
ATOM      3  N   UNL     1       3.772   3.002   0.915  0.00  0.00    -0.132 NA
ATOM      4  C   UNL     1       2.789   2.710   1.720  0.00  0.00    +0.154 A 
ATOM      5  N   UNL     1       3.063   3.294   2.925  0.00  0.00    -0.308 N 
ATOM      6  C   UNL     1       2.247   3.238   4.141  0.00  0.00    +0.152 C 
ENDROOT
BRANCH   4   7
ATOM      7  C   UNL     1       1.579   1.877   1.385  0.00  0.00    +0.138 C 
ATOM      8  C   UNL     1       0.618   2.697   0.522  0.00  0.00    +0.036 C 
BRANCH   7   9
ATOM      9  N   UNL     1       1.997   0.681   0.649  0.00  0.00    -0.302 N 
ATOM     10  C   UNL     1       1.231  -0.428   0.675  0.00  0.00    +0.245 C 
ATOM     11  O   UNL     1       0.192  -0.434   1.305  0.00  0.00    -0.270 OA
ATOM     12  H   UNL     1       2.824   0.688   0.143  0.00  0.00    +0.150 HD
BRANCH  10  13
ATOM     13  C   UNL     1       1.653  -1.634  -0.067  0.00  0.00    +0.038 A 
ATOM     14  C   UNL     1       2.841  -1.626  -0.801  0.00  0.00    +0.014 A 
ATOM     15  C   UNL     1       3.233  -2.756  -1.486  0.00  0.00    +0.022 A 
ATOM     16  C   UNL     1       2.445  -3.895  -1.459  0.00  0.00    +0.059 A 
ATOM     17  C   UNL     1       1.262  -3.908  -0.737  0.00  0.00    +0.060 A 
ATOM     18  C   UNL     1       0.862  -2.784  -0.042  0.00  0.00    +0.034 A 
ATOM     19 CL   UNL     1       0.281  -5.340  -0.707  0.00  0.00    -0.082 Cl
ATOM     20 CL   UNL     1       2.942  -5.311  -2.331  0.00  0.00    -0.082 Cl
ENDBRANCH  10  13
ENDBRANCH   7   9
ENDBRANCH   4   7
BRANCH   1  21
ATOM     21  S   UNL     1       5.115   4.877   3.981  0.00  0.00    -0.077 S 
BRANCH  21  22
ATOM     22  C   UNL     1       6.559   5.394   3.019  0.00  0.00    +0.173 C 
BRANCH  22  24
ATOM     23  N   UNL     1       8.609   6.731   3.376  0.00  0.00    -0.284 N 
ATOM     24  C   UNL     1       7.465   6.232   3.884  0.00  0.00    +0.228 C 
ATOM     25  O   UNL     1       7.163   6.458   5.037  0.00  0.00    -0.275 OA
ATOM     26  H   UNL     1       8.876   6.507   2.471  0.00  0.00    +0.155 HD
BRANCH  23  32
ATOM     27  C   UNL     1      10.764   7.294   4.310  0.00  0.00    -0.026 A 
ATOM     28  C   UNL     1      11.554   8.126   5.079  0.00  0.00    +0.005 A 
ATOM     29  C   UNL     1      11.000   9.233   5.695  0.00  0.00    +0.001 A 
ATOM     30  C   UNL     1       9.654   9.511   5.543  0.00  0.00    +0.005 A 
ATOM     31  C   UNL     1       8.860   8.687   4.770  0.00  0.00    -0.029 A 
ATOM     32  C   UNL     1       9.412   7.571   4.155  0.00  0.00    +0.040 A 
ATOM     33  C   UNL     1       7.395   8.995   4.599  0.00  0.00    +0.045 C 
BRANCH  27  35
ATOM     34  C   UNL     1      11.756   6.442   2.203  0.00  0.00    +0.009 C 
ATOM     35  C   UNL     1      11.368   6.087   3.640  0.00  0.00    +0.033 C 
ENDBRANCH  27  35
ENDBRANCH  23  32
ENDBRANCH  22  24
ENDBRANCH  21  22
ENDBRANCH   1  21
TORSDOF 8
