REMARK  Name = ZINC16323720
REMARK  8 active torsions:
REMARK  status: ('A' for Active; 'I' for Inactive)
REMARK    1  A    between atoms: C_1  and  C_2
REMARK    2  A    between atoms: C_5  and  C_8
REMARK    3  A    between atoms: N_10  and  N_11
REMARK    4  A    between atoms: C_12  and  C_14
REMARK    5  A    between atoms: C_14  and  S_15
REMARK    6  A    between atoms: S_15  and  C_16
REMARK    7  A    between atoms: N_21  and  C_22
REMARK    8  A    between atoms: C_27  and  C_28
REMARK                            x       y       z     vdW  Elec       q    Type
REMARK                         _______ _______ _______ _____ _____    ______ ____
ROOT
ATOM      1  C   UNL     1       4.502   3.320   8.124  0.00  0.00    +0.173 C 
ENDROOT
BRANCH   1   3
ATOM      2  N   UNL     1       5.241   4.042  10.372  0.00  0.00    -0.233 N 
ATOM      3  C   UNL     1       5.576   3.590   9.147  0.00  0.00    +0.239 C 
ATOM      4  O   UNL     1       6.741   3.401   8.868  0.00  0.00    -0.273 OA
ATOM      5  H   UNL     1       4.309   4.193  10.595  0.00  0.00    +0.173 HD
BRANCH   2   8
ATOM      6  C   UNL     1       5.904   4.744  12.548  0.00  0.00    +0.260 C 
ATOM      7  O   UNL     1       4.737   4.933  12.828  0.00  0.00    -0.269 OA
ATOM      8  N   UNL     1       6.239   4.293  11.323  0.00  0.00    -0.230 N 
ATOM      9  H   UNL     1       7.171   4.142  11.100  0.00  0.00    +0.173 HD
BRANCH   6  14
ATOM     10  C   UNL     1      10.003   5.773  16.454  0.00  0.00    +0.044 C 
ATOM     11  C   UNL     1       8.930   5.504  15.431  0.00  0.00    -0.050 A 
ATOM     12  C   UNL     1       7.601   5.721  15.753  0.00  0.00    +0.004 A 
ATOM     13  C   UNL     1       6.614   5.476  14.821  0.00  0.00    +0.013 A 
ATOM     14  C   UNL     1       6.957   5.009  13.551  0.00  0.00    +0.038 A 
ATOM     15  C   UNL     1       8.299   4.787  13.235  0.00  0.00    +0.013 A 
ATOM     16  C   UNL     1       9.277   5.040  14.175  0.00  0.00    +0.004 A 
ENDBRANCH   6  14
ENDBRANCH   2   8
ENDBRANCH   1   3
BRANCH   1  17
ATOM     17  S   UNL     1       5.266   2.727   6.589  0.00  0.00    -0.088 S 
BRANCH  17  18
ATOM     18  C   UNL     1       3.899   2.461   5.509  0.00  0.00    +0.160 A 
ATOM     19  N   UNL     1       2.611   2.640   5.731  0.00  0.00    -0.133 NA
ATOM     20  N   UNL     1       1.701   2.372   4.734  0.00  0.00    -0.125 NA
ATOM     21  C   UNL     1       2.120   1.927   3.565  0.00  0.00    +0.187 A 
ATOM     22  S   UNL     1       3.887   1.876   3.821  0.00  0.00    -0.024 S 
ATOM     23  N   UNL     1       1.384   1.593   2.434  0.00  0.00    -0.292 N 
ATOM     24  H   UNL     1       1.839   1.362   1.610  0.00  0.00    +0.154 HD
BRANCH  23  25
ATOM     25  C   UNL     1      -0.012   1.591   2.485  0.00  0.00    +0.037 A 
ATOM     26  C   UNL     1      -0.665   1.749   3.702  0.00  0.00    +0.023 A 
ATOM     27  C   UNL     1      -2.045   1.747   3.749  0.00  0.00    +0.003 A 
ATOM     28  C   UNL     1      -2.778   1.588   2.588  0.00  0.00    +0.020 A 
ATOM     29  C   UNL     1      -2.132   1.436   1.373  0.00  0.00    +0.046 A 
ATOM     30  C   UNL     1      -0.751   1.432   1.320  0.00  0.00    -0.011 A 
ATOM     31  C   UNL     1      -0.048   1.261  -0.002  0.00  0.00    +0.047 C 
ATOM     32 CL   UNL     1      -3.057   1.244  -0.083  0.00  0.00    -0.083 Cl
ENDBRANCH  23  25
ENDBRANCH  17  18
ENDBRANCH   1  17
TORSDOF 6
