REMARK  Name = ZINC34749236
REMARK  9 active torsions:
REMARK  status: ('A' for Active; 'I' for Inactive)
REMARK    1  A    between atoms: C_1  and  C_2
REMARK    2  A    between atoms: C_2  and  C_3
REMARK    3  A    between atoms: C_4  and  C_36
REMARK    4  A    between atoms: N_10  and  C_28
REMARK    5  A    between atoms: N_16  and  C_19
REMARK    6  A    between atoms: C_19  and  C_20
REMARK    7  A    between atoms: C_20  and  C_21
REMARK    8  A    between atoms: C_21  and  C_22
REMARK    9  A    between atoms: C_28  and  C_29
REMARK                            x       y       z     vdW  Elec       q    Type
REMARK                         _______ _______ _______ _____ _____    ______ ____
ROOT
ATOM      1  C   UNL     1      -0.726  -0.770  -1.094  0.00  0.00    -0.023 A 
ATOM      2  C   UNL     1       0.405  -1.349  -1.525  0.00  0.00    -0.007 A 
ATOM      3  S   UNL     1      -0.059  -2.041  -3.101  0.00  0.00    -0.073 S 
ATOM      4  C   UNL     1      -1.758  -1.532  -3.136  0.00  0.00    +0.117 A 
ATOM      5  C   UNL     1      -1.919  -0.843  -1.919  0.00  0.00    +0.076 A 
ATOM      6  C   UNL     1      -3.225  -0.314  -1.673  0.00  0.00    +0.264 A 
ATOM      7  O   UNL     1      -3.458   0.302  -0.647  0.00  0.00    -0.267 OA
ATOM      8  N   UNL     1      -4.193  -0.504  -2.588  0.00  0.00    -0.276 N 
ATOM      9  C   UNL     1      -3.951  -1.190  -3.741  0.00  0.00    +0.202 A 
ATOM     10  N   UNL     1      -2.756  -1.679  -4.000  0.00  0.00    -0.208 NA
ATOM     11  N   UNL     1      -4.965  -1.363  -4.651  0.00  0.00    -0.304 N 
ATOM     12  C   UNL     1      -4.741  -1.130  -6.086  0.00  0.00    +0.089 C 
ATOM     13  C   UNL     1      -5.250  -2.349  -6.862  0.00  0.00    -0.060 C 
ATOM     14  N   UNL     1      -6.650  -2.609  -6.500  0.00  0.00    +0.382 N 
ATOM     15  C   UNL     1      -6.740  -2.977  -5.082  0.00  0.00    -0.060 C 
ATOM     16  C   UNL     1      -6.303  -1.794  -4.219  0.00  0.00    +0.089 C 
ATOM     17  C   UNL     1       1.746  -1.403  -0.840  0.00  0.00    +0.052 C 
ATOM     18  H   UNL     1      -7.198  -1.778  -6.667  0.00  0.00    -0.082 HD
ENDROOT
BRANCH   1  20
ATOM     19  C   UNL     1      -1.146  -1.044   1.334  0.00  0.00    +0.009 C 
ATOM     20  C   UNL     1      -0.759  -0.056   0.232  0.00  0.00    +0.033 C 
ENDBRANCH   1  20
BRANCH  14  21
ATOM     21  C   UNL     1      -7.170  -3.708  -7.324  0.00  0.00    -0.078 C 
BRANCH  21  22
ATOM     22  C   UNL     1      -8.661  -3.897  -7.038  0.00  0.00    -0.014 C 
BRANCH  22  23
ATOM     23  C   UNL     1      -9.204  -5.043  -7.896  0.00  0.00    +0.033 C 
BRANCH  23  24
ATOM     24  C   UNL     1     -10.672  -5.229  -7.614  0.00  0.00    -0.047 A 
ATOM     25  C   UNL     1     -11.080  -6.088  -6.611  0.00  0.00    +0.003 A 
ATOM     26  C   UNL     1     -12.428  -6.259  -6.352  0.00  0.00    +0.000 A 
ATOM     27  C   UNL     1     -13.367  -5.571  -7.097  0.00  0.00    +0.000 A 
ATOM     28  C   UNL     1     -12.959  -4.711  -8.100  0.00  0.00    +0.000 A 
ATOM     29  C   UNL     1     -11.611  -4.537  -8.356  0.00  0.00    +0.003 A 
ENDBRANCH  23  24
ENDBRANCH  22  23
ENDBRANCH  21  22
ENDBRANCH  14  21
BRANCH   8  30
ATOM     30  C   UNL     1      -5.532   0.037  -2.341  0.00  0.00    +0.164 C 
BRANCH  30  31
ATOM     31  C   UNL     1      -5.454   1.537  -2.220  0.00  0.00    -0.009 A 
ATOM     32  C   UNL     1      -5.579   2.138  -0.981  0.00  0.00    +0.007 A 
ATOM     33  C   UNL     1      -5.508   3.514  -0.870  0.00  0.00    +0.000 A 
ATOM     34  C   UNL     1      -5.311   4.290  -1.997  0.00  0.00    +0.001 A 
ATOM     35  C   UNL     1      -5.185   3.690  -3.236  0.00  0.00    +0.020 A 
ATOM     36  C   UNL     1      -5.251   2.312  -3.347  0.00  0.00    +0.046 A 
ATOM     37 CL   UNL     1      -5.087   1.558  -4.902  0.00  0.00    -0.083 Cl
ENDBRANCH  30  31
ENDBRANCH   8  30
TORSDOF 7
