REMARK  Name = ZINC09135196
REMARK  11 active torsions:
REMARK  status: ('A' for Active; 'I' for Inactive)
REMARK    1  A    between atoms: C_1  and  C_2
REMARK    2  A    between atoms: C_6  and  O_29
REMARK    3  A    between atoms: C_7  and  O_27
REMARK    4  A    between atoms: C_12  and  C_13
REMARK    5  A    between atoms: C_13  and  C_14
REMARK    6  A    between atoms: C_14  and  N_16
REMARK    7  A    between atoms: C_20  and  C_26
REMARK    8  A    between atoms: C_21  and  C_23
REMARK    9  A    between atoms: C_23  and  C_25
REMARK   10  A    between atoms: O_27  and  C_28
REMARK   11  A    between atoms: O_29  and  C_30
REMARK                            x       y       z     vdW  Elec       q    Type
REMARK                         _______ _______ _______ _____ _____    ______ ____
ROOT
ATOM      1  C   UNL     1       0.011   1.491   0.253  0.00  0.00    +0.045 C 
ATOM      2  C   UNL     1       0.016  -0.009   0.116  0.00  0.00    -0.029 A 
ATOM      3  C   UNL     1      -1.226  -0.778   0.223  0.00  0.00    +0.025 A 
ATOM      4  C   UNL     1      -2.451  -0.141   0.454  0.00  0.00    +0.015 A 
ATOM      5  C   UNL     1      -3.595  -0.880   0.549  0.00  0.00    +0.050 A 
ATOM      6  C   UNL     1      -3.553  -2.265   0.418  0.00  0.00    +0.165 A 
ATOM      7  C   UNL     1      -2.348  -2.916   0.189  0.00  0.00    +0.205 A 
ATOM      8  C   UNL     1      -1.175  -2.178   0.089  0.00  0.00    +0.184 A 
ATOM      9  O   UNL     1       0.009  -2.789  -0.134  0.00  0.00    -0.418 OA
ATOM     10  C   UNL     1       1.151  -2.090  -0.233  0.00  0.00    +0.341 A 
ATOM     11  O   UNL     1       2.195  -2.684  -0.435  0.00  0.00    -0.245 OA
ATOM     12  C   UNL     1       1.171  -0.685  -0.114  0.00  0.00    +0.049 A 
ENDROOT
BRANCH   7  13
ATOM     13  O   UNL     1      -2.317  -4.271   0.064  0.00  0.00    -0.488 OA
ATOM     14  C   UNL     1      -2.479  -4.804  -1.252  0.00  0.00    +0.277 C 
ENDBRANCH   7  13
BRANCH   6  15
ATOM     15  O   UNL     1      -4.701  -2.986   0.516  0.00  0.00    -0.491 OA
ATOM     16  C   UNL     1      -5.907  -2.257   0.752  0.00  0.00    +0.277 C 
ENDBRANCH   6  15
BRANCH  12  17
ATOM     17  C   UNL     1       2.473   0.064  -0.238  0.00  0.00    +0.140 C 
BRANCH  17  18
ATOM     18  C   UNL     1       3.164   0.094   1.101  0.00  0.00    +0.243 C 
ATOM     19  O   UNL     1       2.649  -0.442   2.064  0.00  0.00    -0.273 OA
BRANCH  18  20
ATOM     20  N   UNL     1       4.336   0.706   1.230  0.00  0.00    -0.156 NA
ATOM     21  C   UNL     1       4.947   0.733   2.414  0.00  0.00    +0.164 A 
ATOM     22  N   UNL     1       4.530   0.187   3.593  0.00  0.00    -0.339 N 
ATOM     23  H   UNL     1       3.689  -0.294   3.640  0.00  0.00    +0.167 HD
ATOM     24  C   UNL     1       5.295   0.323   4.687  0.00  0.00    +0.032 A 
ATOM     25  C   UNL     1       6.464   1.013   4.542  0.00  0.00    +0.076 A 
ATOM     26  S   UNL     1       6.420   1.440   2.810  0.00  0.00    -0.049 S 
ATOM     27  C   UNL     1       4.883  -0.258   6.015  0.00  0.00    +0.064 C 
BRANCH  25  28
ATOM     28  C   UNL     1       7.453   1.308   5.509  0.00  0.00    +0.168 C 
ATOM     29  O   UNL     1       8.440   1.941   5.194  0.00  0.00    -0.292 OA
ATOM     30  C   UNL     1       7.282   0.835   6.930  0.00  0.00    +0.092 C 
ENDBRANCH  25  28
ENDBRANCH  18  20
ENDBRANCH  17  18
ENDBRANCH  12  17
TORSDOF 6
