REMARK  Name = ZINC08745440
REMARK  9 active torsions:
REMARK  status: ('A' for Active; 'I' for Inactive)
REMARK    1  A    between atoms: C_1  and  C_2
REMARK    2  A    between atoms: C_2  and  C_4
REMARK    3  A    between atoms: C_2  and  N_11
REMARK    4  A    between atoms: C_4  and  C_5
REMARK    5  A    between atoms: C_5  and  C_6
REMARK    6  A    between atoms: C_12  and  C_14
REMARK    7  A    between atoms: C_17  and  N_20
REMARK    8  A    between atoms: N_20  and  S_21
REMARK    9  A    between atoms: S_21  and  C_24
REMARK                            x       y       z     vdW  Elec       q    Type
REMARK                         _______ _______ _______ _____ _____    ______ ____
ROOT
ATOM      1  C   UNL     1       4.926   1.954  -4.271  0.00  0.00    +0.037 A 
ATOM      2  C   UNL     1       5.662   0.769  -4.363  0.00  0.00    +0.015 A 
ATOM      3  C   UNL     1       5.432  -0.253  -3.471  0.00  0.00    +0.025 A 
ATOM      4  C   UNL     1       4.467  -0.109  -2.478  0.00  0.00    +0.048 A 
ATOM      5  C   UNL     1       3.727   1.067  -2.388  0.00  0.00    +0.025 A 
ATOM      6  C   UNL     1       3.957   2.096  -3.274  0.00  0.00    +0.015 A 
ENDROOT
BRANCH   1   8
ATOM      7  N   UNL     1       4.459   4.193  -5.137  0.00  0.00    -0.309 N 
ATOM      8  C   UNL     1       5.170   3.052  -5.226  0.00  0.00    +0.244 C 
ATOM      9  O   UNL     1       6.013   2.927  -6.093  0.00  0.00    -0.270 OA
ATOM     10  H   UNL     1       3.786   4.293  -4.445  0.00  0.00    +0.149 HD
BRANCH   7  12
ATOM     11  C   UNL     1       5.865   6.142  -5.587  0.00  0.00    +0.028 C 
ATOM     12  C   UNL     1       4.701   5.283  -6.085  0.00  0.00    +0.071 C 
BRANCH  12  13
ATOM     13  C   UNL     1       3.444   6.147  -6.201  0.00  0.00    +0.030 C 
BRANCH  13  14
ATOM     14  C   UNL     1       2.312   5.320  -6.816  0.00  0.00    +0.076 C 
BRANCH  14  15
ATOM     15  C   UNL     1       1.074   6.171  -6.931  0.00  0.00    +0.105 A 
ATOM     16  C   UNL     1       0.737   6.932  -7.988  0.00  0.00    +0.044 A 
ATOM     17  C   UNL     1      -0.492   7.553  -7.670  0.00  0.00    +0.041 A 
ATOM     18  C   UNL     1      -0.834   7.135  -6.438  0.00  0.00    +0.195 A 
ATOM     19  O   UNL     1       0.116   6.293  -5.997  0.00  0.00    -0.468 OA
ENDBRANCH  14  15
ENDBRANCH  13  14
ENDBRANCH  12  13
ENDBRANCH   7  12
ENDBRANCH   1   8
BRANCH   4  20
ATOM     20  N   UNL     1       4.236  -1.143  -1.579  0.00  0.00    -0.216 N 
ATOM     21  H   UNL     1       3.437  -1.687  -1.659  0.00  0.00    +0.174 HD
BRANCH  20  22
ATOM     22  S   UNL     1       5.327  -1.448  -0.370  0.00  0.00    +0.072 S 
ATOM     23  O   UNL     1       6.604  -1.532  -0.988  0.00  0.00    -0.150 OA
ATOM     24  O   UNL     1       4.785  -2.506   0.408  0.00  0.00    -0.150 OA
BRANCH  22  25
ATOM     25  C   UNL     1       5.363  -0.025   0.669  0.00  0.00    +0.112 A 
ATOM     26  C   UNL     1       4.431   0.115   1.680  0.00  0.00    +0.032 A 
ATOM     27  C   UNL     1       4.455   1.229   2.496  0.00  0.00    +0.051 A 
ATOM     28  C   UNL     1       5.415   2.211   2.303  0.00  0.00    +0.162 A 
ATOM     29  C   UNL     1       6.354   2.070   1.288  0.00  0.00    +0.164 A 
ATOM     30  C   UNL     1       6.324   0.949   0.472  0.00  0.00    +0.078 A 
ATOM     31  O   UNL     1       7.310   3.017   1.086  0.00  0.00    -0.485 OA
ATOM     32  C   UNL     1       7.080   4.300   1.680  0.00  0.00    +0.270 C 
ATOM     33  C   UNL     1       6.625   4.084   3.130  0.00  0.00    +0.270 C 
ATOM     34  O   UNL     1       5.421   3.308   3.109  0.00  0.00    -0.485 OA
ENDBRANCH  22  25
ENDBRANCH  20  22
ENDBRANCH   4  20
TORSDOF 8
