REMARK  Name = ZINC39671731
REMARK  9 active torsions:
REMARK  status: ('A' for Active; 'I' for Inactive)
REMARK    1  A    between atoms: C_1  and  C_2
REMARK    2  A    between atoms: C_4  and  C_9
REMARK    3  A    between atoms: C_13  and  C_22
REMARK    4  A    between atoms: N_24  and  C_25
REMARK    5  A    between atoms: C_25  and  C_26
REMARK    6  A    between atoms: C_26  and  C_27
REMARK    7  A    between atoms: C_27  and  N_28
REMARK    8  A    between atoms: C_29  and  C_34
REMARK    9  A    between atoms: C_31  and  C_33
REMARK                            x       y       z     vdW  Elec       q    Type
REMARK                         _______ _______ _______ _____ _____    ______ ____
ROOT
ATOM      1  C   UNL     1      -0.069  -2.871  -2.771  0.00  0.00    +0.247 C 
ATOM      2  O   UNL     1      -0.217  -2.359  -3.863  0.00  0.00    -0.270 OA
ATOM      3  N   UNL     1       0.086  -4.206  -2.668  0.00  0.00    -0.296 N 
ATOM      4  C   UNL     1       0.147  -5.021  -1.432  0.00  0.00    +0.121 C 
ATOM      5  C   UNL     1      -0.645  -6.304  -1.770  0.00  0.00    +0.100 C 
ATOM      6  C   UNL     1      -0.582  -6.411  -3.303  0.00  0.00    -0.004 C 
ATOM      7  C   UNL     1       0.229  -5.191  -3.767  0.00  0.00    +0.115 C 
ATOM      8  C   UNL     1      -1.988  -6.358  -3.894  0.00  0.00    -0.010 C 
ATOM      9  C   UNL     1      -1.903  -6.523  -5.415  0.00  0.00    -0.082 C 
ATOM     10  N   UNL     1      -1.264  -7.805  -5.734  0.00  0.00    +0.379 N 
ATOM     11  C   UNL     1       0.119  -7.812  -5.243  0.00  0.00    -0.082 C 
ATOM     12  C   UNL     1       0.120  -7.701  -3.715  0.00  0.00    -0.010 C 
ATOM     13  H   UNL     1      -1.779  -8.554  -5.297  0.00  0.00    -0.086 HD
ATOM     14  H   UNL     1      -1.265  -7.939  -6.734  0.00  0.00    -0.086 HD
ENDROOT
BRANCH   1  18
ATOM     15  C   UNL     1      -1.268   1.383  -0.456  0.00  0.00    +0.045 C 
ATOM     16  C   UNL     1      -0.635   0.015  -0.437  0.00  0.00    -0.036 A 
ATOM     17  C   UNL     1      -0.646  -0.764  -1.574  0.00  0.00    +0.017 A 
ATOM     18  C   UNL     1      -0.060  -2.031  -1.555  0.00  0.00    +0.037 A 
ATOM     19  C   UNL     1       0.535  -2.500  -0.382  0.00  0.00    +0.014 A 
ATOM     20  C   UNL     1       0.540  -1.712   0.749  0.00  0.00    +0.016 A 
ATOM     21  C   UNL     1      -0.038  -0.454   0.722  0.00  0.00    +0.021 A 
ATOM     22 BR   UNL     1      -0.021   0.625   2.275  0.00  0.00    -0.050 Br
ENDBRANCH   1  18
BRANCH   5  23
ATOM     23  C   UNL     1      -2.074  -6.175  -1.309  0.00  0.00    +0.218 C 
ATOM     24  O   UNL     1      -2.604  -5.085  -1.274  0.00  0.00    -0.275 OA
ATOM     25  N   UNL     1      -2.762  -7.272  -0.935  0.00  0.00    -0.315 N 
ATOM     26  H   UNL     1      -2.338  -8.144  -0.963  0.00  0.00    +0.149 HD
BRANCH  25  27
ATOM     27  C   UNL     1      -4.151  -7.147  -0.486  0.00  0.00    +0.106 C 
BRANCH  27  28
ATOM     28  C   UNL     1      -4.696  -8.530  -0.123  0.00  0.00    +0.042 C 
BRANCH  28  29
ATOM     29  C   UNL     1      -6.147  -8.399   0.346  0.00  0.00    +0.145 C 
BRANCH  29  30
ATOM     30  N   UNL     1      -6.668  -9.723   0.693  0.00  0.00    -0.268 N 
ATOM     31  C   UNL     1      -7.290 -10.578  -0.146  0.00  0.00    +0.036 A 
ATOM     32  C   UNL     1      -7.616 -11.685   0.559  0.00  0.00    +0.047 A 
ATOM     33  C   UNL     1      -7.178 -11.502   1.875  0.00  0.00    +0.060 A 
ATOM     34  N   UNL     1      -6.604 -10.329   1.955  0.00  0.00    -0.176 NA
ATOM     35  C   UNL     1      -7.334 -12.489   3.003  0.00  0.00    +0.067 C 
ATOM     36  C   UNL     1      -7.572 -10.340  -1.607  0.00  0.00    +0.065 C 
ENDBRANCH  29  30
ENDBRANCH  28  29
ENDBRANCH  27  28
ENDBRANCH  25  27
ENDBRANCH   5  23
TORSDOF 6
