REMARK  Name = ZINC08036168
REMARK  3 active torsions:
REMARK  status: ('A' for Active; 'I' for Inactive)
REMARK    1  A    between atoms: C_1  and  N_2
REMARK    2  A    between atoms: N_15  and  N_16
REMARK    3  A    between atoms: C_17  and  C_18
REMARK                            x       y       z     vdW  Elec       q    Type
REMARK                         _______ _______ _______ _____ _____    ______ ____
ROOT
ATOM      1  C   UNL     1       7.121  10.013  -0.012  0.00  0.00    +0.151 C 
ATOM      2  N   UNL     1       5.683  10.293   0.003  0.00  0.00    -0.326 N 
ATOM      3  C   UNL     1       5.124  11.561   0.016  0.00  0.00    +0.053 A 
ATOM      4  C   UNL     1       5.689  12.832   0.019  0.00  0.00    +0.026 A 
ATOM      5  C   UNL     1       4.878  13.947   0.034  0.00  0.00    +0.002 A 
ATOM      6  C   UNL     1       3.498  13.816   0.047  0.00  0.00    +0.001 A 
ATOM      7  C   UNL     1       2.920  12.565   0.044  0.00  0.00    +0.012 A 
ATOM      8  C   UNL     1       3.727  11.429   0.029  0.00  0.00    +0.029 A 
ATOM      9  C   UNL     1       3.445   9.983   0.023  0.00  0.00    +0.138 A 
ATOM     10  C   UNL     1       4.698   9.336   0.007  0.00  0.00    +0.165 A 
ATOM     11  N   UNL     1       4.722   8.007   0.004  0.00  0.00    -0.192 NA
ATOM     12  C   UNL     1       3.577   7.338   0.006  0.00  0.00    +0.256 A 
ATOM     13  N   UNL     1       2.408   7.970   0.021  0.00  0.00    -0.111 NA
ATOM     14  N   UNL     1       2.337   9.257   0.029  0.00  0.00    -0.142 NA
ATOM     15  N   UNL     1       3.599   5.953  -0.001  0.00  0.00    -0.204 N 
ATOM     16  H   UNL     1       4.447   5.482  -0.012  0.00  0.00    +0.177 HD
ENDROOT
BRANCH  15  17
ATOM     17  N   UNL     1       2.398   5.233   0.007  0.00  0.00    -0.187 NA
ATOM     18  C   UNL     1       2.419   3.935  -0.000  0.00  0.00    +0.138 C 
BRANCH  18  19
ATOM     19  C   UNL     1       1.154   3.177   0.008  0.00  0.00    -0.003 A 
ATOM     20  C   UNL     1       1.173   1.780   0.000  0.00  0.00    +0.009 A 
ATOM     21  C   UNL     1      -0.013   1.076   0.008  0.00  0.00    +0.003 A 
ATOM     22  C   UNL     1      -1.221   1.749   0.017  0.00  0.00    +0.038 A 
ATOM     23  C   UNL     1      -1.249   3.135   0.031  0.00  0.00    +0.124 A 
ATOM     24  C   UNL     1      -0.068   3.852   0.023  0.00  0.00    +0.047 A 
ATOM     25  F   UNL     1      -2.433   3.785   0.046  0.00  0.00    -0.205 F 
ENDBRANCH  18  19
ENDBRANCH  15  17
TORSDOF 2
