REMARK  Name = ZINC22024866
REMARK  7 active torsions:
REMARK  status: ('A' for Active; 'I' for Inactive)
REMARK    1  A    between atoms: C_1  and  C_2
REMARK    2  A    between atoms: C_5  and  S_8
REMARK    3  A    between atoms: N_6  and  N_7
REMARK    4  A    between atoms: S_8  and  C_9
REMARK    5  A    between atoms: C_16  and  C_18
REMARK    6  A    between atoms: C_18  and  S_19
REMARK    7  A    between atoms: S_19  and  C_20
REMARK                            x       y       z     vdW  Elec       q    Type
REMARK                         _______ _______ _______ _____ _____    ______ ____
ROOT
ATOM      1  C   UNL     1      -3.199   3.107   5.028  0.00  0.00    +0.116 A 
ATOM      2  C   UNL     1      -4.115   3.552   6.021  0.00  0.00    +0.043 A 
ATOM      3  C   UNL     1      -5.569   3.749   5.902  0.00  0.00    -0.025 A 
ATOM      4  C   UNL     1      -6.214   4.181   6.998  0.00  0.00    -0.004 A 
ATOM      5  S   UNL     1      -4.954   4.354   8.240  0.00  0.00    -0.073 S 
ATOM      6  C   UNL     1      -3.556   3.842   7.279  0.00  0.00    +0.113 A 
ATOM      7  N   UNL     1      -2.263   3.705   7.506  0.00  0.00    -0.224 NA
ATOM      8  C   UNL     1      -1.460   3.288   6.546  0.00  0.00    +0.142 A 
ATOM      9  N   UNL     1      -1.918   2.992   5.343  0.00  0.00    -0.224 NA
ATOM     10  C   UNL     1      -7.692   4.341   6.761  0.00  0.00    +0.043 C 
ATOM     11  C   UNL     1      -7.968   3.537   5.472  0.00  0.00    +0.010 C 
ATOM     12  C   UNL     1      -6.593   3.580   4.776  0.00  0.00    +0.037 C 
ENDROOT
BRANCH   1  13
ATOM     13  S   UNL     1      -3.761   2.707   3.407  0.00  0.00    -0.028 S 
BRANCH  13  18
ATOM     14  C   UNL     1      -0.013   1.086   0.008  0.00  0.00    +0.090 C 
ATOM     15  C   UNL     1      -0.718   1.572   1.248  0.00  0.00    +0.148 A 
ATOM     16  N   UNL     1      -0.165   1.831   2.400  0.00  0.00    -0.132 NA
ATOM     17  N   UNL     1      -1.057   2.225   3.237  0.00  0.00    -0.121 NA
ATOM     18  C   UNL     1      -2.235   2.239   2.661  0.00  0.00    +0.214 A 
ATOM     19  N   UNL     1      -2.055   1.828   1.371  0.00  0.00    -0.228 N 
BRANCH  19  20
ATOM     20  N   UNL     1      -3.012   1.698   0.406  0.00  0.00    -0.295 N 
ATOM     21  H   UNL     1      -4.061   1.938   0.635  0.00  0.00    +0.163 HD
ATOM     22  H   UNL     1      -2.734   1.352  -0.601  0.00  0.00    +0.163 HD
ENDBRANCH  19  20
ENDBRANCH  13  18
ENDBRANCH   1  13
BRANCH   8  23
ATOM     23  C   UNL     1       0.012   3.139   6.831  0.00  0.00    +0.150 C 
BRANCH  23  24
ATOM     24  S   UNL     1       0.345   1.461   7.432  0.00  0.00    -0.117 S 
BRANCH  24  25
ATOM     25  C   UNL     1       2.084   1.447   7.715  0.00  0.00    +0.008 A 
ATOM     26  C   UNL     1       2.841   2.584   7.459  0.00  0.00    +0.015 A 
ATOM     27  C   UNL     1       4.202   2.571   7.689  0.00  0.00    +0.001 A 
ATOM     28  C   UNL     1       4.815   1.425   8.161  0.00  0.00    +0.000 A 
ATOM     29  C   UNL     1       4.066   0.289   8.411  0.00  0.00    +0.001 A 
ATOM     30  C   UNL     1       2.703   0.296   8.190  0.00  0.00    +0.015 A 
ENDBRANCH  24  25
ENDBRANCH  23  24
ENDBRANCH   8  23
TORSDOF 6
