REMARK  Name = ZINC20503881
REMARK  10 active torsions:
REMARK  status: ('A' for Active; 'I' for Inactive)
REMARK    1  A    between atoms: C_4  and  N_7
REMARK    2  A    between atoms: N_10  and  C_13
REMARK    3  A    between atoms: C_13  and  C_14
REMARK    4  A    between atoms: C_23  and  C_25
REMARK    5  A    between atoms: C_25  and  N_26
REMARK    6  A    between atoms: N_26  and  C_27
REMARK    7  A    between atoms: C_27  and  N_29
REMARK    8  A    between atoms: N_29  and  C_30
REMARK    9  A    between atoms: C_30  and  C_31
REMARK   10  A    between atoms: C_31  and  N_32
REMARK                            x       y       z     vdW  Elec       q    Type
REMARK                         _______ _______ _______ _____ _____    ______ ____
ROOT
ATOM      1  C   UNL     1      -2.878   1.554  -0.016  0.00  0.00    -0.041 C 
ATOM      2  C   UNL     1      -2.018   1.179  -1.247  0.00  0.00    -0.076 C 
ATOM      3  N   UNL     1      -0.670   1.745  -1.096  0.00  0.00    +0.383 N 
ATOM      4  C   UNL     1       0.009   1.184   0.081  0.00  0.00    -0.078 C 
ATOM      5  C   UNL     1      -0.777   1.550   1.343  0.00  0.00    -0.015 C 
ATOM      6  C   UNL     1      -2.005   2.377   0.939  0.00  0.00    -0.015 C 
ATOM      7  C   UNL     1      -1.526   3.635   0.204  0.00  0.00    -0.010 C 
ATOM      8  C   UNL     1      -0.720   3.212  -1.027  0.00  0.00    -0.051 C 
ATOM      9  H   UNL     1      -0.085   1.468  -1.985  0.00  0.00    -0.081 HD
ENDROOT
BRANCH   1  10
ATOM     10  C   UNL     1      -4.094   2.380  -0.440  0.00  0.00    -0.077 C 
BRANCH  10  14
ATOM     11  N   UNL     1      -7.519   0.542  -2.094  0.00  0.00    -0.333 N 
ATOM     12  C   UNL     1      -6.608  -0.291  -1.296  0.00  0.00    +0.086 C 
ATOM     13  C   UNL     1      -5.745   0.609  -0.408  0.00  0.00    -0.060 C 
ATOM     14  N   UNL     1      -4.993   1.548  -1.251  0.00  0.00    +0.382 N 
ATOM     15  C   UNL     1      -5.904   2.381  -2.049  0.00  0.00    -0.060 C 
ATOM     16  C   UNL     1      -6.766   1.481  -2.937  0.00  0.00    +0.086 C 
ATOM     17  H   UNL     1      -4.373   0.961  -1.945  0.00  0.00    -0.082 HD
BRANCH  11  21
ATOM     18  C   UNL     1     -10.066  -1.816  -4.395  0.00  0.00    +0.000 A 
ATOM     19  C   UNL     1     -10.158  -0.438  -4.457  0.00  0.00    +0.002 A 
ATOM     20  C   UNL     1      -9.315   0.347  -3.695  0.00  0.00    +0.023 A 
ATOM     21  C   UNL     1      -8.373  -0.249  -2.866  0.00  0.00    +0.030 A 
ATOM     22  C   UNL     1      -8.280  -1.634  -2.810  0.00  0.00    +0.023 A 
ATOM     23  C   UNL     1      -9.129  -2.413  -3.571  0.00  0.00    +0.002 A 
ENDBRANCH  11  21
ENDBRANCH  10  14
ENDBRANCH   1  10
BRANCH   8  24
ATOM     24  C   UNL     1      -1.389   3.759  -2.289  0.00  0.00    +0.088 C 
BRANCH  24  25
ATOM     25  N   UNL     1      -0.689   3.254  -3.472  0.00  0.00    -0.328 N 
ATOM     26  H   UNL     1       0.177   2.586  -3.355  0.00  0.00    +0.148 HD
BRANCH  25  27
ATOM     27  C   UNL     1      -1.106   3.606  -4.705  0.00  0.00    +0.130 C 
ATOM     28  S   UNL     1      -2.454   4.646  -4.887  0.00  0.00    -0.019 S 
BRANCH  27  29
ATOM     29  N   UNL     1      -0.461   3.141  -5.793  0.00  0.00    -0.325 N 
ATOM     30  H   UNL     1       0.405   2.474  -5.676  0.00  0.00    +0.148 HD
BRANCH  29  31
ATOM     31  C   UNL     1      -0.914   3.525  -7.132  0.00  0.00    +0.118 C 
BRANCH  31  32
ATOM     32  C   UNL     1      -0.018   2.865  -8.182  0.00  0.00    +0.103 C 
BRANCH  32  33
ATOM     33  N   UNL     1      -0.472   3.250  -9.525  0.00  0.00    -0.297 NA
ATOM     34  C   UNL     1      -1.802   2.693  -9.811  0.00  0.00    +0.112 C 
ATOM     35  C   UNL     1      -2.262   3.166 -11.193  0.00  0.00    +0.175 C 
ATOM     36  O   UNL     1      -1.292   2.780 -12.170  0.00  0.00    -0.377 OA
ATOM     37  C   UNL     1       0.015   3.305 -11.923  0.00  0.00    +0.175 C 
ATOM     38  C   UNL     1       0.498   2.834 -10.549  0.00  0.00    +0.112 C 
ENDBRANCH  32  33
ENDBRANCH  31  32
ENDBRANCH  29  31
ENDBRANCH  27  29
ENDBRANCH  25  27
ENDBRANCH  24  25
ENDBRANCH   8  24
TORSDOF 10
