REMARK  Name = ZINC35954281
REMARK  17 active torsions:
REMARK  status: ('A' for Active; 'I' for Inactive)
REMARK    1  A    between atoms: C_1  and  C_2
REMARK    2  A    between atoms: C_2  and  C_3
REMARK    3  A    between atoms: C_4  and  C_24
REMARK    4  A    between atoms: C_5  and  N_15
REMARK    5  A    between atoms: N_6  and  C_8
REMARK    6  A    between atoms: N_18  and  C_21
REMARK    7  A    between atoms: C_21  and  C_22
REMARK    8  A    between atoms: C_21  and  C_23
REMARK    9  A    between atoms: C_24  and  N_25
REMARK   10  A    between atoms: N_25  and  C_26
REMARK   11  A    between atoms: C_26  and  C_27
REMARK   12  A    between atoms: C_27  and  C_28
REMARK   13  A    between atoms: C_27  and  C_29
REMARK   14  A    between atoms: C_30  and  C_32
REMARK   15  A    between atoms: C_32  and  C_33
REMARK   16  A    between atoms: C_32  and  C_34
REMARK   17  A    between atoms: C_32  and  C_35
REMARK                            x       y       z     vdW  Elec       q    Type
REMARK                         _______ _______ _______ _____ _____    ______ ____
ROOT
ATOM      1  C   UNL     1      -0.073  -0.520   0.283  0.00  0.00    +0.070 A 
ATOM      2  C   UNL     1      -1.130  -0.328   1.177  0.00  0.00    +0.033 A 
ATOM      3  C   UNL     1      -2.280  -0.703   0.552  0.00  0.00    +0.130 A 
ATOM      4  N   UNL     1      -1.946  -1.118  -0.700  0.00  0.00    -0.218 N 
ATOM      5  N   UNL     1      -0.559  -0.986  -0.840  0.00  0.00    -0.169 NA
ENDROOT
BRANCH   4   6
ATOM      6  C   UNL     1      -2.834  -1.590  -1.678  0.00  0.00    +0.068 A 
ATOM      7  C   UNL     1      -3.838  -2.484  -1.332  0.00  0.00    +0.030 A 
ATOM      8  C   UNL     1      -4.712  -2.947  -2.297  0.00  0.00    +0.040 A 
ATOM      9  C   UNL     1      -4.586  -2.520  -3.608  0.00  0.00    +0.124 A 
ATOM     10  C   UNL     1      -3.585  -1.629  -3.955  0.00  0.00    +0.040 A 
ATOM     11  C   UNL     1      -2.713  -1.159  -2.992  0.00  0.00    +0.030 A 
ATOM     12  F   UNL     1      -5.441  -2.974  -4.550  0.00  0.00    -0.205 F 
ENDBRANCH   4   6
BRANCH   3  13
ATOM     13  N   UNL     1      -3.561  -0.669   1.095  0.00  0.00    -0.318 N 
ATOM     14  C   UNL     1      -4.335   0.581   1.128  0.00  0.00    +0.088 C 
ATOM     15  C   UNL     1      -5.724   0.308   0.542  0.00  0.00    -0.059 C 
ATOM     16  N   UNL     1      -6.347  -0.810   1.262  0.00  0.00    +0.383 N 
ATOM     17  C   UNL     1      -5.576  -2.040   1.040  0.00  0.00    -0.059 C 
ATOM     18  C   UNL     1      -4.182  -1.884   1.645  0.00  0.00    +0.088 C 
ATOM     19  H   UNL     1      -6.370  -0.602   2.249  0.00  0.00    -0.081 HD
BRANCH  16  20
ATOM     20  C   UNL     1      -7.720  -1.000   0.774  0.00  0.00    -0.075 C 
ATOM     21  C   UNL     1      -8.371  -2.165   1.523  0.00  0.00    -0.014 C 
ATOM     22  C   UNL     1      -8.528   0.276   1.015  0.00  0.00    -0.014 C 
ENDBRANCH  16  20
ENDBRANCH   3  13
BRANCH   1  24
ATOM     23  C   UNL     1       1.678   1.235   0.249  0.00  0.00    +0.010 C 
ATOM     24  C   UNL     1       1.380  -0.232   0.561  0.00  0.00    +0.054 C 
ENDBRANCH   1  24
BRANCH   2  25
ATOM     25  C   UNL     1      -1.016   0.200   2.584  0.00  0.00    +0.148 C 
BRANCH  25  26
ATOM     26  N   UNL     1      -1.219  -0.896   3.535  0.00  0.00    -0.296 N 
ATOM     27  C   UNL     1      -2.430  -1.085   4.097  0.00  0.00    +0.223 C 
ATOM     28  O   UNL     1      -3.379  -0.425   3.729  0.00  0.00    -0.275 OA
BRANCH  27  29
ATOM     29  C   UNL     1      -2.604  -2.117   5.182  0.00  0.00    +0.055 C 
ATOM     30  C   UNL     1      -2.336  -3.510   4.609  0.00  0.00    +0.022 C 
ATOM     31  C   UNL     1      -1.618  -1.834   6.317  0.00  0.00    +0.022 C 
BRANCH  29  32
ATOM     32  C   UNL     1      -4.034  -2.053   5.721  0.00  0.00    +0.124 C 
ATOM     33 CL   UNL     1      -4.243  -3.287   7.019  0.00  0.00    -0.124 Cl
ENDBRANCH  29  32
ENDBRANCH  27  29
BRANCH  26  34
ATOM     34  C   UNL     1      -0.106  -1.786   3.875  0.00  0.00    +0.111 C 
BRANCH  34  35
ATOM     35  C   UNL     1       0.301  -2.589   2.638  0.00  0.00    +0.000 C 
ATOM     36  C   UNL     1       1.506  -3.469   2.975  0.00  0.00    +0.009 C 
ATOM     37  C   UNL     1      -0.867  -3.472   2.196  0.00  0.00    +0.009 C 
ENDBRANCH  34  35
ENDBRANCH  26  34
ENDBRANCH  25  26
ENDBRANCH   2  25
TORSDOF 10
