REMARK  Name = ZINC38597828
REMARK  9 active torsions:
REMARK  status: ('A' for Active; 'I' for Inactive)
REMARK    1  A    between atoms: C_1  and  C_2
REMARK    2  A    between atoms: C_5  and  N_33
REMARK    3  A    between atoms: C_7  and  S_8
REMARK    4  A    between atoms: S_8  and  N_11
REMARK    5  A    between atoms: N_11  and  C_12
REMARK    6  A    between atoms: C_12  and  C_13
REMARK    7  A    between atoms: C_13  and  C_15
REMARK    8  A    between atoms: C_13  and  N_20
REMARK    9  A    between atoms: N_23  and  C_26
REMARK                            x       y       z     vdW  Elec       q    Type
REMARK                         _______ _______ _______ _____ _____    ______ ____
ROOT
ATOM      1  C   UNL     1       2.993   2.225   2.698  0.00  0.00    +0.015 C 
ENDROOT
BRANCH   1   2
ATOM      2  N   UNL     1       4.123   1.290   2.620  0.00  0.00    +0.389 N 
ATOM      3  C   UNL     1       3.739   0.009   3.225  0.00  0.00    -0.059 C 
ATOM      4  C   UNL     1       4.875  -1.003   3.043  0.00  0.00    +0.086 C 
ATOM      5  N   UNL     1       6.111  -0.420   3.588  0.00  0.00    -0.333 N 
ATOM      6  C   UNL     1       6.487   0.935   3.157  0.00  0.00    +0.086 C 
ATOM      7  C   UNL     1       5.274   1.855   3.334  0.00  0.00    -0.059 C 
ATOM      8  H   UNL     1       4.369   1.141   1.653  0.00  0.00    -0.081 HD
BRANCH   5   9
ATOM      9  C   UNL     1       6.905  -1.134   4.490  0.00  0.00    +0.030 A 
ATOM     10  C   UNL     1       6.607  -2.459   4.782  0.00  0.00    +0.026 A 
ATOM     11  C   UNL     1       7.394  -3.162   5.673  0.00  0.00    +0.040 A 
ATOM     12  C   UNL     1       8.479  -2.548   6.275  0.00  0.00    +0.124 A 
ATOM     13  C   UNL     1       8.778  -1.227   5.986  0.00  0.00    +0.040 A 
ATOM     14  C   UNL     1       7.997  -0.521   5.091  0.00  0.00    +0.026 A 
ATOM     15  F   UNL     1       9.246  -3.238   7.147  0.00  0.00    -0.205 F 
ENDBRANCH   5   9
ENDBRANCH   1   2
BRANCH   1  16
ATOM     16  C   UNL     1       3.357   3.512   2.004  0.00  0.00    +0.093 A 
ATOM     17  C   UNL     1       3.050   4.750   2.430  0.00  0.00    +0.043 A 
ATOM     18  C   UNL     1       3.583   5.654   1.482  0.00  0.00    +0.041 A 
ATOM     19  C   UNL     1       4.183   4.914   0.533  0.00  0.00    +0.195 A 
ATOM     20  O   UNL     1       4.048   3.618   0.857  0.00  0.00    -0.469 OA
ENDBRANCH   1  16
BRANCH   1  21
ATOM     21  C   UNL     1       1.771   1.606   2.017  0.00  0.00    +0.098 C 
BRANCH  21  22
ATOM     22  N   UNL     1       2.125   1.199   0.654  0.00  0.00    -0.191 NA
ATOM     23  H   UNL     1       2.933   1.541   0.240  0.00  0.00    +0.148 HD
BRANCH  22  24
ATOM     24  S   UNL     1       1.147   0.154  -0.178  0.00  0.00    +0.059 S 
ATOM     25  O   UNL     1       0.888  -0.940   0.691  0.00  0.00    -0.153 OA
ATOM     26  O   UNL     1       1.732  -0.014  -1.462  0.00  0.00    -0.153 OA
BRANCH  24  33
ATOM     27  C   UNL     1       0.800   2.648  -1.854  0.00  0.00    +0.046 C 
ATOM     28  C   UNL     1      -0.453   2.108  -1.214  0.00  0.00    -0.024 A 
ATOM     29  C   UNL     1      -1.663   2.747  -1.416  0.00  0.00    +0.007 A 
ATOM     30  C   UNL     1      -2.812   2.251  -0.829  0.00  0.00    +0.033 A 
ATOM     31  C   UNL     1      -2.752   1.117  -0.041  0.00  0.00    +0.128 A 
ATOM     32  C   UNL     1      -1.543   0.478   0.160  0.00  0.00    +0.061 A 
ATOM     33  C   UNL     1      -0.394   0.972  -0.430  0.00  0.00    +0.110 A 
BRANCH  31  34
ATOM     34  N   UNL     1      -3.982   0.587   0.588  0.00  0.00    +0.056 N 
ATOM     35  O   UNL     1      -5.040   1.146   0.412  0.00  0.00    -0.126 OA
ATOM     36  O   UNL     1      -3.930  -0.405   1.278  0.00  0.00    -0.126 OA
ENDBRANCH  31  34
ENDBRANCH  24  33
ENDBRANCH  22  24
ENDBRANCH  21  22
ENDBRANCH   1  21
TORSDOF 8
