REMARK  Name = ZINC08964571
REMARK  8 active torsions:
REMARK  status: ('A' for Active; 'I' for Inactive)
REMARK    1  A    between atoms: C_1  and  C_2
REMARK    2  A    between atoms: C_5  and  N_8
REMARK    3  A    between atoms: C_11  and  C_12
REMARK    4  A    between atoms: N_13  and  C_14
REMARK    5  A    between atoms: C_14  and  C_15
REMARK    6  A    between atoms: C_22  and  O_23
REMARK    7  A    between atoms: O_23  and  C_24
REMARK    8  A    between atoms: C_30  and  N_61
REMARK                            x       y       z     vdW  Elec       q    Type
REMARK                         _______ _______ _______ _____ _____    ______ ____
ROOT
ATOM      1  C   UNL     1       3.229  -4.607   1.808  0.00  0.00    +0.099 C 
ATOM      2  N   UNL     1       2.386  -4.014   0.939  0.00  0.00    -0.296 NA
ENDROOT
BRANCH   1   6
ATOM      3  N   UNL     1       4.175  -8.020   2.852  0.00  0.00    -0.193 N 
ATOM      4  C   UNL     1       4.234  -6.674   2.770  0.00  0.00    +0.245 C 
ATOM      5  O   UNL     1       5.086  -6.048   3.372  0.00  0.00    -0.274 OA
ATOM      6  C   UNL     1       3.235  -5.983   1.936  0.00  0.00    +0.202 C 
ATOM      7  C   UNL     1       2.245  -6.824   1.239  0.00  0.00    +0.238 C 
ATOM      8  O   UNL     1       1.392  -6.327   0.528  0.00  0.00    -0.274 OA
ATOM      9  N   UNL     1       2.311  -8.161   1.409  0.00  0.00    -0.238 N 
ATOM     10  C   UNL     1       3.246  -8.722   2.189  0.00  0.00    +0.319 C 
ATOM     11  O   UNL     1       3.251  -9.932   2.302  0.00  0.00    -0.251 OA
ATOM     12  H   UNL     1       1.667  -8.729   0.958  0.00  0.00    +0.159 HD
BRANCH   3  17
ATOM     13  C   UNL     1       7.967 -10.768   6.057  0.00  0.00    +0.044 C 
ATOM     14  C   UNL     1       6.960 -10.038   5.206  0.00  0.00    -0.050 A 
ATOM     15  C   UNL     1       6.966 -10.206   3.834  0.00  0.00    +0.005 A 
ATOM     16  C   UNL     1       6.044  -9.539   3.051  0.00  0.00    +0.024 A 
ATOM     17  C   UNL     1       5.112  -8.698   3.644  0.00  0.00    +0.045 A 
ATOM     18  C   UNL     1       5.112  -8.527   5.021  0.00  0.00    +0.024 A 
ATOM     19  C   UNL     1       6.032  -9.202   5.799  0.00  0.00    +0.005 A 
ENDBRANCH   3  17
ENDBRANCH   1   6
BRANCH   2  20
ATOM     20  C   UNL     1       2.380  -2.555   0.804  0.00  0.00    +0.130 C 
BRANCH  20  21
ATOM     21  C   UNL     1       1.256  -2.135  -0.145  0.00  0.00    -0.012 C 
ATOM     22  C   UNL     1      -0.068  -2.567   0.429  0.00  0.00    -0.011 A 
ATOM     23  C   UNL     1      -1.057  -3.120  -0.357  0.00  0.00    -0.040 A 
ATOM     24  C   UNL     1      -2.264  -3.497   0.211  0.00  0.00    +0.053 A 
ATOM     25  C   UNL     1      -2.486  -3.328   1.567  0.00  0.00    +0.170 A 
ATOM     26  C   UNL     1      -1.491  -2.774   2.365  0.00  0.00    +0.208 A 
ATOM     27  C   UNL     1      -0.285  -2.394   1.792  0.00  0.00    +0.167 A 
ATOM     28  O   UNL     1      -1.944  -2.713   3.652  0.00  0.00    -0.449 OA
ATOM     29  C   UNL     1      -3.070  -3.610   3.704  0.00  0.00    +0.467 C 
ATOM     30  O   UNL     1      -3.566  -3.615   2.352  0.00  0.00    -0.452 OA
ATOM     31  C   UNL     1      -0.862  -3.337  -1.836  0.00  0.00    +0.017 C 
ATOM     32  C   UNL     1       0.319  -2.503  -2.335  0.00  0.00    -0.074 C 
ATOM     33  C   UNL     1       2.717  -2.269  -2.069  0.00  0.00    -0.095 C 
ATOM     34  N   UNL     1       1.471  -2.778  -1.452  0.00  0.00    +0.384 N 
ATOM     35  H   UNL     1       1.555  -3.793  -1.317  0.00  0.00    -0.081 HD
BRANCH  27  36
ATOM     36  O   UNL     1       0.691  -1.851   2.569  0.00  0.00    -0.491 OA
ATOM     37  C   UNL     1       0.686  -0.430   2.718  0.00  0.00    +0.277 C 
ENDBRANCH  27  36
ENDBRANCH  20  21
ENDBRANCH   2  20
TORSDOF 5
