REMARK  Name = ZINC02741722
REMARK  10 active torsions:
REMARK  status: ('A' for Active; 'I' for Inactive)
REMARK    1  A    between atoms: C_1  and  C_2
REMARK    2  A    between atoms: C_2  and  C_4
REMARK    3  A    between atoms: C_2  and  S_15
REMARK    4  A    between atoms: N_6  and  N_7
REMARK    5  A    between atoms: C_8  and  C_9
REMARK    6  A    between atoms: S_15  and  C_16
REMARK    7  A    between atoms: C_19  and  C_27
REMARK    8  A    between atoms: N_20  and  C_21
REMARK    9  A    between atoms: C_27  and  N_28
REMARK   10  A    between atoms: N_28  and  C_29
REMARK                            x       y       z     vdW  Elec       q    Type
REMARK                         _______ _______ _______ _____ _____    ______ ____
ROOT
ATOM      1  C   UNL     1       7.641  -2.191  -0.704  0.00  0.00    +0.197 A 
ATOM      2  N   UNL     1       7.589  -2.144   0.607  0.00  0.00    -0.122 NA
ATOM      3  N   UNL     1       6.646  -1.355   0.979  0.00  0.00    -0.132 NA
ATOM      4  C   UNL     1       6.037  -0.860  -0.061  0.00  0.00    +0.156 A 
ATOM      5  N   UNL     1       6.651  -1.372  -1.174  0.00  0.00    -0.273 N 
ENDROOT
BRANCH   5   6
ATOM      6  C   UNL     1       6.332  -1.111  -2.514  0.00  0.00    +0.050 A 
ATOM      7  C   UNL     1       5.107  -1.514  -3.029  0.00  0.00    +0.026 A 
ATOM      8  C   UNL     1       4.794  -1.251  -4.348  0.00  0.00    +0.002 A 
ATOM      9  C   UNL     1       5.702  -0.596  -5.158  0.00  0.00    +0.000 A 
ATOM     10  C   UNL     1       6.925  -0.197  -4.650  0.00  0.00    +0.002 A 
ATOM     11  C   UNL     1       7.242  -0.453  -3.330  0.00  0.00    +0.026 A 
ENDBRANCH   5   6
BRANCH   1  12
ATOM     12  S   UNL     1       8.772  -3.131  -1.675  0.00  0.00    -0.073 S 
BRANCH  12  14
ATOM     13  C   UNL     1       8.828  -4.869   0.432  0.00  0.00    +0.029 C 
ATOM     14  C   UNL     1       9.732  -3.922  -0.360  0.00  0.00    +0.139 C 
BRANCH  14  15
ATOM     15  C   UNL     1      10.868  -4.704  -0.969  0.00  0.00    +0.245 C 
ATOM     16  O   UNL     1      10.822  -5.032  -2.136  0.00  0.00    -0.273 OA
ATOM     17  N   UNL     1      11.935  -5.039  -0.216  0.00  0.00    -0.206 N 
ATOM     18  H   UNL     1      11.972  -4.777   0.717  0.00  0.00    +0.177 HD
BRANCH  17  19
ATOM     19  N   UNL     1      12.990  -5.766  -0.782  0.00  0.00    -0.188 NA
ATOM     20  C   UNL     1      14.018  -6.088  -0.058  0.00  0.00    +0.138 C 
BRANCH  20  21
ATOM     21  C   UNL     1      15.129  -6.854  -0.653  0.00  0.00    -0.003 A 
ATOM     22  C   UNL     1      15.093  -7.247  -1.997  0.00  0.00    +0.029 A 
ATOM     23  C   UNL     1      16.157  -7.957  -2.514  0.00  0.00    +0.111 A 
ATOM     24  N   UNL     1      17.191  -8.274  -1.758  0.00  0.00    -0.263 NA
ATOM     25  C   UNL     1      17.263  -7.928  -0.487  0.00  0.00    +0.111 A 
ATOM     26  C   UNL     1      16.247  -7.212   0.111  0.00  0.00    +0.029 A 
ENDBRANCH  20  21
ENDBRANCH  17  19
ENDBRANCH  14  15
ENDBRANCH  12  14
ENDBRANCH   1  12
BRANCH   4  27
ATOM     27  C   UNL     1       4.877   0.102  -0.045  0.00  0.00    +0.178 C 
BRANCH  27  28
ATOM     28  N   UNL     1       3.620  -0.649  -0.037  0.00  0.00    -0.337 N 
ATOM     29  H   UNL     1       3.634  -1.619  -0.042  0.00  0.00    +0.147 HD
BRANCH  28  30
ATOM     30  C   UNL     1       2.400   0.031  -0.021  0.00  0.00    +0.027 A 
ATOM     31  C   UNL     1       1.206  -0.680  -0.013  0.00  0.00    +0.023 A 
ATOM     32  C   UNL     1       0.002  -0.004   0.002  0.00  0.00    +0.002 A 
ATOM     33  C   UNL     1      -0.017   1.379   0.010  0.00  0.00    +0.000 A 
ATOM     34  C   UNL     1       1.169   2.089   0.002  0.00  0.00    +0.002 A 
ATOM     35  C   UNL     1       2.377   1.420  -0.013  0.00  0.00    +0.023 A 
ENDBRANCH  28  30
ENDBRANCH  27  28
ENDBRANCH   4  27
TORSDOF 9
