REMARK  Name = ZINC16779219
REMARK  5 active torsions:
REMARK  status: ('A' for Active; 'I' for Inactive)
REMARK    1  A    between atoms: C_1  and  C_2
REMARK    2  A    between atoms: C_5  and  S_8
REMARK    3  A    between atoms: S_8  and  C_9
REMARK    4  A    between atoms: C_15  and  C_28
REMARK    5  A    between atoms: C_20  and  C_22
REMARK                            x       y       z     vdW  Elec       q    Type
REMARK                         _______ _______ _______ _____ _____    ______ ____
ROOT
ATOM      1  C   UNL     1       1.725   2.248   0.013  0.00  0.00    +0.089 C 
ATOM      2  C   UNL     1       2.332   1.869  -1.316  0.00  0.00    +0.094 C 
ATOM      3  S   UNL     1       4.076   2.291  -1.404  0.00  0.00    -0.086 S 
ATOM      4  C   UNL     1       4.114   3.865  -0.621  0.00  0.00    +0.172 A 
ATOM      5  N   UNL     1       5.195   4.614  -0.829  0.00  0.00    -0.228 NA
ATOM      6  C   UNL     1       5.426   5.734  -0.161  0.00  0.00    +0.046 A 
ATOM      7  C   UNL     1       4.540   6.145   0.792  0.00  0.00    +0.093 A 
ATOM      8  C   UNL     1       3.373   5.395   0.987  0.00  0.00    +0.255 A 
ATOM      9  O   UNL     1       2.574   5.716   1.851  0.00  0.00    -0.268 OA
ATOM     10  N   UNL     1       3.134   4.304   0.205  0.00  0.00    -0.279 N 
ATOM     11  C   UNL     1       1.811   3.716   0.318  0.00  0.00    +0.137 C 
ATOM     12  C   UNL     1       6.660   6.549  -0.451  0.00  0.00    +0.066 C 
ENDROOT
BRANCH  11  13
ATOM     13  C   UNL     1       0.891   4.448  -0.625  0.00  0.00    -0.023 A 
ATOM     14  C   UNL     1       1.298   4.718  -1.918  0.00  0.00    +0.006 A 
ATOM     15  C   UNL     1       0.453   5.386  -2.784  0.00  0.00    +0.000 A 
ATOM     16  C   UNL     1      -0.796   5.793  -2.353  0.00  0.00    +0.000 A 
ATOM     17  C   UNL     1      -1.202   5.528  -1.058  0.00  0.00    +0.000 A 
ATOM     18  C   UNL     1      -0.358   4.856  -0.194  0.00  0.00    +0.006 A 
ENDBRANCH  11  13
BRANCH   1  19
ATOM     19  S   UNL     1      -0.022   1.758   0.012  0.00  0.00    -0.119 S 
BRANCH  19  24
ATOM     20  C   UNL     1       0.149  -4.255  -0.487  0.00  0.00    +0.044 C 
ATOM     21  C   UNL     1       0.106  -2.754  -0.362  0.00  0.00    -0.050 A 
ATOM     22  C   UNL     1       0.228  -2.161   0.881  0.00  0.00    +0.004 A 
ATOM     23  C   UNL     1       0.190  -0.786   0.999  0.00  0.00    +0.015 A 
ATOM     24  C   UNL     1       0.028   0.003  -0.134  0.00  0.00    +0.008 A 
ATOM     25  C   UNL     1      -0.101  -0.597  -1.381  0.00  0.00    +0.015 A 
ATOM     26  C   UNL     1      -0.055  -1.973  -1.492  0.00  0.00    +0.004 A 
ENDBRANCH  19  24
ENDBRANCH   1  19
TORSDOF 3
