REMARK  Name = ZINC25490734
REMARK  4 active torsions:
REMARK  status: ('A' for Active; 'I' for Inactive)
REMARK    1  A    between atoms: C_9  and  O_17
REMARK    2  A    between atoms: O_17  and  C_18
REMARK    3  A    between atoms: C_18  and  O_19
REMARK    4  A    between atoms: O_19  and  C_20
REMARK                            x       y       z     vdW  Elec       q    Type
REMARK                         _______ _______ _______ _____ _____    ______ ____
ROOT
ATOM      1  C   UNL     1      -2.056   4.956   1.243  0.00  0.00    +0.323 C 
ENDROOT
BRANCH   1   2
ATOM      2  O   UNL     1      -2.780   3.743   1.026  0.00  0.00    -0.349 OA
BRANCH   2  11
ATOM      3  C   UNL     1      -3.584   0.198   0.469  0.00  0.00    +0.002 C 
ATOM      4  C   UNL     1      -3.621   0.900   1.827  0.00  0.00    +0.014 C 
ATOM      5  C   UNL     1      -2.308   1.630   2.080  0.00  0.00    +0.044 C 
ATOM      6  C   UNL     1      -1.186   0.622   2.346  0.00  0.00    +0.174 C 
ATOM      7  O   UNL     1       0.010   1.349   2.653  0.00  0.00    -0.353 OA
ATOM      8  C   UNL     1      -0.114   2.180   3.811  0.00  0.00    +0.322 C 
ATOM      9  O   UNL     1      -1.201   3.092   3.641  0.00  0.00    -0.353 OA
ATOM     10  C   UNL     1      -2.457   2.462   3.373  0.00  0.00    +0.174 C 
ATOM     11  C   UNL     1      -1.950   2.574   0.944  0.00  0.00    +0.142 C 
ATOM     12  C   UNL     1      -2.079   1.970  -0.445  0.00  0.00    +0.044 C 
ATOM     13  C   UNL     1      -3.412   1.252  -0.626  0.00  0.00    +0.014 C 
ATOM     14  C   UNL     1      -0.917   1.024  -0.759  0.00  0.00    +0.174 C 
ATOM     15  O   UNL     1       0.307   1.760  -0.641  0.00  0.00    -0.353 OA
ATOM     16  C   UNL     1       0.389   2.868  -1.542  0.00  0.00    +0.322 C 
ATOM     17  O   UNL     1      -0.722   3.744  -1.343  0.00  0.00    -0.353 OA
ATOM     18  C   UNL     1      -1.998   3.114  -1.481  0.00  0.00    +0.174 C 
ENDBRANCH   2  11
ENDBRANCH   1   2
BRANCH   1  19
ATOM     19  O   UNL     1      -2.970   6.052   1.302  0.00  0.00    -0.349 OA
BRANCH  19  20
ATOM     20  C   UNL     1      -2.350   7.315   1.591  0.00  0.00    +0.142 C 
ATOM     21  C   UNL     1      -2.893   7.845   2.907  0.00  0.00    +0.044 C 
ATOM     22  C   UNL     1      -4.290   8.438   2.762  0.00  0.00    +0.014 C 
ATOM     23  C   UNL     1      -4.300   9.493   1.655  0.00  0.00    +0.002 C 
ATOM     24  C   UNL     1      -3.951   8.809   0.332  0.00  0.00    +0.014 C 
ATOM     25  C   UNL     1      -2.537   8.242   0.401  0.00  0.00    +0.044 C 
ATOM     26  C   UNL     1      -2.273   7.437  -0.890  0.00  0.00    +0.174 C 
ATOM     27  O   UNL     1      -0.925   6.961  -0.847  0.00  0.00    -0.353 OA
ATOM     28  C   UNL     1       0.056   7.995  -0.747  0.00  0.00    +0.322 C 
ATOM     29  O   UNL     1      -0.200   8.802   0.406  0.00  0.00    -0.353 OA
ATOM     30  C   UNL     1      -1.511   9.380   0.418  0.00  0.00    +0.174 C 
ATOM     31  C   UNL     1      -1.944   8.880   3.521  0.00  0.00    +0.174 C 
ATOM     32  O   UNL     1      -0.667   8.262   3.715  0.00  0.00    -0.353 OA
ATOM     33  C   UNL     1      -0.710   7.132   4.591  0.00  0.00    +0.322 C 
ATOM     34  O   UNL     1      -1.641   6.167   4.096  0.00  0.00    -0.353 OA
ATOM     35  C   UNL     1      -2.965   6.674   3.911  0.00  0.00    +0.174 C 
ENDBRANCH  19  20
ENDBRANCH   1  19
TORSDOF 4
