REMARK  Name = ZINC52594482
REMARK  5 active torsions:
REMARK  status: ('A' for Active; 'I' for Inactive)
REMARK    1  A    between atoms: C_15  and  C_17
REMARK    2  A    between atoms: C_17  and  C_19
REMARK    3  A    between atoms: C_17  and  N_29
REMARK    4  A    between atoms: C_19  and  C_20
REMARK    5  A    between atoms: C_30  and  C_32
REMARK                            x       y       z     vdW  Elec       q    Type
REMARK                         _______ _______ _______ _____ _____    ______ ____
ROOT
ATOM      1  C   UNL     1       8.402  -1.416  -0.528  0.00  0.00    +0.163 C 
ENDROOT
BRANCH   1  16
ATOM      2  C   UNL     1      -0.280   0.936  -0.732  0.00  0.00    +0.000 A 
ATOM      3  C   UNL     1       0.872   1.684  -0.570  0.00  0.00    +0.000 A 
ATOM      4  C   UNL     1       2.098   1.053  -0.498  0.00  0.00    +0.004 A 
ATOM      5  C   UNL     1       2.179  -0.327  -0.586  0.00  0.00    -0.038 A 
ATOM      6  C   UNL     1       1.027  -1.074  -0.749  0.00  0.00    -0.044 A 
ATOM      7  C   UNL     1      -0.202  -0.440  -0.821  0.00  0.00    +0.004 A 
ATOM      8  C   UNL     1       1.376  -2.546  -0.818  0.00  0.00    +0.036 C 
ATOM      9  C   UNL     1       2.891  -2.588  -1.115  0.00  0.00    +0.016 C 
ATOM     10  C   UNL     1       3.376  -1.247  -0.535  0.00  0.00    -0.001 C 
ATOM     11  C   UNL     1       3.834  -1.439   0.908  0.00  0.00    +0.030 C 
ATOM     12  C   UNL     1       5.006  -2.427   0.942  0.00  0.00    +0.108 C 
ATOM     13  N   UNL     1       6.050  -1.951   0.023  0.00  0.00    -0.300 N 
ATOM     14  C   UNL     1       5.689  -1.669  -1.373  0.00  0.00    +0.108 C 
ATOM     15  C   UNL     1       4.511  -0.689  -1.390  0.00  0.00    +0.030 C 
ATOM     16  C   UNL     1       7.315  -1.777   0.453  0.00  0.00    +0.236 C 
ATOM     17  O   UNL     1       7.580  -1.909   1.629  0.00  0.00    -0.274 OA
ENDBRANCH   1  16
BRANCH   1  18
ATOM     18  N   UNL     1       9.710  -1.679   0.075  0.00  0.00    -0.305 N 
ATOM     19  C   UNL     1      10.707  -2.190  -0.675  0.00  0.00    +0.200 C 
ATOM     20  O   UNL     1      10.521  -2.431  -1.848  0.00  0.00    -0.278 OA
ATOM     21  H   UNL     1       9.860  -1.486   1.014  0.00  0.00    +0.149 HD
BRANCH  19  22
ATOM     22  C   UNL     1      12.054  -2.460  -0.054  0.00  0.00    +0.016 C 
ATOM     23  C   UNL     1      12.633  -1.155   0.495  0.00  0.00    -0.007 C 
ATOM     24  C   UNL     1      14.001  -1.434   1.124  0.00  0.00    -0.003 C 
ATOM     25  C   UNL     1      14.913  -2.078   0.075  0.00  0.00    -0.019 C 
ATOM     26  C   UNL     1      14.249  -3.349  -0.458  0.00  0.00    -0.082 C 
ATOM     27  N   UNL     1      12.959  -3.011  -1.071  0.00  0.00    +0.387 N 
ATOM     28  H   UNL     1      12.549  -3.842  -1.469  0.00  0.00    -0.085 HD
ATOM     29  H   UNL     1      13.101  -2.327  -1.798  0.00  0.00    -0.085 HD
ENDBRANCH  19  22
ENDBRANCH   1  18
BRANCH   1  30
ATOM     30  C   UNL     1       8.294   0.067  -0.886  0.00  0.00    +0.065 C 
BRANCH  30  31
ATOM     31  C   UNL     1       9.291   0.397  -1.966  0.00  0.00    -0.039 C 
ATOM     32  C   UNL     1       9.065   0.433  -3.299  0.00  0.00    -0.001 A 
ATOM     33  C   UNL     1       7.867   0.184  -4.111  0.00  0.00    +0.010 A 
ATOM     34  C   UNL     1       7.951   0.300  -5.456  0.00  0.00    +0.001 A 
ATOM     35  C   UNL     1       9.150   0.650  -6.092  0.00  0.00    +0.002 A 
ATOM     36  C   UNL     1      10.291   0.893  -5.414  0.00  0.00    +0.026 A 
ATOM     37  C   UNL     1      10.318   0.801  -3.995  0.00  0.00    +0.043 A 
ATOM     38  N   UNL     1      11.282   0.986  -3.127  0.00  0.00    -0.380 N 
ATOM     39  C   UNL     1      10.747   0.761  -1.779  0.00  0.00    +0.144 C 
ATOM     40  H   UNL     1      12.196   1.233  -3.339  0.00  0.00    +0.160 HD
ENDBRANCH  30  31
ENDBRANCH   1  30
TORSDOF 5
