REMARK  Name = ZINC41400734
REMARK  12 active torsions:
REMARK  status: ('A' for Active; 'I' for Inactive)
REMARK    1  A    between atoms: C_1  and  C_2
REMARK    2  A    between atoms: C_6  and  C_8
REMARK    3  A    between atoms: C_8  and  C_10
REMARK    4  A    between atoms: C_8  and  N_27
REMARK    5  A    between atoms: C_10  and  C_11
REMARK    6  A    between atoms: N_13  and  C_14
REMARK    7  A    between atoms: C_14  and  C_15
REMARK    8  A    between atoms: C_15  and  C_17
REMARK    9  A    between atoms: C_15  and  N_20
REMARK   10  A    between atoms: C_17  and  C_18
REMARK   11  A    between atoms: C_17  and  C_19
REMARK   12  A    between atoms: C_23  and  C_26
REMARK                            x       y       z     vdW  Elec       q    Type
REMARK                         _______ _______ _______ _____ _____    ______ ____
ROOT
ATOM      1  C   UNL     1       1.583  -3.960   4.297  0.00  0.00    +0.215 C 
ATOM      2  O   UNL     1       0.763  -3.886   5.188  0.00  0.00    -0.276 OA
ATOM      3  N   UNL     1       2.835  -4.380   4.567  0.00  0.00    -0.317 N 
ATOM      4  H   UNL     1       3.491  -4.439   3.855  0.00  0.00    +0.149 HD
ENDROOT
BRANCH   1   5
ATOM      5  C   UNL     1       1.202  -3.583   2.889  0.00  0.00    +0.122 C 
BRANCH   5   6
ATOM      6  C   UNL     1      -0.264  -3.146   2.857  0.00  0.00    +0.113 C 
BRANCH   6  12
ATOM      7  C   UNL     1      -1.302  -4.088  -1.947  0.00  0.00    +0.044 C 
ATOM      8  C   UNL     1      -1.107  -3.103  -0.823  0.00  0.00    -0.050 A 
ATOM      9  C   UNL     1      -1.246  -1.748  -1.059  0.00  0.00    +0.003 A 
ATOM     10  C   UNL     1      -1.067  -0.845  -0.027  0.00  0.00    +0.001 A 
ATOM     11  C   UNL     1      -0.749  -1.298   1.240  0.00  0.00    +0.005 A 
ATOM     12  C   UNL     1      -0.611  -2.652   1.476  0.00  0.00    -0.026 A 
ATOM     13  C   UNL     1      -0.794  -3.556   0.445  0.00  0.00    +0.008 A 
ENDBRANCH   6  12
BRANCH   6  14
ATOM     14  N   UNL     1      -1.121  -4.283   3.199  0.00  0.00    -0.292 N 
ATOM     15  C   UNL     1      -2.375  -4.072   3.643  0.00  0.00    +0.298 C 
ATOM     16  O   UNL     1      -2.828  -2.944   3.674  0.00  0.00    -0.253 OA
ATOM     17  N   UNL     1      -3.129  -5.112   4.053  0.00  0.00    -0.313 N 
ATOM     18  H   UNL     1      -0.785  -5.189   3.105  0.00  0.00    +0.151 HD
ATOM     19  H   UNL     1      -2.768  -6.012   4.029  0.00  0.00    +0.146 HD
ATOM     20  H   UNL     1      -4.032  -4.960   4.373  0.00  0.00    +0.146 HD
ENDBRANCH   6  14
ENDBRANCH   5   6
ENDBRANCH   1   5
BRANCH   3  21
ATOM     21  C   UNL     1       3.206  -4.746   5.936  0.00  0.00    +0.089 C 
BRANCH  21  22
ATOM     22  C   UNL     1       4.704  -5.049   5.996  0.00  0.00    -0.049 C 
BRANCH  22  23
ATOM     23  N   UNL     1       5.051  -6.011   4.941  0.00  0.00    +0.383 N 
ATOM     24  C   UNL     1       4.201  -7.200   5.066  0.00  0.00    -0.078 C 
ATOM     25  C   UNL     1       4.502  -8.171   3.922  0.00  0.00    -0.016 C 
ATOM     26  C   UNL     1       5.975  -8.585   3.986  0.00  0.00    -0.018 C 
ATOM     27  C   UNL     1       6.851  -7.330   3.929  0.00  0.00    -0.016 C 
ATOM     28  C   UNL     1       6.463  -6.391   5.073  0.00  0.00    -0.078 C 
ATOM     29  C   UNL     1       6.303  -9.493   2.799  0.00  0.00    +0.007 C 
ATOM     30  H   UNL     1       4.902  -5.587   4.038  0.00  0.00    -0.081 HD
ENDBRANCH  22  23
BRANCH  22  31
ATOM     31  C   UNL     1       5.495  -3.756   5.787  0.00  0.00    -0.029 C 
ATOM     32  C   UNL     1       5.074  -3.109   4.465  0.00  0.00    +0.005 C 
ATOM     33  C   UNL     1       5.209  -2.791   6.940  0.00  0.00    +0.005 C 
ENDBRANCH  22  31
ENDBRANCH  21  22
ENDBRANCH   3  21
TORSDOF 8
