REMARK  Name = ZINC35447487
REMARK  10 active torsions:
REMARK  status: ('A' for Active; 'I' for Inactive)
REMARK    1  A    between atoms: C_1  and  N_2
REMARK    2  A    between atoms: N_2  and  C_3
REMARK    3  A    between atoms: N_2  and  S_4
REMARK    4  A    between atoms: S_4  and  C_7
REMARK    5  A    between atoms: C_11  and  C_13
REMARK    6  A    between atoms: C_14  and  C_24
REMARK    7  A    between atoms: N_16  and  C_18
REMARK    8  A    between atoms: C_25  and  C_26
REMARK    9  A    between atoms: C_25  and  C_28
REMARK   10  A    between atoms: N_30  and  C_31
REMARK                            x       y       z     vdW  Elec       q    Type
REMARK                         _______ _______ _______ _____ _____    ______ ____
ROOT
ATOM      1  C   UNL     1      -1.559  -4.772  -4.250  0.00  0.00    +0.100 A 
ATOM      2  C   UNL     1      -2.546  -5.161  -5.267  0.00  0.00    +0.022 A 
ATOM      3  C   UNL     1      -2.309  -6.499  -5.545  0.00  0.00    +0.123 A 
ATOM      4  N   UNL     1      -1.279  -6.900  -4.780  0.00  0.00    -0.239 N 
ATOM      5  N   UNL     1      -0.828  -5.833  -3.999  0.00  0.00    -0.166 NA
ENDROOT
BRANCH   1  10
ATOM      6  C   UNL     1      -0.893  -2.069  -1.725  0.00  0.00    +0.106 A 
ATOM      7  C   UNL     1      -1.139  -0.932  -2.475  0.00  0.00    +0.028 A 
ATOM      8  C   UNL     1      -1.522  -1.040  -3.799  0.00  0.00    +0.003 A 
ATOM      9  C   UNL     1      -1.660  -2.284  -4.381  0.00  0.00    +0.010 A 
ATOM     10  C   UNL     1      -1.413  -3.433  -3.631  0.00  0.00    +0.005 A 
ATOM     11  C   UNL     1      -1.022  -3.318  -2.297  0.00  0.00    +0.038 A 
BRANCH   6  12
ATOM     12  S   UNL     1      -0.406  -1.921  -0.038  0.00  0.00    +0.060 S 
ATOM     13  O   UNL     1      -0.758  -3.143   0.595  0.00  0.00    -0.153 OA
ATOM     14  O   UNL     1      -0.885  -0.662   0.414  0.00  0.00    -0.153 OA
BRANCH  12  16
ATOM     15  C   UNL     1       1.915  -0.532  -0.092  0.00  0.00    +0.131 C 
ATOM     16  N   UNL     1       1.248  -1.834  -0.012  0.00  0.00    -0.183 NA
ATOM     17  C   UNL     1       2.044  -3.060   0.092  0.00  0.00    +0.131 C 
ENDBRANCH  12  16
ENDBRANCH   6  12
ENDBRANCH   1  10
BRANCH   4  18
ATOM     18  C   UNL     1      -0.737  -8.191  -4.772  0.00  0.00    +0.065 A 
ATOM     19  C   UNL     1      -1.262  -9.172  -5.603  0.00  0.00    +0.028 A 
ATOM     20  C   UNL     1      -0.725 -10.444  -5.593  0.00  0.00    +0.002 A 
ATOM     21  C   UNL     1       0.334 -10.742  -4.755  0.00  0.00    +0.000 A 
ATOM     22  C   UNL     1       0.859  -9.768  -3.926  0.00  0.00    +0.002 A 
ATOM     23  C   UNL     1       0.331  -8.492  -3.937  0.00  0.00    +0.028 A 
ENDBRANCH   4  18
BRANCH   2  24
ATOM     24  C   UNL     1      -3.573  -4.310  -5.864  0.00  0.00    +0.035 C 
ATOM     25  C   UNL     1      -3.776  -4.328  -7.229  0.00  0.00    +0.114 C 
BRANCH  25  26
ATOM     26  C   UNL     1      -2.801  -4.989  -8.108  0.00  0.00    +0.255 C 
ATOM     27  O   UNL     1      -1.755  -5.409  -7.650  0.00  0.00    -0.269 OA
ATOM     28  N   UNL     1      -3.065  -5.129  -9.422  0.00  0.00    -0.308 N 
ATOM     29  H   UNL     1      -3.899  -4.794  -9.788  0.00  0.00    +0.149 HD
BRANCH  28  30
ATOM     30  C   UNL     1      -2.093  -5.788 -10.299  0.00  0.00    +0.073 C 
ATOM     31  C   UNL     1      -1.054  -4.767 -10.767  0.00  0.00    +0.022 C 
ATOM     32  C   UNL     1      -0.039  -5.454 -11.682  0.00  0.00    +0.002 C 
ATOM     33  C   UNL     1      -0.762  -6.039 -12.897  0.00  0.00    +0.000 C 
ATOM     34  C   UNL     1      -1.802  -7.060 -12.429  0.00  0.00    +0.002 C 
ATOM     35  C   UNL     1      -2.817  -6.372 -11.514  0.00  0.00    +0.022 C 
ENDBRANCH  28  30
ENDBRANCH  25  26
BRANCH  25  36
ATOM     36  C   UNL     1      -4.936  -3.703  -7.789  0.00  0.00    +0.104 C 
ATOM     37  N   UNL     1      -5.857  -3.207  -8.232  0.00  0.00    -0.191 NA
ENDBRANCH  25  36
ENDBRANCH   2  24
TORSDOF 8
