REMARK  Name = ZINC46795162
REMARK  10 active torsions:
REMARK  status: ('A' for Active; 'I' for Inactive)
REMARK    1  A    between atoms: C_1  and  C_2
REMARK    2  A    between atoms: C_2  and  C_3
REMARK    3  A    between atoms: C_2  and  C_4
REMARK    4  A    between atoms: C_7  and  C_10
REMARK    5  A    between atoms: C_10  and  C_12
REMARK    6  A    between atoms: C_10  and  N_25
REMARK    7  A    between atoms: C_12  and  N_13
REMARK    8  A    between atoms: C_14  and  C_16
REMARK    9  A    between atoms: C_18  and  S_21
REMARK   10  A    between atoms: S_21  and  N_24
REMARK                            x       y       z     vdW  Elec       q    Type
REMARK                         _______ _______ _______ _____ _____    ______ ____
ROOT
ATOM      1  C   UNL     1      -5.430  -1.951  -0.053  0.00  0.00    +0.104 C 
ENDROOT
BRANCH   1   2
ATOM      2  N   UNL     1      -5.261  -3.239  -0.738  0.00  0.00    -0.289 NA
ATOM      3  C   UNL     1      -6.559  -3.797  -1.140  0.00  0.00    +0.090 C 
ATOM      4  C   UNL     1      -6.323  -4.898  -2.188  0.00  0.00    +0.058 C 
ATOM      5  C   UNL     1      -5.222  -5.774  -1.686  0.00  0.00    -0.005 A 
ATOM      6  C   UNL     1      -4.366  -5.500  -0.662  0.00  0.00    -0.023 A 
ATOM      7  C   UNL     1      -3.415  -6.474  -0.368  0.00  0.00    +0.013 A 
ATOM      8  C   UNL     1      -3.374  -7.619  -1.088  0.00  0.00    +0.046 A 
ATOM      9  S   UNL     1      -4.712  -7.374  -2.247  0.00  0.00    -0.101 S 
ATOM     10  C   UNL     1      -4.489  -4.177   0.088  0.00  0.00    +0.121 C 
ENDBRANCH   1   2
BRANCH   1  14
ATOM     11  C   UNL     1      -1.597  -0.370   0.975  0.00  0.00    -0.045 A 
ATOM     12  C   UNL     1      -2.652  -0.256   1.861  0.00  0.00    +0.004 A 
ATOM     13  C   UNL     1      -3.892  -0.768   1.528  0.00  0.00    +0.005 A 
ATOM     14  C   UNL     1      -4.078  -1.393   0.309  0.00  0.00    -0.029 A 
ATOM     15  C   UNL     1      -3.023  -1.506  -0.577  0.00  0.00    +0.005 A 
ATOM     16  C   UNL     1      -1.784  -0.991  -0.246  0.00  0.00    +0.004 A 
BRANCH  11  18
ATOM     17  C   UNL     1      -0.363   1.692   1.587  0.00  0.00    +0.012 C 
ATOM     18  C   UNL     1      -0.245   0.187   1.337  0.00  0.00    +0.013 C 
ATOM     19  C   UNL     1       0.268  -0.501   2.604  0.00  0.00    +0.012 C 
ENDBRANCH  11  18
ENDBRANCH   1  14
BRANCH   1  20
ATOM     20  C   UNL     1      -6.154  -0.972  -0.980  0.00  0.00    +0.128 C 
BRANCH  20  21
ATOM     21  N   UNL     1      -5.443  -0.892  -2.257  0.00  0.00    -0.310 N 
ATOM     22  C   UNL     1      -5.834  -0.004  -3.192  0.00  0.00    +0.245 C 
ATOM     23  O   UNL     1      -6.779   0.732  -2.975  0.00  0.00    -0.270 OA
ATOM     24  H   UNL     1      -4.690  -1.478  -2.431  0.00  0.00    +0.149 HD
BRANCH  22  25
ATOM     25  C   UNL     1      -5.119   0.077  -4.476  0.00  0.00    +0.046 A 
ATOM     26  C   UNL     1      -5.506   1.019  -5.498  0.00  0.00    +0.049 A 
ATOM     27  C   UNL     1      -4.770   0.993  -6.628  0.00  0.00    +0.143 A 
ATOM     28  S   UNL     1      -3.578  -0.288  -6.303  0.00  0.00    -0.076 S 
ATOM     29  C   UNL     1      -4.046  -0.739  -4.756  0.00  0.00    +0.060 A 
BRANCH  27  30
ATOM     30  S   UNL     1      -4.946   1.985  -8.073  0.00  0.00    +0.062 S 
ATOM     31  O   UNL     1      -4.363   1.252  -9.142  0.00  0.00    -0.153 OA
ATOM     32  O   UNL     1      -6.296   2.427  -8.101  0.00  0.00    -0.153 OA
BRANCH  30  33
ATOM     33  N   UNL     1      -4.010   3.334  -7.859  0.00  0.00    -0.203 NA
ATOM     34  H   UNL     1      -3.501   3.446  -7.040  0.00  0.00    +0.144 HD
ATOM     35  H   UNL     1      -3.971   4.012  -8.551  0.00  0.00    +0.144 HD
ENDBRANCH  30  33
ENDBRANCH  27  30
ENDBRANCH  22  25
ENDBRANCH  20  21
ENDBRANCH   1  20
TORSDOF 8
