REMARK  Name = ZINC14164934
REMARK  3 active torsions:
REMARK  status: ('A' for Active; 'I' for Inactive)
REMARK    1  A    between atoms: C_1  and  C_2
REMARK    2  A    between atoms: C_7  and  C_19
REMARK    3  A    between atoms: C_13  and  C_18
REMARK                            x       y       z     vdW  Elec       q    Type
REMARK                         _______ _______ _______ _____ _____    ______ ____
ROOT
ATOM      1  C   UNL     1       2.423  -7.191   3.672  0.00  0.00    +0.090 C 
ATOM      2  C   UNL     1       1.869  -6.017   2.907  0.00  0.00    +0.150 A 
ATOM      3  N   UNL     1       2.381  -4.781   2.908  0.00  0.00    -0.198 NA
ATOM      4  C   UNL     1       1.658  -4.009   2.144  0.00  0.00    +0.219 A 
ATOM      5  N   UNL     1       0.653  -4.756   1.624  0.00  0.00    -0.221 N 
ATOM      6  N   UNL     1       0.811  -6.044   2.135  0.00  0.00    -0.153 NA
ATOM      7  C   UNL     1      -0.351  -4.226   0.711  0.00  0.00    +0.175 C 
ATOM      8  C   UNL     1      -0.306  -2.713   0.714  0.00  0.00    +0.041 C 
ATOM      9  C   UNL     1       0.723  -2.027   1.254  0.00  0.00    +0.020 C 
ATOM     10  N   UNL     1       1.790  -2.664   1.841  0.00  0.00    -0.287 N 
ATOM     11  C   UNL     1       0.741  -0.516   1.240  0.00  0.00    +0.055 C 
ATOM     12  C   UNL     1       0.002  -0.004   0.002  0.00  0.00    -0.001 C 
ATOM     13  C   UNL     1      -1.433  -0.540   0.041  0.00  0.00    +0.083 C 
ATOM     14  C   UNL     1      -1.391  -2.041   0.122  0.00  0.00    +0.163 C 
ATOM     15  O   UNL     1      -2.314  -2.687  -0.334  0.00  0.00    -0.292 OA
ATOM     16  C   UNL     1      -0.019   1.526   0.010  0.00  0.00    +0.008 C 
ATOM     17  H   UNL     1       2.611  -2.186   2.038  0.00  0.00    +0.155 HD
ENDROOT
BRANCH   7  18
ATOM     18  C   UNL     1      -0.077  -4.731  -0.682  0.00  0.00    -0.017 A 
ATOM     19  C   UNL     1      -1.028  -5.487  -1.343  0.00  0.00    +0.006 A 
ATOM     20  C   UNL     1      -0.778  -5.951  -2.620  0.00  0.00    +0.002 A 
ATOM     21  C   UNL     1       0.424  -5.660  -3.238  0.00  0.00    +0.020 A 
ATOM     22  C   UNL     1       1.376  -4.904  -2.578  0.00  0.00    +0.041 A 
ATOM     23  C   UNL     1       1.122  -4.435  -1.301  0.00  0.00    +0.026 A 
ATOM     24 CL   UNL     1       2.885  -4.539  -3.353  0.00  0.00    -0.084 Cl
ENDBRANCH   7  18
TORSDOF 1
