REMARK  Name = ZINC32666475
REMARK  13 active torsions:
REMARK  status: ('A' for Active; 'I' for Inactive)
REMARK    1  A    between atoms: C_1  and  C_2
REMARK    2  A    between atoms: C_2  and  C_3
REMARK    3  A    between atoms: C_2  and  C_4
REMARK    4  A    between atoms: C_4  and  N_5
REMARK    5  A    between atoms: N_5  and  C_6
REMARK    6  A    between atoms: C_7  and  N_22
REMARK    7  A    between atoms: N_8  and  C_15
REMARK    8  A    between atoms: C_15  and  C_16
REMARK    9  A    between atoms: C_23  and  C_25
REMARK   10  A    between atoms: C_25  and  O_26
REMARK   11  A    between atoms: O_26  and  C_27
REMARK   12  A    between atoms: C_27  and  C_29
REMARK   13  A    between atoms: C_38  and  O_39
REMARK                            x       y       z     vdW  Elec       q    Type
REMARK                         _______ _______ _______ _____ _____    ______ ____
ROOT
ATOM      1  N   UNL     1      -4.739   1.365  -0.050  0.00  0.00    -0.261 N 
ATOM      2  C   UNL     1      -3.485   1.863  -0.040  0.00  0.00    +0.258 C 
ATOM      3  O   UNL     1      -3.309   3.063  -0.067  0.00  0.00    -0.272 OA
ENDROOT
BRANCH   1   4
ATOM      4  C   UNL     1      -5.842   2.232  -0.192  0.00  0.00    +0.140 A 
ATOM      5  C   UNL     1      -6.800   2.317   0.798  0.00  0.00    +0.128 A 
ATOM      6  N   UNL     1      -7.861   3.177   0.634  0.00  0.00    -0.276 N 
ATOM      7  C   UNL     1      -7.971   3.918  -0.484  0.00  0.00    +0.331 A 
ATOM      8  O   UNL     1      -8.919   4.668  -0.613  0.00  0.00    -0.246 OA
ATOM      9  N   UNL     1      -7.050   3.844  -1.461  0.00  0.00    -0.273 N 
ATOM     10  H   UNL     1      -7.158   4.460  -2.367  0.00  0.00    +0.173 HD
ATOM     11  C   UNL     1      -5.988   3.022  -1.347  0.00  0.00    +0.277 A 
ATOM     12  O   UNL     1      -5.159   2.964  -2.240  0.00  0.00    -0.266 OA
BRANCH   5  13
ATOM     13  N   UNL     1      -6.692   1.556   1.937  0.00  0.00    -0.343 N 
ATOM     14  H   UNL     1      -7.459   1.629   2.722  0.00  0.00    +0.144 HD
ATOM     15  H   UNL     1      -5.838   0.874   2.064  0.00  0.00    +0.144 HD
ENDBRANCH   5  13
BRANCH   6  16
ATOM     16  C   UNL     1      -8.882   3.282   1.679  0.00  0.00    +0.163 C 
BRANCH  16  17
ATOM     17  C   UNL     1      -9.973   2.275   1.419  0.00  0.00    -0.028 A 
ATOM     18  C   UNL     1     -11.065   2.623   0.648  0.00  0.00    +0.005 A 
ATOM     19  C   UNL     1     -12.063   1.698   0.405  0.00  0.00    +0.000 A 
ATOM     20  C   UNL     1     -11.974   0.427   0.943  0.00  0.00    +0.000 A 
ATOM     21  C   UNL     1     -10.884   0.081   1.718  0.00  0.00    +0.000 A 
ATOM     22  C   UNL     1      -9.883   1.004   1.957  0.00  0.00    +0.005 A 
ENDBRANCH  16  17
ENDBRANCH   6  16
ENDBRANCH   1   4
BRANCH   1  23
ATOM     23  C   UNL     1      -4.955  -0.078   0.086  0.00  0.00    +0.117 C 
BRANCH  23  25
ATOM     24  C   UNL     1      -5.076  -2.240  -1.161  0.00  0.00    +0.009 C 
ATOM     25  C   UNL     1      -5.014  -0.718  -1.303  0.00  0.00    +0.001 C 
ATOM     26  C   UNL     1      -6.260  -0.223  -2.040  0.00  0.00    +0.009 C 
ENDBRANCH  23  25
ENDBRANCH   1  23
BRANCH   2  27
ATOM     27  C   UNL     1      -2.303   0.929   0.005  0.00  0.00    +0.328 C 
BRANCH  27  28
ATOM     28  O   UNL     1      -1.076   1.696  -0.113  0.00  0.00    -0.452 OA
BRANCH  28  29
ATOM     29  C   UNL     1       0.081   1.006  -0.090  0.00  0.00    +0.343 C 
ATOM     30  O   UNL     1       0.065  -0.203   0.026  0.00  0.00    -0.245 OA
BRANCH  29  31
ATOM     31  C   UNL     1       1.367   1.718  -0.212  0.00  0.00    +0.101 A 
ATOM     32  C   UNL     1       1.380   3.097  -0.350  0.00  0.00    +0.027 A 
ATOM     33  C   UNL     1       2.606   3.769  -0.459  0.00  0.00    -0.017 A 
ATOM     34  C   UNL     1       2.657   5.168  -0.595  0.00  0.00    +0.008 A 
ATOM     35  C   UNL     1       3.861   5.791  -0.706  0.00  0.00    +0.001 A 
ATOM     36  C   UNL     1       5.050   5.063  -0.685  0.00  0.00    +0.001 A 
ATOM     37  C   UNL     1       5.040   3.708  -0.556  0.00  0.00    +0.008 A 
ATOM     38  C   UNL     1       3.816   3.027  -0.439  0.00  0.00    -0.014 A 
ATOM     39  C   UNL     1       3.775   1.630  -0.304  0.00  0.00    +0.054 A 
ATOM     40  C   UNL     1       2.576   0.990  -0.193  0.00  0.00    +0.131 A 
BRANCH  40  41
ATOM     41  O   UNL     1       2.545  -0.361  -0.064  0.00  0.00    -0.506 OA
ATOM     42  H   UNL     1       3.484  -0.933  -0.048  0.00  0.00    +0.292 HD
ENDBRANCH  40  41
ENDBRANCH  29  31
ENDBRANCH  28  29
ENDBRANCH  27  28
ENDBRANCH   2  27
TORSDOF 11
