REMARK  Name = ZINC15143824
REMARK  3 active torsions:
REMARK  status: ('A' for Active; 'I' for Inactive)
REMARK    1  A    between atoms: C_1  and  C_2
REMARK    2  A    between atoms: N_17  and  C_20
REMARK    3  A    between atoms: C_20  and  C_21
REMARK                            x       y       z     vdW  Elec       q    Type
REMARK                         _______ _______ _______ _____ _____    ______ ____
ROOT
ATOM      1  C   UNL     1       2.498  -0.360   0.975  0.00  0.00    +0.088 C 
ATOM      2  C   UNL     1       1.182  -0.877   0.454  0.00  0.00    +0.129 A 
ATOM      3  N   UNL     1       1.146  -1.488  -0.717  0.00  0.00    -0.217 NA
ATOM      4  C   UNL     1       0.022  -1.965  -1.229  0.00  0.00    +0.133 A 
ATOM      5  C   UNL     1      -1.187  -1.814  -0.497  0.00  0.00    +0.051 A 
ATOM      6  C   UNL     1      -2.541  -2.259  -0.864  0.00  0.00    -0.025 A 
ATOM      7  C   UNL     1      -3.526  -1.993   0.009  0.00  0.00    -0.004 A 
ATOM      8  S   UNL     1      -2.732  -1.149   1.358  0.00  0.00    -0.073 S 
ATOM      9  C   UNL     1      -1.071  -1.154   0.740  0.00  0.00    +0.114 A 
ATOM     10  N   UNL     1       0.092  -0.714   1.180  0.00  0.00    -0.225 NA
ATOM     11  C   UNL     1      -4.863  -2.488  -0.473  0.00  0.00    +0.043 C 
ATOM     12  C   UNL     1      -4.663  -2.732  -1.985  0.00  0.00    +0.010 C 
ATOM     13  C   UNL     1      -3.147  -2.997  -2.062  0.00  0.00    +0.037 C 
ATOM     14  N   UNL     1       0.025  -2.598  -2.458  0.00  0.00    -0.312 N 
ATOM     15  C   UNL     1       0.148  -4.061  -2.554  0.00  0.00    +0.122 C 
ATOM     16  C   UNL     1       1.271  -4.392  -3.542  0.00  0.00    +0.104 C 
ATOM     17  N   UNL     1       1.017  -3.706  -4.815  0.00  0.00    -0.294 NA
ATOM     18  C   UNL     1       1.037  -2.247  -4.648  0.00  0.00    +0.104 C 
ATOM     19  C   UNL     1      -0.102  -1.828  -3.705  0.00  0.00    +0.122 C 
ENDROOT
BRANCH  17  20
ATOM     20  C   UNL     1       1.976  -4.131  -5.843  0.00  0.00    +0.138 C 
BRANCH  20  21
ATOM     21  C   UNL     1       1.541  -3.603  -7.186  0.00  0.00    +0.037 A 
ATOM     22  C   UNL     1       2.314  -2.683  -7.862  0.00  0.00    +0.093 A 
ATOM     23  C   UNL     1       1.895  -2.206  -9.104  0.00  0.00    +0.259 A 
ATOM     24  O   UNL     1       2.576  -1.392  -9.708  0.00  0.00    -0.267 OA
ATOM     25  N   UNL     1       0.722  -2.651  -9.645  0.00  0.00    -0.264 N 
ATOM     26  C   UNL     1       0.179  -2.278 -10.851  0.00  0.00    +0.104 A 
ATOM     27  C   UNL     1      -0.980  -2.787 -11.271  0.00  0.00    +0.067 A 
ATOM     28  S   UNL     1      -1.406  -3.883  -9.927  0.00  0.00    -0.059 S 
ATOM     29  C   UNL     1       0.017  -3.564  -8.906  0.00  0.00    +0.158 A 
ATOM     30  N   UNL     1       0.406  -4.020  -7.742  0.00  0.00    -0.338 N 
ATOM     31  H   UNL     1      -0.143  -4.670  -7.276  0.00  0.00    +0.168 HD
ENDBRANCH  20  21
ENDBRANCH  17  20
TORSDOF 2
