REMARK  Name = ZINC02842001
REMARK  9 active torsions:
REMARK  status: ('A' for Active; 'I' for Inactive)
REMARK    1  A    between atoms: C_1  and  O_2
REMARK    2  A    between atoms: O_2  and  C_3
REMARK    3  A    between atoms: C_3  and  C_5
REMARK    4  A    between atoms: C_5  and  C_7
REMARK    5  A    between atoms: C_5  and  N_15
REMARK    6  A    between atoms: C_7  and  C_8
REMARK    7  A    between atoms: C_11  and  O_14
REMARK    8  A    between atoms: C_17  and  C_19
REMARK    9  A    between atoms: N_23  and  C_26
REMARK                            x       y       z     vdW  Elec       q    Type
REMARK                         _______ _______ _______ _____ _____    ______ ____
ROOT
ATOM      1  C   UNL     1       2.198  -2.021   2.416  0.00  0.00    +0.102 A 
ATOM      2  C   UNL     1       2.578  -3.352   2.521  0.00  0.00    +0.031 A 
ATOM      3  C   UNL     1       2.925  -3.865   3.789  0.00  0.00    +0.038 A 
ATOM      4  C   UNL     1       2.895  -3.054   4.911  0.00  0.00    +0.038 A 
ATOM      5  N   UNL     1       2.522  -1.760   4.811  0.00  0.00    -0.280 N 
ATOM      6  C   UNL     1       2.182  -1.208   3.634  0.00  0.00    +0.268 A 
ATOM      7  O   UNL     1       1.857  -0.035   3.582  0.00  0.00    -0.266 OA
ATOM      8  C   UNL     1       3.275  -3.580   6.271  0.00  0.00    +0.055 C 
ATOM      9  C   UNL     1       3.117  -5.096   6.343  0.00  0.00    +0.014 C 
ATOM     10  C   UNL     1       3.925  -5.743   5.210  0.00  0.00    +0.080 C 
ATOM     11  C   UNL     1       3.314  -5.281   3.904  0.00  0.00    +0.165 C 
ATOM     12  O   UNL     1       3.150  -6.052   2.982  0.00  0.00    -0.292 OA
ENDROOT
BRANCH   5  13
ATOM     13  C   UNL     1       2.494  -0.969   5.966  0.00  0.00    +0.050 A 
ATOM     14  C   UNL     1       1.294  -0.746   6.628  0.00  0.00    +0.028 A 
ATOM     15  C   UNL     1       1.270   0.030   7.769  0.00  0.00    +0.022 A 
ATOM     16  C   UNL     1       2.439   0.594   8.249  0.00  0.00    +0.041 A 
ATOM     17  C   UNL     1       3.636   0.377   7.589  0.00  0.00    +0.022 A 
ATOM     18  C   UNL     1       3.666  -0.402   6.449  0.00  0.00    +0.028 A 
ATOM     19 CL   UNL     1       2.405   1.574   9.681  0.00  0.00    -0.084 Cl
ENDBRANCH   5  13
BRANCH   1  22
ATOM     20  N   UNL     1       1.499  -0.136   1.028  0.00  0.00    -0.298 N 
ATOM     21  H   UNL     1       1.459   0.408   1.830  0.00  0.00    +0.150 HD
ATOM     22  C   UNL     1       1.828  -1.440   1.115  0.00  0.00    +0.250 C 
ATOM     23  O   UNL     1       1.818  -2.138   0.119  0.00  0.00    -0.270 OA
BRANCH  20  24
ATOM     24  C   UNL     1       1.203   0.459  -0.277  0.00  0.00    +0.186 C 
BRANCH  24  25
ATOM     25  C   UNL     1      -0.244   0.221  -0.622  0.00  0.00    +0.328 C 
ATOM     26  O   UNL     1      -0.956  -0.385   0.145  0.00  0.00    -0.249 OA
BRANCH  25  28
ATOM     27  C   UNL     1      -2.146   0.413  -2.045  0.00  0.00    +0.280 C 
ATOM     28  O   UNL     1      -0.743   0.680  -1.780  0.00  0.00    -0.467 OA
ENDBRANCH  25  28
ENDBRANCH  24  25
BRANCH  24  29
ATOM     29  C   UNL     1       1.474   1.964  -0.224  0.00  0.00    +0.069 C 
BRANCH  29  30
ATOM     30  C   UNL     1       2.945   2.203  -0.002  0.00  0.00    -0.045 A 
ATOM     31  C   UNL     1       3.440   2.308   1.285  0.00  0.00    +0.007 A 
ATOM     32  C   UNL     1       4.789   2.522   1.492  0.00  0.00    +0.045 A 
ATOM     33  C   UNL     1       5.645   2.641   0.407  0.00  0.00    +0.117 A 
ATOM     34  C   UNL     1       5.145   2.541  -0.883  0.00  0.00    +0.045 A 
ATOM     35  C   UNL     1       3.796   2.322  -1.084  0.00  0.00    +0.007 A 
BRANCH  33  36
ATOM     36  O   UNL     1       6.972   2.857   0.608  0.00  0.00    -0.507 OA
ATOM     37  H   UNL     1       7.216   3.791   0.652  0.00  0.00    +0.292 HD
ENDBRANCH  33  36
ENDBRANCH  29  30
ENDBRANCH  24  29
ENDBRANCH  20  24
ENDBRANCH   1  22
TORSDOF 8
