REMARK  Name = ZINC32624518
REMARK  4 active torsions:
REMARK  status: ('A' for Active; 'I' for Inactive)
REMARK    1  A    between atoms: C_4  and  C_7
REMARK    2  A    between atoms: C_7  and  C_9
REMARK    3  A    between atoms: C_7  and  N_25
REMARK    4  A    between atoms: C_9  and  N_10
REMARK                            x       y       z     vdW  Elec       q    Type
REMARK                         _______ _______ _______ _____ _____    ______ ____
ROOT
ATOM      1  N   UNL     1      -2.297  -0.047   0.739  0.00  0.00    -0.300 N 
ATOM      2  C   UNL     1      -2.174   1.303   0.643  0.00  0.00    +0.202 A 
ATOM      3  N   UNL     1      -2.990   2.132   1.210  0.00  0.00    -0.235 NA
ATOM      4  C   UNL     1      -4.057   1.699   1.963  0.00  0.00    +0.107 A 
ATOM      5  C   UNL     1      -5.014   2.492   2.629  0.00  0.00    +0.081 A 
ATOM      6  C   UNL     1      -5.995   1.826   3.327  0.00  0.00    +0.070 A 
ATOM      7  S   UNL     1      -5.647   0.113   3.093  0.00  0.00    -0.073 S 
ATOM      8  C   UNL     1      -4.203   0.303   2.076  0.00  0.00    +0.105 A 
ATOM      9  C   UNL     1      -3.317  -0.572   1.459  0.00  0.00    +0.268 A 
ATOM     10  O   UNL     1      -3.457  -1.780   1.560  0.00  0.00    -0.266 OA
ATOM     11  S   UNL     1      -7.279   2.604   4.233  0.00  0.00    -0.107 S 
ATOM     12  C   UNL     1      -6.520   4.217   4.617  0.00  0.00    +0.171 C 
ATOM     13  C   UNL     1      -5.723   4.680   3.431  0.00  0.00    +0.227 C 
ATOM     14  O   UNL     1      -5.726   5.871   3.203  0.00  0.00    -0.275 OA
ATOM     15  N   UNL     1      -5.012   3.915   2.606  0.00  0.00    -0.282 N 
ATOM     16  H   UNL     1      -4.394   4.452   1.872  0.00  0.00    +0.155 HD
ENDROOT
BRANCH   1  17
ATOM     17  C   UNL     1      -1.336  -0.927   0.069  0.00  0.00    +0.115 C 
BRANCH  17  18
ATOM     18  C   UNL     1      -1.755  -1.123  -1.389  0.00  0.00    -0.017 C 
BRANCH  18  19
ATOM     19  N   UNL     1      -0.723  -1.894  -2.096  0.00  0.00    +0.385 N 
ATOM     20  C   UNL     1       0.576  -1.211  -2.037  0.00  0.00    -0.078 C 
ATOM     21  C   UNL     1       1.653  -2.107  -2.653  0.00  0.00    -0.019 C 
ATOM     22  C   UNL     1       1.283  -2.416  -4.107  0.00  0.00    -0.004 C 
ATOM     23  C   UNL     1      -0.095  -3.083  -4.143  0.00  0.00    -0.019 C 
ATOM     24  C   UNL     1      -1.121  -2.158  -3.484  0.00  0.00    -0.078 C 
ATOM     25  H   UNL     1      -0.615  -2.863  -1.587  0.00  0.00    -0.081 HD
ENDBRANCH  18  19
BRANCH  18  29
ATOM     26  C   UNL     1      -5.462  -3.241  -1.536  0.00  0.00    +0.000 A 
ATOM     27  C   UNL     1      -5.444  -1.867  -1.688  0.00  0.00    +0.000 A 
ATOM     28  C   UNL     1      -4.244  -1.182  -1.641  0.00  0.00    +0.002 A 
ATOM     29  C   UNL     1      -3.062  -1.870  -1.441  0.00  0.00    -0.059 A 
ATOM     30  C   UNL     1      -3.080  -3.244  -1.293  0.00  0.00    +0.002 A 
ATOM     31  C   UNL     1      -4.280  -3.929  -1.335  0.00  0.00    +0.000 A 
ENDBRANCH  18  29
ENDBRANCH  17  18
ENDBRANCH   1  17
TORSDOF 4
