REMARK  Name = ZINC18222439
REMARK  4 active torsions:
REMARK  status: ('A' for Active; 'I' for Inactive)
REMARK    1  A    between atoms: C_1  and  C_2
REMARK    2  A    between atoms: C_6  and  C_8
REMARK    3  A    between atoms: C_13  and  C_22
REMARK    4  A    between atoms: C_18  and  C_20
REMARK                            x       y       z     vdW  Elec       q    Type
REMARK                         _______ _______ _______ _____ _____    ______ ____
ROOT
ATOM      1  C   UNL     1       0.054  -2.845   2.489  0.00  0.00    +0.032 C 
ATOM      2  C   UNL     1      -1.175  -3.753   2.570  0.00  0.00    +0.060 C 
ATOM      3  C   UNL     1      -1.136  -4.543   3.857  0.00  0.00    +0.020 C 
ATOM      4  C   UNL     1       0.040  -4.908   4.411  0.00  0.00    +0.041 C 
ATOM      5  C   UNL     1       0.111  -5.714   5.689  0.00  0.00    +0.176 C 
ATOM      6  N   UNL     1      -1.187  -5.714   6.351  0.00  0.00    -0.221 N 
ATOM      7  C   UNL     1      -2.334  -5.316   5.745  0.00  0.00    +0.219 A 
ATOM      8  N   UNL     1      -3.308  -5.444   6.603  0.00  0.00    -0.198 NA
ATOM      9  C   UNL     1      -2.828  -5.913   7.759  0.00  0.00    +0.150 A 
ATOM     10  N   UNL     1      -1.534  -6.091   7.647  0.00  0.00    -0.153 NA
ATOM     11  C   UNL     1      -3.644  -6.193   8.995  0.00  0.00    +0.090 C 
ATOM     12  N   UNL     1      -2.340  -4.865   4.435  0.00  0.00    -0.287 N 
ATOM     13  C   UNL     1       1.261  -4.544   3.816  0.00  0.00    +0.164 C 
ATOM     14  O   UNL     1       2.303  -4.901   4.330  0.00  0.00    -0.292 OA
ATOM     15  C   UNL     1       1.308  -3.722   2.558  0.00  0.00    +0.088 C 
ATOM     16  H   UNL     1      -3.171  -4.779   3.941  0.00  0.00    +0.155 HD
ENDROOT
BRANCH   5  17
ATOM     17  C   UNL     1       0.505  -7.132   5.365  0.00  0.00    -0.013 A 
ATOM     18  C   UNL     1      -0.286  -7.894   4.526  0.00  0.00    +0.044 A 
ATOM     19  C   UNL     1       0.074  -9.197   4.227  0.00  0.00    +0.126 A 
ATOM     20  C   UNL     1       1.228  -9.737   4.769  0.00  0.00    +0.076 A 
ATOM     21  C   UNL     1       2.019  -8.973   5.609  0.00  0.00    +0.126 A 
ATOM     22  C   UNL     1       1.660  -7.668   5.902  0.00  0.00    +0.044 A 
ATOM     23  F   UNL     1       3.146  -9.499   6.139  0.00  0.00    -0.205 F 
ATOM     24  F   UNL     1      -0.700  -9.942   3.408  0.00  0.00    -0.205 F 
ENDBRANCH   5  17
BRANCH   1  30
ATOM     25  C   UNL     1      -0.018   1.503   0.010  0.00  0.00    +0.044 C 
ATOM     26  C   UNL     1       0.002  -0.004   0.002  0.00  0.00    -0.050 A 
ATOM     27  C   UNL     1       0.006  -0.689  -1.199  0.00  0.00    +0.003 A 
ATOM     28  C   UNL     1       0.025  -2.071  -1.207  0.00  0.00    +0.001 A 
ATOM     29  C   UNL     1       0.040  -2.768  -0.013  0.00  0.00    +0.004 A 
ATOM     30  C   UNL     1       0.037  -2.084   1.188  0.00  0.00    -0.043 A 
ATOM     31  C   UNL     1       0.023  -0.702   1.195  0.00  0.00    +0.007 A 
ENDBRANCH   1  30
TORSDOF 2
