REMARK  Name = ZINC24874017
REMARK  9 active torsions:
REMARK  status: ('A' for Active; 'I' for Inactive)
REMARK    1  A    between atoms: C_4  and  C_7
REMARK    2  A    between atoms: C_7  and  C_8
REMARK    3  A    between atoms: C_8  and  C_9
REMARK    4  A    between atoms: C_9  and  N_10
REMARK    5  A    between atoms: C_13  and  N_16
REMARK    6  A    between atoms: N_16  and  C_17
REMARK    7  A    between atoms: C_17  and  C_18
REMARK    8  A    between atoms: N_25  and  C_26
REMARK    9  A    between atoms: C_31  and  C_32
REMARK                            x       y       z     vdW  Elec       q    Type
REMARK                         _______ _______ _______ _____ _____    ______ ____
ROOT
ATOM      1  N   UNL     1      -2.342   1.034   0.120  0.00  0.00    -0.275 N 
ATOM      2  C   UNL     1      -1.159   1.672   0.018  0.00  0.00    +0.307 C 
ATOM      3  O   UNL     1      -1.128   2.885  -0.064  0.00  0.00    -0.252 OA
ATOM      4  N   UNL     1      -0.011   0.966   0.007  0.00  0.00    -0.269 N 
ATOM      5  H   UNL     1      -0.042  -0.134  -0.009  0.00  0.00    +0.156 HD
ENDROOT
BRANCH   1   9
ATOM      6  N   UNL     1      -4.931   4.357   0.034  0.00  0.00    +0.380 N 
ATOM      7  C   UNL     1      -4.865   3.606   1.294  0.00  0.00    -0.077 C 
ATOM      8  C   UNL     1      -3.587   2.765   1.322  0.00  0.00    +0.004 C 
ATOM      9  C   UNL     1      -3.590   1.801   0.132  0.00  0.00    +0.075 C 
ATOM     10  C   UNL     1      -3.708   2.606  -1.166  0.00  0.00    +0.004 C 
ATOM     11  C   UNL     1      -4.982   3.452  -1.122  0.00  0.00    -0.077 C 
ATOM     12  H   UNL     1      -4.011   4.954  -0.049  0.00  0.00    -0.082 HD
BRANCH   6  13
ATOM     13  C   UNL     1      -6.073   5.280   0.030  0.00  0.00    -0.079 C 
BRANCH  13  14
ATOM     14  C   UNL     1      -6.258   5.857  -1.375  0.00  0.00    -0.014 C 
BRANCH  14  15
ATOM     15  C   UNL     1      -7.448   6.819  -1.378  0.00  0.00    +0.033 C 
BRANCH  15  19
ATOM     16  C   UNL     1      -7.966   8.429  -5.301  0.00  0.00    +0.000 A 
ATOM     17  C   UNL     1      -8.614   7.262  -4.942  0.00  0.00    +0.000 A 
ATOM     18  C   UNL     1      -8.447   6.741  -3.672  0.00  0.00    +0.003 A 
ATOM     19  C   UNL     1      -7.631   7.387  -2.762  0.00  0.00    -0.047 A 
ATOM     20  C   UNL     1      -6.987   8.557  -3.120  0.00  0.00    +0.003 A 
ATOM     21  C   UNL     1      -7.151   9.075  -4.391  0.00  0.00    +0.000 A 
ENDBRANCH  15  19
ENDBRANCH  14  15
ENDBRANCH  13  14
ENDBRANCH   6  13
ENDBRANCH   1   9
BRANCH   4  22
ATOM     22  C   UNL     1       1.218   1.631   0.017  0.00  0.00    +0.042 A 
ATOM     23  C   UNL     1       1.313   2.912   0.540  0.00  0.00    +0.024 A 
ATOM     24  C   UNL     1       2.530   3.565   0.554  0.00  0.00    +0.002 A 
ATOM     25  C   UNL     1       3.658   2.952   0.038  0.00  0.00    +0.001 A 
ATOM     26  C   UNL     1       3.578   1.679  -0.491  0.00  0.00    +0.010 A 
ATOM     27  C   UNL     1       2.357   1.008  -0.505  0.00  0.00    +0.003 A 
BRANCH  27  28
ATOM     28  C   UNL     1       2.266  -0.359  -1.072  0.00  0.00    -0.016 A 
ATOM     29  C   UNL     1       1.657  -1.379  -0.342  0.00  0.00    +0.008 A 
ATOM     30  C   UNL     1       1.569  -2.648  -0.877  0.00  0.00    +0.001 A 
ATOM     31  C   UNL     1       2.095  -2.913  -2.129  0.00  0.00    +0.000 A 
ATOM     32  C   UNL     1       2.706  -1.906  -2.855  0.00  0.00    +0.001 A 
ATOM     33  C   UNL     1       2.794  -0.631  -2.333  0.00  0.00    +0.008 A 
ENDBRANCH  27  28
ENDBRANCH   4  22
BRANCH   1  34
ATOM     34  C   UNL     1      -2.380  -0.427   0.219  0.00  0.00    +0.183 C 
BRANCH  34  35
ATOM     35  C   UNL     1      -2.321  -0.835   1.669  0.00  0.00    +0.122 A 
ATOM     36  C   UNL     1      -3.380  -1.010   2.479  0.00  0.00    +0.046 A 
ATOM     37  C   UNL     1      -2.870  -1.389   3.742  0.00  0.00    +0.041 A 
ATOM     38  C   UNL     1      -1.530  -1.415   3.630  0.00  0.00    +0.195 A 
ATOM     39  O   UNL     1      -1.203  -1.078   2.372  0.00  0.00    -0.466 OA
ENDBRANCH  34  35
ENDBRANCH   1  34
TORSDOF 9
