REMARK  Name = ZINC38705193
REMARK  13 active torsions:
REMARK  status: ('A' for Active; 'I' for Inactive)
REMARK    1  A    between atoms: C_1  and  C_2
REMARK    2  A    between atoms: C_2  and  C_3
REMARK    3  A    between atoms: C_3  and  C_4
REMARK    4  A    between atoms: C_4  and  O_5
REMARK    5  A    between atoms: O_5  and  C_6
REMARK    6  A    between atoms: C_9  and  C_12
REMARK    7  A    between atoms: C_15  and  C_31
REMARK    8  A    between atoms: N_22  and  C_23
REMARK    9  A    between atoms: C_23  and  C_24
REMARK   10  A    between atoms: C_27  and  C_30
REMARK   11  A    between atoms: C_32  and  C_39
REMARK   12  A    between atoms: C_34  and  C_38
REMARK   13  A    between atoms: C_36  and  O_37
REMARK                            x       y       z     vdW  Elec       q    Type
REMARK                         _______ _______ _______ _____ _____    ______ ____
ROOT
ATOM      1  C   UNL     1      -3.549  -7.777   0.089  0.00  0.00    +0.142 C 
ATOM      2  C   UNL     1      -3.679  -8.461   1.422  0.00  0.00    +0.035 A 
ATOM      3  C   UNL     1      -3.103  -8.738   2.666  0.00  0.00    +0.102 A 
ATOM      4  N   UNL     1      -3.954  -9.490   3.336  0.00  0.00    -0.173 NA
ATOM      5  N   UNL     1      -5.010  -9.715   2.638  0.00  0.00    -0.272 N 
ATOM      6  H   UNL     1      -5.769 -10.243   2.931  0.00  0.00    +0.189 HD
ATOM      7  C   UNL     1      -4.905  -9.098   1.424  0.00  0.00    +0.126 A 
ATOM      8  C   UNL     1      -5.564  -8.845   0.138  0.00  0.00    +0.266 C 
ATOM      9  O   UNL     1      -6.660  -9.268  -0.175  0.00  0.00    -0.268 OA
ATOM     10  N   UNL     1      -4.784  -8.078  -0.647  0.00  0.00    -0.281 N 
ENDROOT
BRANCH   3  11
ATOM     11  C   UNL     1      -1.777  -8.272   3.144  0.00  0.00    +0.047 A 
ATOM     12  C   UNL     1      -1.651  -7.700   4.407  0.00  0.00    -0.037 A 
ATOM     13  C   UNL     1      -0.416  -7.268   4.848  0.00  0.00    +0.007 A 
ATOM     14  C   UNL     1       0.698  -7.402   4.038  0.00  0.00    -0.047 A 
ATOM     15  C   UNL     1       0.583  -7.968   2.783  0.00  0.00    +0.049 A 
ATOM     16  C   UNL     1      -0.649  -8.412   2.331  0.00  0.00    +0.127 A 
ATOM     17  C   UNL     1       2.042  -6.928   4.527  0.00  0.00    +0.044 C 
ATOM     18  C   UNL     1      -2.862  -7.552   5.293  0.00  0.00    +0.044 C 
BRANCH  16  19
ATOM     19  O   UNL     1      -0.762  -8.974   1.100  0.00  0.00    -0.506 OA
ATOM     20  H   UNL     1      -0.890  -8.335   0.385  0.00  0.00    +0.292 HD
ENDBRANCH  16  19
ENDBRANCH   3  11
BRANCH   1  24
ATOM     21  C   UNL     1      -3.154  -3.556   0.634  0.00  0.00    +0.121 A 
ATOM     22  C   UNL     1      -2.066  -4.308   0.214  0.00  0.00    +0.046 A 
ATOM     23  C   UNL     1      -2.196  -5.672   0.039  0.00  0.00    +0.009 A 
ATOM     24  C   UNL     1      -3.410  -6.288   0.281  0.00  0.00    -0.022 A 
ATOM     25  C   UNL     1      -4.496  -5.542   0.699  0.00  0.00    +0.009 A 
ATOM     26  C   UNL     1      -4.370  -4.178   0.882  0.00  0.00    +0.046 A 
BRANCH  21  27
ATOM     27  O   UNL     1      -3.029  -2.214   0.807  0.00  0.00    -0.492 OA
BRANCH  27  28
ATOM     28  C   UNL     1      -1.748  -1.642   0.534  0.00  0.00    +0.229 C 
BRANCH  28  29
ATOM     29  C   UNL     1      -1.801  -0.133   0.783  0.00  0.00    +0.041 C 
BRANCH  29  31
ATOM     30  C   UNL     1      -0.482   1.988   0.740  0.00  0.00    +0.004 C 
ATOM     31  C   UNL     1      -0.430   0.480   0.490  0.00  0.00    -0.000 C 
ENDBRANCH  29  31
ENDBRANCH  28  29
ENDBRANCH  27  28
ENDBRANCH  21  27
ENDBRANCH   1  24
BRANCH  10  32
ATOM     32  C   UNL     1      -5.110  -7.621  -2.000  0.00  0.00    +0.144 C 
BRANCH  32  33
ATOM     33  C   UNL     1      -4.616  -8.631  -3.004  0.00  0.00    -0.030 A 
ATOM     34  C   UNL     1      -3.338  -8.524  -3.519  0.00  0.00    +0.005 A 
ATOM     35  C   UNL     1      -2.885  -9.451  -4.440  0.00  0.00    +0.003 A 
ATOM     36  C   UNL     1      -3.709 -10.484  -4.845  0.00  0.00    -0.050 A 
ATOM     37  C   UNL     1      -4.987 -10.591  -4.328  0.00  0.00    +0.003 A 
ATOM     38  C   UNL     1      -5.439  -9.667  -3.404  0.00  0.00    +0.005 A 
ATOM     39  C   UNL     1      -3.216 -11.493  -5.849  0.00  0.00    +0.044 C 
ENDBRANCH  32  33
ENDBRANCH  10  32
TORSDOF 9
