REMARK  Name = ZINC26593198
REMARK  8 active torsions:
REMARK  status: ('A' for Active; 'I' for Inactive)
REMARK    1  A    between atoms: C_1  and  C_2
REMARK    2  A    between atoms: C_2  and  C_4
REMARK    3  A    between atoms: C_2  and  O_18
REMARK    4  A    between atoms: N_6  and  C_7
REMARK    5  A    between atoms: C_8  and  C_15
REMARK    6  A    between atoms: O_18  and  C_19
REMARK    7  A    between atoms: C_19  and  C_21
REMARK    8  A    between atoms: C_30  and  O_31
REMARK                            x       y       z     vdW  Elec       q    Type
REMARK                         _______ _______ _______ _____ _____    ______ ____
ROOT
ATOM      1  C   UNL     1      -0.019   1.526   0.010  0.00  0.00    +0.062 C 
ATOM      2  C   UNL     1       0.002  -0.004   0.002  0.00  0.00    +0.259 C 
ENDROOT
BRANCH   2   3
ATOM      3  C   UNL     1      -1.412  -0.526   0.013  0.00  0.00    +0.258 C 
ATOM      4  O   UNL     1      -1.836  -1.147  -0.939  0.00  0.00    -0.271 OA
ATOM      5  N   UNL     1      -2.204  -0.302   1.079  0.00  0.00    -0.276 N 
ATOM      6  H   UNL     1      -1.865   0.195   1.840  0.00  0.00    +0.155 HD
BRANCH   5   7
ATOM      7  C   UNL     1      -3.505  -0.782   1.089  0.00  0.00    +0.084 A 
ATOM      8  C   UNL     1      -4.455  -0.644   2.085  0.00  0.00    +0.068 A 
ATOM      9  C   UNL     1      -5.765  -1.248   1.849  0.00  0.00    -0.023 A 
ATOM     10  C   UNL     1      -5.875  -1.875   0.664  0.00  0.00    -0.004 A 
ATOM     11  S   UNL     1      -4.291  -1.656  -0.107  0.00  0.00    -0.077 S 
ATOM     12  C   UNL     1      -7.239  -2.481   0.474  0.00  0.00    +0.043 C 
ATOM     13  C   UNL     1      -7.850  -2.519   1.893  0.00  0.00    +0.010 C 
ATOM     14  C   UNL     1      -7.094  -1.372   2.592  0.00  0.00    +0.037 C 
BRANCH   8  15
ATOM     15  C   UNL     1      -4.160   0.077   3.326  0.00  0.00    +0.244 C 
ATOM     16  O   UNL     1      -4.371   1.274   3.400  0.00  0.00    -0.270 OA
ATOM     17  N   UNL     1      -3.654  -0.584   4.386  0.00  0.00    -0.325 N 
ATOM     18  H   UNL     1      -3.486  -1.538   4.328  0.00  0.00    +0.145 HD
ATOM     19  H   UNL     1      -3.459  -0.107   5.208  0.00  0.00    +0.145 HD
ENDBRANCH   8  15
ENDBRANCH   5   7
ENDBRANCH   2   3
BRANCH   2  20
ATOM     20  O   UNL     1       0.671  -0.465  -1.174  0.00  0.00    -0.449 OA
BRANCH  20  21
ATOM     21  C   UNL     1       2.003  -0.651  -1.087  0.00  0.00    +0.343 C 
ATOM     22  O   UNL     1       2.581  -0.429  -0.041  0.00  0.00    -0.245 OA
BRANCH  21  23
ATOM     23  C   UNL     1       2.758  -1.125  -2.258  0.00  0.00    +0.101 A 
ATOM     24  C   UNL     1       2.086  -1.376  -3.469  0.00  0.00    +0.019 A 
ATOM     25  C   UNL     1       2.759  -1.812  -4.562  0.00  0.00    +0.009 A 
ATOM     26  C   UNL     1       4.151  -2.021  -4.501  0.00  0.00    -0.014 A 
ATOM     27  C   UNL     1       4.864  -2.472  -5.623  0.00  0.00    +0.008 A 
ATOM     28  C   UNL     1       6.210  -2.665  -5.536  0.00  0.00    +0.001 A 
ATOM     29  C   UNL     1       6.893  -2.423  -4.346  0.00  0.00    +0.001 A 
ATOM     30  C   UNL     1       6.234  -1.985  -3.238  0.00  0.00    +0.012 A 
ATOM     31  C   UNL     1       4.846  -1.774  -3.292  0.00  0.00    +0.024 A 
ATOM     32  C   UNL     1       4.135  -1.316  -2.164  0.00  0.00    +0.138 A 
BRANCH  32  33
ATOM     33  O   UNL     1       4.782  -1.069  -1.000  0.00  0.00    -0.505 OA
ATOM     34  H   UNL     1       4.837  -1.833  -0.410  0.00  0.00    +0.292 HD
ENDBRANCH  32  33
ENDBRANCH  21  23
ENDBRANCH  20  21
ENDBRANCH   2  20
TORSDOF 7
