REMARK  Name = ZINC04177877
REMARK  4 active torsions:
REMARK  status: ('A' for Active; 'I' for Inactive)
REMARK    1  A    between atoms: C_1  and  C_2
REMARK    2  A    between atoms: C_9  and  C_11
REMARK    3  A    between atoms: C_16  and  C_27
REMARK    4  A    between atoms: C_19  and  C_22
REMARK                            x       y       z     vdW  Elec       q    Type
REMARK                         _______ _______ _______ _____ _____    ______ ____
ROOT
ATOM      1  C   UNL     1       2.393  -0.144   2.961  0.00  0.00    +0.167 A 
ATOM      2  C   UNL     1       3.095   0.640   3.905  0.00  0.00    +0.112 A 
ATOM      3  C   UNL     1       3.792  -0.202   4.694  0.00  0.00    +0.137 A 
ATOM      4  N   UNL     1       3.552  -1.479   4.272  0.00  0.00    -0.237 N 
ATOM      5  N   UNL     1       2.670  -1.415   3.194  0.00  0.00    -0.163 NA
ATOM      6  C   UNL     1       4.147  -2.666   4.893  0.00  0.00    +0.215 C 
ATOM      7  C   UNL     1       5.381  -2.240   5.696  0.00  0.00    +0.066 C 
ATOM      8  C   UNL     1       5.027  -1.064   6.613  0.00  0.00    +0.140 C 
ATOM      9  N   UNL     1       4.635   0.085   5.773  0.00  0.00    -0.318 N 
ATOM     10 CL   UNL     1       3.063   2.371   4.027  0.00  0.00    -0.078 Cl
ATOM     11  H   UNL     1       4.944   0.986   5.958  0.00  0.00    +0.148 HD
ENDROOT
BRANCH   1  19
ATOM     12  C   UNL     1       0.033   1.521  -0.033  0.00  0.00    +0.028 C 
ATOM     13  C   UNL     1       0.012  -0.009  -0.005  0.00  0.00    +0.073 C 
ATOM     14  C   UNL     1      -1.432  -0.501   0.136  0.00  0.00    +0.022 C 
ATOM     15  C   UNL     1      -1.434  -2.022   0.302  0.00  0.00    +0.003 C 
ATOM     16  C   UNL     1      -0.670  -2.399   1.574  0.00  0.00    +0.019 C 
ATOM     17  C   UNL     1       0.783  -1.928   1.449  0.00  0.00    +0.108 C 
ATOM     18  N   UNL     1       0.793  -0.491   1.142  0.00  0.00    -0.293 N 
ATOM     19  C   UNL     1       1.502   0.368   1.901  0.00  0.00    +0.268 C 
ATOM     20  O   UNL     1       1.407   1.566   1.713  0.00  0.00    -0.268 OA
ENDBRANCH   1  19
BRANCH   8  21
ATOM     21  C   UNL     1       3.883  -1.452   7.513  0.00  0.00    +0.125 A 
ATOM     22  C   UNL     1       3.988  -1.838   8.797  0.00  0.00    +0.046 A 
ATOM     23  C   UNL     1       2.677  -2.105   9.254  0.00  0.00    +0.041 A 
ATOM     24  C   UNL     1       1.848  -1.865   8.222  0.00  0.00    +0.195 A 
ATOM     25  O   UNL     1       2.584  -1.464   7.172  0.00  0.00    -0.466 OA
ENDBRANCH   8  21
BRANCH   6  26
ATOM     26  C   UNL     1       4.559  -3.660   3.805  0.00  0.00    +0.412 C 
ATOM     27  F   UNL     1       5.494  -3.061   2.955  0.00  0.00    -0.168 F 
ATOM     28  F   UNL     1       5.127  -4.792   4.400  0.00  0.00    -0.168 F 
ATOM     29  F   UNL     1       3.432  -4.037   3.067  0.00  0.00    -0.168 F 
ENDBRANCH   6  26
TORSDOF 3
