REMARK  Name = ZINC01380298
REMARK  8 active torsions:
REMARK  status: ('A' for Active; 'I' for Inactive)
REMARK    1  A    between atoms: C_3  and  C_6
REMARK    2  A    between atoms: C_6  and  N_7
REMARK    3  A    between atoms: N_7  and  C_8
REMARK    4  A    between atoms: C_8  and  C_10
REMARK    5  A    between atoms: C_8  and  C_17
REMARK    6  A    between atoms: C_13  and  O_16
REMARK    7  A    between atoms: N_19  and  C_20
REMARK    8  A    between atoms: C_26  and  C_28
REMARK                            x       y       z     vdW  Elec       q    Type
REMARK                         _______ _______ _______ _____ _____    ______ ____
ROOT
ATOM      1  C   UNL     1       5.151   0.892   1.931  0.00  0.00    +0.193 C 
ENDROOT
BRANCH   1   2
ATOM      2  C   UNL     1       4.470  -0.452   1.906  0.00  0.00    -0.018 A 
ATOM      3  C   UNL     1       3.816  -0.873   0.763  0.00  0.00    +0.009 A 
ATOM      4  C   UNL     1       3.191  -2.105   0.737  0.00  0.00    +0.046 A 
ATOM      5  C   UNL     1       3.218  -2.919   1.861  0.00  0.00    +0.117 A 
ATOM      6  C   UNL     1       3.875  -2.494   3.006  0.00  0.00    +0.046 A 
ATOM      7  C   UNL     1       4.504  -1.264   3.025  0.00  0.00    +0.009 A 
BRANCH   5   8
ATOM      8  O   UNL     1       2.603  -4.130   1.838  0.00  0.00    -0.507 OA
ATOM      9  H   UNL     1       3.171  -4.854   1.543  0.00  0.00    +0.292 HD
ENDBRANCH   5   8
ENDBRANCH   1   2
BRANCH   1  10
ATOM     10  C   UNL     1       6.426   0.824   1.130  0.00  0.00    +0.238 C 
ATOM     11  O   UNL     1       6.636   1.635   0.254  0.00  0.00    -0.273 OA
ATOM     12  N   UNL     1       7.333  -0.140   1.388  0.00  0.00    -0.311 N 
ATOM     13  H   UNL     1       7.164  -0.789   2.089  0.00  0.00    +0.149 HD
BRANCH  12  14
ATOM     14  C   UNL     1       8.572  -0.206   0.610  0.00  0.00    +0.073 C 
ATOM     15  C   UNL     1       8.323  -0.990  -0.680  0.00  0.00    +0.022 C 
ATOM     16  C   UNL     1       9.617  -1.060  -1.493  0.00  0.00    +0.002 C 
ATOM     17  C   UNL     1      10.699  -1.762  -0.670  0.00  0.00    +0.000 C 
ATOM     18  C   UNL     1      10.948  -0.979   0.620  0.00  0.00    +0.002 C 
ATOM     19  C   UNL     1       9.654  -0.909   1.433  0.00  0.00    +0.022 C 
ENDBRANCH  12  14
ENDBRANCH   1  10
BRANCH   1  20
ATOM     20  N   UNL     1       4.263   1.901   1.349  0.00  0.00    -0.276 N 
ATOM     21  C   UNL     1       3.184   2.327   2.036  0.00  0.00    +0.268 C 
ATOM     22  O   UNL     1       2.896   1.807   3.097  0.00  0.00    -0.268 OA
BRANCH  21  23
ATOM     23  C   UNL     1       2.353   3.423   1.501  0.00  0.00    +0.154 A 
ATOM     24  C   UNL     1       1.306   3.977   2.236  0.00  0.00    +0.098 A 
ATOM     25  C   UNL     1       0.646   4.974   1.596  0.00  0.00    +0.117 A 
ATOM     26  S   UNL     1       1.446   5.084   0.127  0.00  0.00    +0.026 S 
ATOM     27  N   UNL     1       2.566   3.934   0.305  0.00  0.00    -0.203 NA
ATOM     28 CL   UNL     1      -0.702   5.910   2.161  0.00  0.00    -0.073 Cl
ATOM     29 CL   UNL     1       0.883   3.436   3.831  0.00  0.00    -0.079 Cl
ENDBRANCH  21  23
BRANCH  20  30
ATOM     30  C   UNL     1       4.546   2.447   0.019  0.00  0.00    +0.151 C 
BRANCH  30  33
ATOM     31  C   UNL     1       6.970   5.354   0.450  0.00  0.00    +0.008 A 
ATOM     32  C   UNL     1       6.556   4.040   0.348  0.00  0.00    +0.013 A 
ATOM     33  C   UNL     1       5.239   3.778   0.160  0.00  0.00    +0.007 A 
ATOM     34  S   UNL     1       4.538   5.420   0.122  0.00  0.00    -0.100 S 
ATOM     35  C   UNL     1       6.048   6.343   0.360  0.00  0.00    +0.045 A 
ENDBRANCH  30  33
ENDBRANCH  20  30
ENDBRANCH   1  20
TORSDOF 8
