REMARK  Name = ZINC39687379
REMARK  6 active torsions:
REMARK  status: ('A' for Active; 'I' for Inactive)
REMARK    1  A    between atoms: C_1  and  C_2
REMARK    2  A    between atoms: C_2  and  O_3
REMARK    3  A    between atoms: O_3  and  C_4
REMARK    4  A    between atoms: C_7  and  C_10
REMARK    5  A    between atoms: C_14  and  C_23
REMARK    6  A    between atoms: N_25  and  C_26
REMARK                            x       y       z     vdW  Elec       q    Type
REMARK                         _______ _______ _______ _____ _____    ______ ____
ROOT
ATOM      1  C   UNL     1       1.127  -6.031   1.756  0.00  0.00    +0.247 C 
ATOM      2  O   UNL     1       0.560  -6.779   0.983  0.00  0.00    -0.270 OA
ATOM      3  N   UNL     1       1.853  -6.537   2.773  0.00  0.00    -0.296 N 
ATOM      4  C   UNL     1       2.502  -5.797   3.881  0.00  0.00    +0.121 C 
ATOM      5  C   UNL     1       2.282  -6.686   5.125  0.00  0.00    +0.100 C 
ATOM      6  C   UNL     1       2.075  -8.103   4.564  0.00  0.00    -0.004 C 
ATOM      7  C   UNL     1       2.178  -7.959   3.038  0.00  0.00    +0.115 C 
ATOM      8  C   UNL     1       0.694  -8.627   4.946  0.00  0.00    -0.010 C 
ATOM      9  C   UNL     1       0.534 -10.058   4.425  0.00  0.00    -0.082 C 
ATOM     10  N   UNL     1       1.580 -10.910   5.003  0.00  0.00    +0.379 N 
ATOM     11  C   UNL     1       2.901 -10.455   4.555  0.00  0.00    -0.082 C 
ATOM     12  C   UNL     1       3.162  -9.041   5.081  0.00  0.00    -0.010 C 
ATOM     13  H   UNL     1       1.533 -10.863   6.010  0.00  0.00    -0.086 HD
ATOM     14  H   UNL     1       1.436 -11.864   4.707  0.00  0.00    -0.086 HD
ENDROOT
BRANCH   1  18
ATOM     15  C   UNL     1       0.817  -1.826   1.253  0.00  0.00    +0.121 A 
ATOM     16  C   UNL     1       1.909  -2.365   1.922  0.00  0.00    +0.046 A 
ATOM     17  C   UNL     1       2.014  -3.728   2.087  0.00  0.00    +0.016 A 
ATOM     18  C   UNL     1       1.019  -4.569   1.582  0.00  0.00    +0.037 A 
ATOM     19  C   UNL     1      -0.078  -4.023   0.910  0.00  0.00    +0.016 A 
ATOM     20  C   UNL     1      -0.177  -2.659   0.753  0.00  0.00    +0.046 A 
BRANCH  15  21
ATOM     21  O   UNL     1       0.718  -0.482   1.092  0.00  0.00    -0.492 OA
BRANCH  21  23
ATOM     22  C   UNL     1       1.490   1.793   1.354  0.00  0.00    +0.048 C 
ATOM     23  C   UNL     1       1.775   0.316   1.630  0.00  0.00    +0.225 C 
ENDBRANCH  21  23
ENDBRANCH  15  21
ENDBRANCH   1  18
BRANCH   5  24
ATOM     24  C   UNL     1       1.060  -6.236   5.882  0.00  0.00    +0.218 C 
ATOM     25  O   UNL     1       0.100  -5.802   5.281  0.00  0.00    -0.275 OA
ATOM     26  N   UNL     1       1.033  -6.314   7.228  0.00  0.00    -0.312 N 
ATOM     27  H   UNL     1       1.801  -6.661   7.708  0.00  0.00    +0.149 HD
BRANCH  26  28
ATOM     28  C   UNL     1      -0.155  -5.876   7.964  0.00  0.00    +0.076 C 
ATOM     29  C   UNL     1      -0.082  -4.366   8.198  0.00  0.00    +0.041 C 
ATOM     30  C   UNL     1      -1.342  -3.906   8.937  0.00  0.00    +0.108 C 
ATOM     31  N   UNL     1      -1.487  -4.700  10.165  0.00  0.00    -0.317 N 
ATOM     32  C   UNL     1      -1.478  -6.166  10.062  0.00  0.00    +0.108 C 
ATOM     33  C   UNL     1      -0.217  -6.601   9.310  0.00  0.00    +0.041 C 
ATOM     34  C   UNL     1      -1.629  -4.077  11.399  0.00  0.00    +0.099 A 
ATOM     35  C   UNL     1      -1.869  -4.845  12.535  0.00  0.00    +0.042 A 
ATOM     36  C   UNL     1      -2.008  -4.212  13.757  0.00  0.00    +0.005 A 
ATOM     37  C   UNL     1      -1.902  -2.828  13.802  0.00  0.00    +0.018 A 
ATOM     38  C   UNL     1      -1.662  -2.129  12.636  0.00  0.00    +0.084 A 
ATOM     39  N   UNL     1      -1.529  -2.760  11.485  0.00  0.00    -0.350 N 
ATOM     40  H   UNL     1      -1.357  -2.245  10.681  0.00  0.00    +0.166 HD
ENDBRANCH  26  28
ENDBRANCH   5  24
TORSDOF 5
