REMARK  Name = ZINC08940240
REMARK  6 active torsions:
REMARK  status: ('A' for Active; 'I' for Inactive)
REMARK    1  A    between atoms: C_1  and  C_2
REMARK    2  A    between atoms: C_5  and  C_8
REMARK    3  A    between atoms: C_11  and  C_14
REMARK    4  A    between atoms: C_19  and  C_21
REMARK    5  A    between atoms: C_21  and  N_22
REMARK    6  A    between atoms: C_30  and  C_32
REMARK                            x       y       z     vdW  Elec       q    Type
REMARK                         _______ _______ _______ _____ _____    ______ ____
ROOT
ATOM      1  C   UNL     1       3.580  -5.719   1.128  0.00  0.00    +0.069 C 
ATOM      2  N   UNL     1       3.119  -4.631   1.640  0.00  0.00    -0.181 NA
ATOM      3  N   UNL     1       2.715  -3.686   0.699  0.00  0.00    -0.181 N 
ATOM      4  C   UNL     1       2.938  -4.232  -0.650  0.00  0.00    +0.173 C 
ATOM      5  C   UNL     1       3.537  -5.627  -0.380  0.00  0.00    +0.090 C 
ATOM      6  C   UNL     1       2.200  -2.472   0.978  0.00  0.00    +0.253 C 
ATOM      7  O   UNL     1       1.880  -1.727   0.075  0.00  0.00    -0.272 OA
ENDROOT
BRANCH   1  12
ATOM      8  C   UNL     1       5.505 -10.237   4.122  0.00  0.00    +0.044 C 
ATOM      9  C   UNL     1       5.001  -9.053   3.338  0.00  0.00    -0.050 A 
ATOM     10  C   UNL     1       4.528  -7.936   4.004  0.00  0.00    +0.004 A 
ATOM     11  C   UNL     1       4.066  -6.849   3.293  0.00  0.00    +0.010 A 
ATOM     12  C   UNL     1       4.074  -6.878   1.896  0.00  0.00    -0.002 A 
ATOM     13  C   UNL     1       4.547  -8.011   1.230  0.00  0.00    +0.010 A 
ATOM     14  C   UNL     1       5.012  -9.088   1.955  0.00  0.00    +0.004 A 
ENDBRANCH   1  12
BRANCH   4  15
ATOM     15  C   UNL     1       3.915  -3.376  -1.414  0.00  0.00    +0.128 A 
ATOM     16  C   UNL     1       3.840  -3.074  -2.723  0.00  0.00    +0.046 A 
ATOM     17  C   UNL     1       4.953  -2.254  -3.018  0.00  0.00    +0.041 A 
ATOM     18  C   UNL     1       5.641  -2.103  -1.872  0.00  0.00    +0.195 A 
ATOM     19  O   UNL     1       5.005  -2.781  -0.903  0.00  0.00    -0.466 OA
ENDBRANCH   4  15
BRANCH   6  20
ATOM     20  C   UNL     1       2.020  -2.041   2.410  0.00  0.00    +0.215 C 
BRANCH  20  21
ATOM     21  N   UNL     1       1.446  -0.693   2.446  0.00  0.00    -0.215 N 
ATOM     22  C   UNL     1       0.123  -0.433   2.468  0.00  0.00    +0.247 C 
ATOM     23  O   UNL     1      -0.784  -1.238   2.462  0.00  0.00    -0.273 OA
ATOM     24  C   UNL     1       0.009   1.074   2.502  0.00  0.00    +0.115 C 
ATOM     25  C   UNL     1      -0.699   1.524   3.775  0.00  0.00    +0.035 C 
ATOM     26  C   UNL     1      -2.136   0.996   3.776  0.00  0.00    +0.003 C 
ATOM     27  C   UNL     1      -2.874   1.527   2.546  0.00  0.00    +0.000 C 
ATOM     28  C   UNL     1      -2.166   1.050   1.277  0.00  0.00    +0.006 C 
ATOM     29  C   UNL     1      -0.729   1.579   1.267  0.00  0.00    +0.018 C 
ATOM     30  C   UNL     1      -0.013   1.086   0.008  0.00  0.00    +0.010 C 
ATOM     31  N   UNL     1       1.402   1.538   2.496  0.00  0.00    -0.285 N 
ATOM     32  C   UNL     1       2.171   0.432   2.462  0.00  0.00    +0.310 C 
ATOM     33  O   UNL     1       3.386   0.454   2.448  0.00  0.00    -0.252 OA
ATOM     34  H   UNL     1       1.708   2.458   2.512  0.00  0.00    +0.151 HD
ENDBRANCH  20  21
ENDBRANCH   6  20
TORSDOF 4
