REMARK  Name = ZINC09124104
REMARK  12 active torsions:
REMARK  status: ('A' for Active; 'I' for Inactive)
REMARK    1  A    between atoms: C_1  and  C_2
REMARK    2  A    between atoms: C_4  and  O_39
REMARK    3  A    between atoms: C_5  and  C_9
REMARK    4  A    between atoms: N_17  and  C_36
REMARK    5  A    between atoms: C_18  and  C_20
REMARK    6  A    between atoms: C_23  and  O_28
REMARK    7  A    between atoms: C_24  and  O_26
REMARK    8  A    between atoms: O_26  and  C_27
REMARK    9  A    between atoms: O_28  and  C_29
REMARK   10  A    between atoms: C_29  and  C_30
REMARK   11  A    between atoms: C_36  and  C_37
REMARK   12  A    between atoms: C_37  and  O_38
REMARK                            x       y       z     vdW  Elec       q    Type
REMARK                         _______ _______ _______ _____ _____    ______ ____
ROOT
ATOM      1  C   UNL     1      -0.433  -3.990   0.191  0.00  0.00    +0.102 A 
ATOM      2  C   UNL     1      -0.129  -4.904   1.206  0.00  0.00    +0.035 A 
ATOM      3  C   UNL     1       0.146  -6.098   0.567  0.00  0.00    +0.126 A 
ATOM      4  N   UNL     1      -0.002  -5.856  -0.769  0.00  0.00    -0.272 N 
ATOM      5  H   UNL     1       0.127  -6.513  -1.472  0.00  0.00    +0.189 HD
ATOM      6  N   UNL     1      -0.343  -4.631  -0.958  0.00  0.00    -0.173 NA
ATOM      7  C   UNL     1       0.474  -7.105   1.582  0.00  0.00    +0.266 C 
ATOM      8  O   UNL     1       0.765  -8.262   1.344  0.00  0.00    -0.268 OA
ATOM      9  N   UNL     1       0.410  -6.567   2.813  0.00  0.00    -0.283 N 
ATOM     10  C   UNL     1       0.030  -5.155   2.680  0.00  0.00    +0.141 C 
ENDROOT
BRANCH   1  15
ATOM     11  C   UNL     1      -1.851   1.551   0.905  0.00  0.00    +0.045 C 
ATOM     12  C   UNL     1      -1.480   0.102   0.716  0.00  0.00    -0.029 A 
ATOM     13  C   UNL     1      -1.297  -0.400  -0.559  0.00  0.00    +0.050 A 
ATOM     14  C   UNL     1      -0.956  -1.731  -0.738  0.00  0.00    +0.126 A 
ATOM     15  C   UNL     1      -0.798  -2.563   0.374  0.00  0.00    +0.045 A 
ATOM     16  C   UNL     1      -0.984  -2.048   1.654  0.00  0.00    +0.034 A 
ATOM     17  C   UNL     1      -1.319  -0.717   1.820  0.00  0.00    +0.045 A 
ATOM     18 CL   UNL     1      -1.544  -0.074   3.416  0.00  0.00    -0.083 Cl
BRANCH  14  19
ATOM     19  O   UNL     1      -0.777  -2.226  -1.990  0.00  0.00    -0.506 OA
ATOM     20  H   UNL     1       0.131  -2.155  -2.315  0.00  0.00    +0.292 HD
ENDBRANCH  14  19
ENDBRANCH   1  15
BRANCH  10  21
ATOM     21  C   UNL     1       1.113  -4.271   3.244  0.00  0.00    -0.019 A 
ATOM     22  C   UNL     1       0.812  -3.363   4.242  0.00  0.00    +0.009 A 
ATOM     23  C   UNL     1       1.801  -2.550   4.762  0.00  0.00    +0.050 A 
ATOM     24  C   UNL     1       3.098  -2.644   4.283  0.00  0.00    +0.162 A 
ATOM     25  C   UNL     1       3.401  -3.558   3.278  0.00  0.00    +0.162 A 
ATOM     26  C   UNL     1       2.405  -4.373   2.765  0.00  0.00    +0.055 A 
BRANCH  25  27
ATOM     27  O   UNL     1       4.672  -3.654   2.805  0.00  0.00    -0.491 OA
ATOM     28  C   UNL     1       4.937  -4.695   1.862  0.00  0.00    +0.277 C 
ENDBRANCH  25  27
BRANCH  24  29
ATOM     29  O   UNL     1       4.073  -1.844   4.793  0.00  0.00    -0.484 OA
BRANCH  29  30
ATOM     30  C   UNL     1       3.689  -0.929   5.822  0.00  0.00    +0.264 C 
BRANCH  30  31
ATOM     31  C   UNL     1       4.891  -0.134   6.260  0.00  0.00    -0.010 A 
ATOM     32  C   UNL     1       5.692  -0.600   7.286  0.00  0.00    +0.007 A 
ATOM     33  C   UNL     1       6.795   0.130   7.689  0.00  0.00    +0.000 A 
ATOM     34  C   UNL     1       7.097   1.326   7.065  0.00  0.00    +0.000 A 
ATOM     35  C   UNL     1       6.297   1.792   6.038  0.00  0.00    +0.000 A 
ATOM     36  C   UNL     1       5.197   1.060   5.633  0.00  0.00    +0.007 A 
ENDBRANCH  30  31
ENDBRANCH  29  30
ENDBRANCH  24  29
ENDBRANCH  10  21
BRANCH   9  37
ATOM     37  C   UNL     1       0.673  -7.270   4.072  0.00  0.00    +0.137 C 
BRANCH  37  38
ATOM     38  C   UNL     1       2.180  -7.296   4.335  0.00  0.00    +0.175 C 
BRANCH  38  39
ATOM     39  O   UNL     1       2.640  -5.970   4.605  0.00  0.00    -0.393 OA
ATOM     40  H   UNL     1       3.588  -5.911   4.781  0.00  0.00    +0.209 HD
ENDBRANCH  38  39
ENDBRANCH  37  38
ENDBRANCH   9  37
TORSDOF 10
