REMARK  Name = ZINC09018976
REMARK  7 active torsions:
REMARK  status: ('A' for Active; 'I' for Inactive)
REMARK    1  A    between atoms: C_1  and  C_2
REMARK    2  A    between atoms: C_2  and  O_3
REMARK    3  A    between atoms: O_3  and  C_4
REMARK    4  A    between atoms: C_8  and  C_11
REMARK    5  A    between atoms: C_9  and  O_10
REMARK    6  A    between atoms: N_12  and  N_13
REMARK    7  A    between atoms: C_14  and  C_16
REMARK                            x       y       z     vdW  Elec       q    Type
REMARK                         _______ _______ _______ _____ _____    ______ ____
ROOT
ATOM      1  C   UNL     1       2.145  -4.324   3.807  0.00  0.00    +0.142 C 
ATOM      2  N   UNL     1       2.798  -3.538   4.608  0.00  0.00    -0.187 NA
ENDROOT
BRANCH   1   7
ATOM      3  C   UNL     1      -0.119  -3.881   0.834  0.00  0.00    +0.163 A 
ATOM      4  C   UNL     1      -0.785  -2.715   1.180  0.00  0.00    +0.064 A 
ATOM      5  C   UNL     1      -0.499  -2.076   2.375  0.00  0.00    +0.022 A 
ATOM      6  C   UNL     1       0.451  -2.593   3.232  0.00  0.00    +0.028 A 
ATOM      7  C   UNL     1       1.129  -3.768   2.895  0.00  0.00    +0.041 A 
ATOM      8  C   UNL     1       0.836  -4.417   1.690  0.00  0.00    +0.167 A 
ATOM      9 BR   UNL     1      -1.415  -0.486   2.834  0.00  0.00    -0.050 Br
BRANCH   8  10
ATOM     10  O   UNL     1       1.486  -5.562   1.355  0.00  0.00    -0.503 OA
ATOM     11  H   UNL     1       2.338  -5.419   0.922  0.00  0.00    +0.292 HD
ENDBRANCH   8  10
BRANCH   3  12
ATOM     12  O   UNL     1      -0.405  -4.503  -0.341  0.00  0.00    -0.489 OA
BRANCH  12  14
ATOM     13  C   UNL     1      -1.582  -4.734  -2.439  0.00  0.00    +0.048 C 
ATOM     14  C   UNL     1      -1.397  -3.897  -1.172  0.00  0.00    +0.226 C 
ENDBRANCH  12  14
ENDBRANCH   3  12
ENDBRANCH   1   7
BRANCH   2  15
ATOM     15  N   UNL     1       2.692  -2.148   4.466  0.00  0.00    -0.204 N 
ATOM     16  C   UNL     1       3.273  -1.333   5.367  0.00  0.00    +0.276 C 
ATOM     17  O   UNL     1       3.965  -1.798   6.249  0.00  0.00    -0.270 OA
ATOM     18  H   UNL     1       2.200  -1.773   3.719  0.00  0.00    +0.177 HD
BRANCH  16  19
ATOM     19  C   UNL     1       3.064   0.157   5.281  0.00  0.00    +0.297 C 
ATOM     20  C   UNL     1       1.600   0.493   5.594  0.00  0.00    +0.283 C 
ATOM     21  O   UNL     1       1.440   1.914   5.517  0.00  0.00    -0.484 OA
ATOM     22  C   UNL     1       2.383   2.671   6.142  0.00  0.00    +0.162 A 
ATOM     23  C   UNL     1       2.113   4.002   6.421  0.00  0.00    +0.049 A 
ATOM     24  C   UNL     1       3.062   4.784   7.051  0.00  0.00    +0.004 A 
ATOM     25  C   UNL     1       4.283   4.241   7.406  0.00  0.00    +0.004 A 
ATOM     26  C   UNL     1       4.559   2.915   7.132  0.00  0.00    +0.049 A 
ATOM     27  C   UNL     1       3.610   2.124   6.500  0.00  0.00    +0.163 A 
ATOM     28  O   UNL     1       3.893   0.818   6.244  0.00  0.00    -0.472 OA
ENDBRANCH  16  19
ENDBRANCH   2  15
TORSDOF 6
