REMARK  Name = ZINC36024826
REMARK  7 active torsions:
REMARK  status: ('A' for Active; 'I' for Inactive)
REMARK    1  A    between atoms: C_1  and  C_2
REMARK    2  A    between atoms: C_2  and  C_3
REMARK    3  A    between atoms: C_2  and  C_4
REMARK    4  A    between atoms: N_8  and  C_26
REMARK    5  A    between atoms: N_13  and  S_16
REMARK    6  A    between atoms: S_16  and  C_19
REMARK    7  A    between atoms: C_26  and  C_27
REMARK                            x       y       z     vdW  Elec       q    Type
REMARK                         _______ _______ _______ _____ _____    ______ ____
ROOT
ATOM      1  C   UNL     1       2.133   1.822   2.445  0.00  0.00    +0.022 C 
ATOM      2  C   UNL     1       3.499   1.190   2.289  0.00  0.00    +0.201 C 
ATOM      3  O   UNL     1       4.562   1.750   2.457  0.00  0.00    -0.277 OA
ATOM      4  N   UNL     1       3.336  -0.101   1.934  0.00  0.00    -0.309 N 
ATOM      5  C   UNL     1       1.906  -0.405   1.840  0.00  0.00    +0.006 C 
ATOM      6  N   UNL     1       1.204   0.895   1.754  0.00  0.00    +0.401 N 
ATOM      7  C   UNL     1       1.622  -1.229   0.585  0.00  0.00    +0.023 C 
ATOM      8  C   UNL     1       2.381  -2.558   0.668  0.00  0.00    +0.109 C 
ATOM      9  N   UNL     1       2.033  -3.224   1.930  0.00  0.00    -0.177 NA
ATOM     10  C   UNL     1       2.200  -2.485   3.189  0.00  0.00    +0.109 C 
ATOM     11  C   UNL     1       1.442  -1.157   3.086  0.00  0.00    +0.023 C 
ATOM     12  H   UNL     1       0.318   0.856   2.234  0.00  0.00    -0.082 HD
ATOM     13  H   UNL     1       1.079   1.169   0.791  0.00  0.00    -0.082 HD
ENDROOT
BRANCH   1  15
ATOM     14  C   UNL     1       3.097   4.127   2.484  0.00  0.00    +0.006 C 
ATOM     15  C   UNL     1       2.104   3.200   1.780  0.00  0.00    -0.023 C 
ATOM     16  C   UNL     1       2.491   3.063   0.306  0.00  0.00    +0.006 C 
ENDBRANCH   1  15
BRANCH   9  17
ATOM     17  S   UNL     1       1.461  -4.778   1.934  0.00  0.00    +0.061 S 
ATOM     18  O   UNL     1       0.622  -4.899   3.074  0.00  0.00    -0.153 OA
ATOM     19  O   UNL     1       1.000  -5.044   0.617  0.00  0.00    -0.153 OA
BRANCH  17  20
ATOM     20  C   UNL     1       2.841  -5.839   2.208  0.00  0.00    +0.106 A 
ATOM     21  C   UNL     1       3.624  -6.243   1.143  0.00  0.00    +0.031 A 
ATOM     22  C   UNL     1       4.707  -7.075   1.358  0.00  0.00    +0.040 A 
ATOM     23  C   UNL     1       5.006  -7.504   2.639  0.00  0.00    +0.124 A 
ATOM     24  C   UNL     1       4.221  -7.099   3.705  0.00  0.00    +0.040 A 
ATOM     25  C   UNL     1       3.142  -6.263   3.489  0.00  0.00    +0.031 A 
ATOM     26  F   UNL     1       6.064  -8.318   2.850  0.00  0.00    -0.205 F 
ENDBRANCH  17  20
ENDBRANCH   9  17
BRANCH   4  27
ATOM     27  C   UNL     1       4.421  -1.052   1.681  0.00  0.00    +0.141 C 
BRANCH  27  28
ATOM     28  C   UNL     1       5.005  -0.797   0.316  0.00  0.00    -0.026 A 
ATOM     29  C   UNL     1       5.404  -1.861  -0.473  0.00  0.00    +0.009 A 
ATOM     30  C   UNL     1       5.939  -1.632  -1.727  0.00  0.00    +0.050 A 
ATOM     31  C   UNL     1       6.077  -0.336  -2.196  0.00  0.00    +0.166 A 
ATOM     32  C   UNL     1       5.675   0.735  -1.402  0.00  0.00    +0.167 A 
ATOM     33  C   UNL     1       5.134   0.498  -0.149  0.00  0.00    +0.054 A 
ATOM     34  O   UNL     1       5.911   1.895  -2.081  0.00  0.00    -0.453 OA
ATOM     35  C   UNL     1       6.837   1.546  -3.128  0.00  0.00    +0.466 C 
ATOM     36  O   UNL     1       6.566   0.154  -3.373  0.00  0.00    -0.453 OA
ENDBRANCH  27  28
ENDBRANCH   4  27
TORSDOF 5
