REMARK  Name = ZINC20853811
REMARK  8 active torsions:
REMARK  status: ('A' for Active; 'I' for Inactive)
REMARK    1  A    between atoms: C_1  and  C_2
REMARK    2  A    between atoms: C_2  and  N_3
REMARK    3  A    between atoms: C_12  and  S_13
REMARK    4  A    between atoms: S_13  and  C_14
REMARK    5  A    between atoms: C_14  and  C_15
REMARK    6  A    between atoms: N_17  and  N_18
REMARK    7  A    between atoms: C_19  and  C_21
REMARK    8  A    between atoms: C_29  and  C_33
REMARK                            x       y       z     vdW  Elec       q    Type
REMARK                         _______ _______ _______ _____ _____    ______ ____
ROOT
ATOM      1  N   UNL     1      -0.749   3.044   1.275  0.00  0.00    -0.288 N 
ATOM      2  C   UNL     1       0.261   3.715   1.860  0.00  0.00    +0.263 A 
ATOM      3  O   UNL     1       1.184   3.112   2.380  0.00  0.00    -0.267 OA
ATOM      4  C   UNL     1       0.238   5.145   1.859  0.00  0.00    +0.076 A 
ATOM      5  C   UNL     1       1.223   6.069   2.426  0.00  0.00    -0.023 A 
ATOM      6  C   UNL     1       0.969   7.387   2.300  0.00  0.00    -0.004 A 
ATOM      7  S   UNL     1      -0.573   7.478   1.431  0.00  0.00    -0.073 S 
ATOM      8  C   UNL     1      -0.874   5.740   1.239  0.00  0.00    +0.117 A 
ATOM      9  N   UNL     1      -1.842   5.020   0.684  0.00  0.00    -0.216 NA
ATOM     10  C   UNL     1      -1.793   3.703   0.694  0.00  0.00    +0.173 A 
ATOM     11  C   UNL     1       1.813   8.524   2.790  0.00  0.00    +0.046 C 
ATOM     12  C   UNL     1       2.838   7.971   3.791  0.00  0.00    -0.009 C 
ATOM     13  C   UNL     1       3.495   6.728   3.185  0.00  0.00    +0.008 C 
ATOM     14  C   UNL     1       2.485   5.581   3.132  0.00  0.00    +0.037 C 
ATOM     15  C   UNL     1       3.903   9.033   4.073  0.00  0.00    +0.008 C 
ENDROOT
BRANCH   1  17
ATOM     16  C   UNL     1      -0.013   1.086   0.008  0.00  0.00    +0.027 C 
ATOM     17  C   UNL     1      -0.729   1.579   1.267  0.00  0.00    +0.124 C 
ENDBRANCH   1  17
BRANCH  10  18
ATOM     18  S   UNL     1      -3.095   2.780  -0.054  0.00  0.00    -0.078 S 
BRANCH  18  19
ATOM     19  C   UNL     1      -4.149   4.133  -0.631  0.00  0.00    +0.174 C 
BRANCH  19  20
ATOM     20  C   UNL     1      -5.361   3.566  -1.324  0.00  0.00    +0.239 C 
ATOM     21  O   UNL     1      -5.499   2.364  -1.418  0.00  0.00    -0.273 OA
ATOM     22  N   UNL     1      -6.292   4.393  -1.838  0.00  0.00    -0.233 N 
ATOM     23  H   UNL     1      -6.167   5.482  -1.753  0.00  0.00    +0.173 HD
BRANCH  22  24
ATOM     24  N   UNL     1      -7.419   3.865  -2.482  0.00  0.00    -0.230 N 
ATOM     25  C   UNL     1      -8.350   4.693  -2.997  0.00  0.00    +0.260 C 
ATOM     26  O   UNL     1      -8.212   5.897  -2.903  0.00  0.00    -0.269 OA
ATOM     27  H   UNL     1      -7.544   2.776  -2.567  0.00  0.00    +0.173 HD
BRANCH  25  28
ATOM     28  C   UNL     1      -9.539   4.136  -3.676  0.00  0.00    +0.038 A 
ATOM     29  C   UNL     1      -9.697   2.754  -3.791  0.00  0.00    +0.014 A 
ATOM     30  C   UNL     1     -10.812   2.240  -4.420  0.00  0.00    +0.021 A 
ATOM     31  C   UNL     1     -11.767   3.093  -4.949  0.00  0.00    +0.041 A 
ATOM     32  C   UNL     1     -11.612   4.466  -4.843  0.00  0.00    +0.021 A 
ATOM     33  C   UNL     1     -10.505   4.991  -4.210  0.00  0.00    +0.014 A 
ATOM     34 CL   UNL     1     -13.163   2.439  -5.746  0.00  0.00    -0.084 Cl
ENDBRANCH  25  28
ENDBRANCH  22  24
ENDBRANCH  19  20
ENDBRANCH  18  19
ENDBRANCH  10  18
TORSDOF 6
