REMARK  Name = ZINC13465491
REMARK  8 active torsions:
REMARK  status: ('A' for Active; 'I' for Inactive)
REMARK    1  A    between atoms: C_1  and  C_2
REMARK    2  A    between atoms: C_3  and  C_13
REMARK    3  A    between atoms: C_4  and  C_7
REMARK    4  A    between atoms: N_15  and  C_16
REMARK    5  A    between atoms: C_22  and  N_24
REMARK    6  A    between atoms: C_25  and  C_27
REMARK    7  A    between atoms: C_28  and  C_38
REMARK    8  A    between atoms: C_31  and  C_32
REMARK                            x       y       z     vdW  Elec       q    Type
REMARK                         _______ _______ _______ _____ _____    ______ ____
ROOT
ATOM      1  C   UNL     1      -4.545   0.216   1.194  0.00  0.00    +0.093 C 
ATOM      2  C   UNL     1      -4.620   1.739   1.078  0.00  0.00    +0.024 C 
ATOM      3  C   UNL     1      -3.887   2.378   2.259  0.00  0.00    +0.002 C 
ATOM      4  C   UNL     1      -4.544   1.933   3.567  0.00  0.00    +0.002 C 
ATOM      5  C   UNL     1      -4.469   0.410   3.684  0.00  0.00    +0.024 C 
ATOM      6  C   UNL     1      -5.202  -0.229   2.502  0.00  0.00    +0.093 C 
ENDROOT
BRANCH   1   9
ATOM      7  C   UNL     1      -2.503  -0.394   0.013  0.00  0.00    +0.250 C 
ATOM      8  O   UNL     1      -3.091  -0.212  -1.037  0.00  0.00    -0.270 OA
ATOM      9  N   UNL     1      -3.142  -0.206   1.184  0.00  0.00    -0.307 N 
ATOM     10  H   UNL     1      -2.673  -0.351   2.021  0.00  0.00    +0.149 HD
BRANCH   7  13
ATOM     11  C   UNL     1      -0.018   1.503   0.010  0.00  0.00    +0.090 C 
ATOM     12  C   UNL     1       0.002  -0.004   0.002  0.00  0.00    +0.147 A 
ATOM     13  C   UNL     1      -1.092  -0.818   0.003  0.00  0.00    +0.106 A 
ATOM     14  C   UNL     1      -0.593  -2.201  -0.008  0.00  0.00    +0.126 A 
ATOM     15  N   UNL     1       0.715  -2.133  -0.014  0.00  0.00    -0.077 NA
ATOM     16  O   UNL     1       1.095  -0.772  -0.013  0.00  0.00    -0.359 OA
BRANCH  14  17
ATOM     17  C   UNL     1      -1.413  -3.437  -0.011  0.00  0.00    +0.004 A 
ATOM     18  C   UNL     1      -2.621  -3.476   0.682  0.00  0.00    +0.010 A 
ATOM     19  C   UNL     1      -3.381  -4.628   0.676  0.00  0.00    +0.001 A 
ATOM     20  C   UNL     1      -2.944  -5.744  -0.016  0.00  0.00    +0.000 A 
ATOM     21  C   UNL     1      -1.745  -5.711  -0.705  0.00  0.00    +0.001 A 
ATOM     22  C   UNL     1      -0.981  -4.562  -0.711  0.00  0.00    +0.010 A 
ENDBRANCH  14  17
ENDBRANCH   7  13
ENDBRANCH   1   9
BRANCH   6  23
ATOM     23  N   UNL     1      -5.130  -1.688   2.614  0.00  0.00    -0.307 N 
ATOM     24  C   UNL     1      -6.031  -2.351   3.365  0.00  0.00    +0.250 C 
ATOM     25  O   UNL     1      -6.904  -1.739   3.950  0.00  0.00    -0.270 OA
ATOM     26  H   UNL     1      -4.434  -2.176   2.147  0.00  0.00    +0.149 HD
BRANCH  24  27
ATOM     27  C   UNL     1      -5.959  -3.818   3.477  0.00  0.00    +0.106 A 
ATOM     28  C   UNL     1      -5.270  -4.529   4.415  0.00  0.00    +0.147 A 
ATOM     29  O   UNL     1      -5.457  -5.830   4.175  0.00  0.00    -0.359 OA
ATOM     30  N   UNL     1      -6.294  -5.986   3.047  0.00  0.00    -0.077 NA
ATOM     31  C   UNL     1      -6.621  -4.798   2.603  0.00  0.00    +0.126 A 
ATOM     32  C   UNL     1      -4.439  -3.948   5.529  0.00  0.00    +0.090 C 
BRANCH  31  33
ATOM     33  C   UNL     1      -7.490  -4.499   1.439  0.00  0.00    +0.004 A 
ATOM     34  C   UNL     1      -8.325  -3.383   1.459  0.00  0.00    +0.010 A 
ATOM     35  C   UNL     1      -9.132  -3.109   0.373  0.00  0.00    +0.001 A 
ATOM     36  C   UNL     1      -9.114  -3.940  -0.733  0.00  0.00    +0.000 A 
ATOM     37  C   UNL     1      -8.287  -5.050  -0.757  0.00  0.00    +0.001 A 
ATOM     38  C   UNL     1      -7.472  -5.329   0.320  0.00  0.00    +0.010 A 
ENDBRANCH  31  33
ENDBRANCH  24  27
ENDBRANCH   6  23
TORSDOF 6
