REMARK  Name = ZINC38479246
REMARK  17 active torsions:
REMARK  status: ('A' for Active; 'I' for Inactive)
REMARK    1  A    between atoms: C_1  and  C_2
REMARK    2  A    between atoms: C_2  and  O_3
REMARK    3  A    between atoms: O_3  and  C_4
REMARK    4  A    between atoms: C_7  and  C_10
REMARK    5  A    between atoms: N_15  and  C_17
REMARK    6  A    between atoms: C_17  and  C_19
REMARK    7  A    between atoms: C_17  and  C_20
REMARK    8  A    between atoms: N_22  and  C_23
REMARK    9  A    between atoms: C_24  and  C_34
REMARK   10  A    between atoms: C_25  and  C_33
REMARK   11  A    between atoms: C_26  and  C_28
REMARK   12  A    between atoms: C_28  and  O_30
REMARK   13  A    between atoms: O_30  and  C_31
REMARK   14  A    between atoms: C_31  and  C_32
REMARK   15  A    between atoms: C_34  and  O_36
REMARK   16  A    between atoms: O_36  and  C_37
REMARK   17  A    between atoms: C_37  and  C_38
REMARK                            x       y       z     vdW  Elec       q    Type
REMARK                         _______ _______ _______ _____ _____    ______ ____
ROOT
ATOM      1  C   UNL     1       3.999  -7.750   4.189  0.00  0.00    +0.242 C 
ATOM      2  O   UNL     1       4.383  -7.045   3.280  0.00  0.00    -0.273 OA
ATOM      3  N   UNL     1       4.835  -8.062   5.199  0.00  0.00    -0.278 N 
ATOM      4  H   UNL     1       4.528  -8.627   5.925  0.00  0.00    +0.155 HD
ENDROOT
BRANCH   3   5
ATOM      5  C   UNL     1       6.129  -7.579   5.199  0.00  0.00    +0.087 A 
ATOM      6  C   UNL     1       7.130  -7.799   6.147  0.00  0.00    +0.091 A 
ATOM      7  C   UNL     1       8.364  -7.202   5.930  0.00  0.00    -0.014 A 
ATOM      8  C   UNL     1       8.482  -6.447   4.793  0.00  0.00    +0.102 A 
ATOM      9  S   UNL     1       6.867  -6.596   4.054  0.00  0.00    -0.066 S 
ATOM     10  C   UNL     1       9.511  -7.375   6.891  0.00  0.00    +0.046 C 
BRANCH   8  11
ATOM     11  C   UNL     1       9.644  -5.707   4.305  0.00  0.00    +0.346 C 
ATOM     12  O   UNL     1      10.682  -5.716   4.939  0.00  0.00    -0.244 OA
BRANCH  11  13
ATOM     13  O   UNL     1       9.566  -5.013   3.150  0.00  0.00    -0.461 OA
BRANCH  13  14
ATOM     14  C   UNL     1      10.740  -4.313   2.733  0.00  0.00    +0.229 C 
ATOM     15  C   UNL     1      10.461  -3.591   1.413  0.00  0.00    +0.048 C 
ENDBRANCH  13  14
ENDBRANCH  11  13
ENDBRANCH   8  11
BRANCH   6  16
ATOM     16  C   UNL     1       6.886  -8.631   7.331  0.00  0.00    +0.342 C 
ATOM     17  O   UNL     1       7.103  -9.827   7.289  0.00  0.00    -0.245 OA
BRANCH  16  18
ATOM     18  O   UNL     1       6.422  -8.069   8.465  0.00  0.00    -0.461 OA
BRANCH  18  19
ATOM     19  C   UNL     1       6.207  -8.939   9.579  0.00  0.00    +0.229 C 
ATOM     20  C   UNL     1       5.683  -8.127  10.766  0.00  0.00    +0.048 C 
ENDBRANCH  18  19
ENDBRANCH  16  18
ENDBRANCH   6  16
ENDBRANCH   3   5
BRANCH   1  21
ATOM     21  C   UNL     1       2.588  -8.277   4.189  0.00  0.00    +0.194 C 
ATOM     22  C   UNL     1       1.858  -7.782   5.439  0.00  0.00    +0.043 C 
BRANCH  21  28
ATOM     23  C   UNL     1       1.143  -6.039   1.762  0.00  0.00    +0.092 A 
ATOM     24  C   UNL     1       0.594  -6.900   0.784  0.00  0.00    +0.035 A 
ATOM     25  C   UNL     1       0.722  -8.246   0.963  0.00  0.00    +0.074 A 
ATOM     26  C   UNL     1       1.398  -8.697   2.118  0.00  0.00    +0.268 A 
ATOM     27  O   UNL     1       1.538  -9.893   2.321  0.00  0.00    -0.266 OA
ATOM     28  N   UNL     1       1.888  -7.799   2.994  0.00  0.00    -0.217 N 
ATOM     29  N   UNL     1       1.762  -6.535   2.807  0.00  0.00    -0.168 NA
BRANCH  23  33
ATOM     30  C   UNL     1       0.802  -1.824   1.306  0.00  0.00    +0.121 A 
ATOM     31  C   UNL     1       0.258  -2.671   0.349  0.00  0.00    +0.046 A 
ATOM     32  C   UNL     1       0.367  -4.037   0.494  0.00  0.00    +0.013 A 
ATOM     33  C   UNL     1       1.024  -4.569   1.603  0.00  0.00    +0.002 A 
ATOM     34  C   UNL     1       1.569  -3.716   2.562  0.00  0.00    +0.013 A 
ATOM     35  C   UNL     1       1.462  -2.350   2.408  0.00  0.00    +0.046 A 
BRANCH  30  36
ATOM     36  O   UNL     1       0.693  -0.477   1.160  0.00  0.00    -0.492 OA
BRANCH  36  38
ATOM     37  C   UNL     1      -0.019   1.526   0.010  0.00  0.00    +0.048 C 
ATOM     38  C   UNL     1       0.002  -0.004   0.002  0.00  0.00    +0.225 C 
ENDBRANCH  36  38
ENDBRANCH  30  36
ENDBRANCH  23  33
ENDBRANCH  21  28
ENDBRANCH   1  21
TORSDOF 12
