REMARK  Name = ZINC58735664
REMARK  6 active torsions:
REMARK  status: ('A' for Active; 'I' for Inactive)
REMARK    1  A    between atoms: C_3  and  N_27
REMARK    2  A    between atoms: C_6  and  C_7
REMARK    3  A    between atoms: C_7  and  O_8
REMARK    4  A    between atoms: O_8  and  C_9
REMARK    5  A    between atoms: C_9  and  C_11
REMARK    6  A    between atoms: C_17  and  C_19
REMARK                            x       y       z     vdW  Elec       q    Type
REMARK                         _______ _______ _______ _____ _____    ______ ____
ROOT
ATOM      1  C   UNL     1      -3.333  -2.105  -3.145  0.00  0.00    +0.185 C 
ATOM      2  C   UNL     1      -3.562  -0.964  -4.158  0.00  0.00    +0.035 C 
ATOM      3  C   UNL     1      -4.769  -1.473  -4.989  0.00  0.00    +0.021 C 
ATOM      4  C   UNL     1      -5.597  -2.216  -3.911  0.00  0.00    +0.109 C 
ATOM      5  N   UNL     1      -4.593  -2.856  -3.036  0.00  0.00    -0.284 N 
ATOM      6  C   UNL     1      -4.795  -3.943  -2.267  0.00  0.00    +0.249 C 
ATOM      7  O   UNL     1      -3.866  -4.440  -1.660  0.00  0.00    -0.270 OA
ENDROOT
BRANCH   6   8
ATOM      8  C   UNL     1      -6.146  -4.533  -2.160  0.00  0.00    +0.057 A 
ATOM      9  C   UNL     1      -7.270  -3.706  -2.123  0.00  0.00    +0.034 A 
ATOM     10  C   UNL     1      -8.529  -4.263  -2.024  0.00  0.00    +0.042 A 
ATOM     11  C   UNL     1      -8.679  -5.639  -1.961  0.00  0.00    +0.021 A 
ATOM     12  C   UNL     1      -7.570  -6.463  -1.998  0.00  0.00    +0.022 A 
ATOM     13  C   UNL     1      -6.304  -5.920  -2.103  0.00  0.00    +0.053 A 
ATOM     14 CL   UNL     1      -4.913  -6.957  -2.157  0.00  0.00    -0.083 Cl
ATOM     15 CL   UNL     1      -9.929  -3.237  -1.977  0.00  0.00    -0.084 Cl
ENDBRANCH   6   8
BRANCH   1  16
ATOM     16  C   UNL     1      -2.961  -1.531  -1.802  0.00  0.00    +0.328 C 
ATOM     17  O   UNL     1      -3.668  -1.730  -0.843  0.00  0.00    -0.249 OA
BRANCH  16  18
ATOM     18  O   UNL     1      -1.843  -0.800  -1.671  0.00  0.00    -0.459 OA
BRANCH  18  19
ATOM     19  C   UNL     1      -1.552  -0.287  -0.369  0.00  0.00    +0.267 C 
BRANCH  19  25
ATOM     20  C   UNL     1      -0.301   1.857  -0.690  0.00  0.00    +0.009 A 
ATOM     21  C   UNL     1       0.876   2.582  -0.732  0.00  0.00    +0.033 A 
ATOM     22  C   UNL     1       2.084   1.952  -0.502  0.00  0.00    +0.126 A 
ATOM     23  C   UNL     1       2.116   0.597  -0.228  0.00  0.00    +0.033 A 
ATOM     24  C   UNL     1       0.940  -0.127  -0.184  0.00  0.00    +0.009 A 
ATOM     25  C   UNL     1      -0.269   0.503  -0.416  0.00  0.00    -0.010 A 
BRANCH  22  26
ATOM     26  N   UNL     1       3.344   2.727  -0.549  0.00  0.00    +0.056 N 
ATOM     27  O   UNL     1       3.316   3.912  -0.789  0.00  0.00    -0.126 OA
ATOM     28  O   UNL     1       4.401   2.176  -0.347  0.00  0.00    -0.126 OA
ENDBRANCH  22  26
ENDBRANCH  19  25
ENDBRANCH  18  19
ENDBRANCH  16  18
ENDBRANCH   1  16
TORSDOF 6
