REMARK  Name = ZINC38650764
REMARK  11 active torsions:
REMARK  status: ('A' for Active; 'I' for Inactive)
REMARK    1  A    between atoms: C_1  and  C_2
REMARK    2  A    between atoms: C_2  and  C_3
REMARK    3  A    between atoms: C_3  and  C_4
REMARK    4  A    between atoms: C_4  and  O_5
REMARK    5  A    between atoms: O_5  and  C_6
REMARK    6  A    between atoms: C_9  and  C_12
REMARK    7  A    between atoms: C_17  and  O_26
REMARK    8  A    between atoms: C_21  and  N_25
REMARK    9  A    between atoms: C_22  and  C_23
REMARK   10  A    between atoms: O_26  and  C_27
REMARK   11  A    between atoms: C_27  and  C_29
REMARK                            x       y       z     vdW  Elec       q    Type
REMARK                         _______ _______ _______ _____ _____    ______ ____
ROOT
ATOM      1  C   UNL     1      -3.359  -8.172   0.018  0.00  0.00    +0.098 C 
ATOM      2  C   UNL     1      -4.126  -8.584   1.247  0.00  0.00    +0.008 A 
ATOM      3  C   UNL     1      -3.459  -8.721   2.451  0.00  0.00    +0.012 A 
ATOM      4  C   UNL     1      -4.145  -9.098   3.588  0.00  0.00    +0.047 A 
ATOM      5  C   UNL     1      -5.511  -9.341   3.526  0.00  0.00    +0.135 A 
ATOM      6  C   UNL     1      -6.182  -9.205   2.321  0.00  0.00    +0.093 A 
ATOM      7  C   UNL     1      -5.489  -8.825   1.179  0.00  0.00    +0.138 A 
ATOM      8  O   UNL     1      -6.161  -8.696   0.008  0.00  0.00    -0.441 OA
ATOM      9  C   UNL     1      -5.489  -8.716  -1.155  0.00  0.00    +0.199 C 
ATOM     10  C   UNL     1      -4.161  -8.475  -1.216  0.00  0.00    +0.098 C 
ENDROOT
BRANCH   1  14
ATOM     11  C   UNL     1      -2.555  -3.979   0.190  0.00  0.00    +0.121 A 
ATOM     12  C   UNL     1      -1.507  -4.886   0.135  0.00  0.00    +0.046 A 
ATOM     13  C   UNL     1      -1.769  -6.241   0.080  0.00  0.00    +0.008 A 
ATOM     14  C   UNL     1      -3.076  -6.694   0.079  0.00  0.00    -0.034 A 
ATOM     15  C   UNL     1      -4.122  -5.792   0.134  0.00  0.00    +0.008 A 
ATOM     16  C   UNL     1      -3.865  -4.436   0.195  0.00  0.00    +0.046 A 
BRANCH  11  17
ATOM     17  O   UNL     1      -2.300  -2.645   0.245  0.00  0.00    -0.492 OA
BRANCH  17  18
ATOM     18  C   UNL     1      -0.927  -2.247   0.236  0.00  0.00    +0.229 C 
BRANCH  18  19
ATOM     19  C   UNL     1      -0.839  -0.721   0.303  0.00  0.00    +0.041 C 
BRANCH  19  21
ATOM     20  C   UNL     1       0.719   1.232   0.360  0.00  0.00    +0.004 C 
ATOM     21  C   UNL     1       0.631  -0.294   0.294  0.00  0.00    -0.000 C 
ENDBRANCH  19  21
ENDBRANCH  18  19
ENDBRANCH  17  18
ENDBRANCH  11  17
ENDBRANCH   1  14
BRANCH   9  22
ATOM     22  N   UNL     1      -6.172  -8.988  -2.314  0.00  0.00    -0.328 N 
ATOM     23  H   UNL     1      -7.126  -9.163  -2.286  0.00  0.00    +0.145 HD
ATOM     24  H   UNL     1      -5.701  -9.006  -3.162  0.00  0.00    +0.145 HD
ENDBRANCH   9  22
BRANCH  10  25
ATOM     25  C   UNL     1      -3.504  -8.510  -2.488  0.00  0.00    +0.101 C 
ATOM     26  N   UNL     1      -2.983  -8.537  -3.498  0.00  0.00    -0.191 NA
ENDBRANCH  10  25
BRANCH   5  27
ATOM     27  O   UNL     1      -6.188  -9.713   4.644  0.00  0.00    -0.422 OA
BRANCH  27  28
ATOM     28  C   UNL     1      -6.347  -8.799   5.620  0.00  0.00    +0.344 C 
ATOM     29  O   UNL     1      -5.985  -7.653   5.444  0.00  0.00    -0.245 OA
BRANCH  28  30
ATOM     30  C   UNL     1      -6.963  -9.190   6.904  0.00  0.00    +0.059 A 
ATOM     31  C   UNL     1      -7.375 -10.508   7.112  0.00  0.00    +0.016 A 
ATOM     32  C   UNL     1      -7.950 -10.866   8.313  0.00  0.00    +0.016 A 
ATOM     33  C   UNL     1      -8.117  -9.922   9.313  0.00  0.00    +0.018 A 
ATOM     34  C   UNL     1      -7.711  -8.614   9.113  0.00  0.00    +0.016 A 
ATOM     35  C   UNL     1      -7.130  -8.244   7.918  0.00  0.00    +0.016 A 
ATOM     36 BR   UNL     1      -8.906 -10.422  10.957  0.00  0.00    -0.050 Br
ENDBRANCH  28  30
ENDBRANCH  27  28
ENDBRANCH   5  27
TORSDOF 10
