REMARK  Name = ZINC61520755
REMARK  3 active torsions:
REMARK  status: ('A' for Active; 'I' for Inactive)
REMARK    1  A    between atoms: C_1  and  C_2
REMARK    2  A    between atoms: C_5  and  O_8
REMARK    3  A    between atoms: O_8  and  C_9
REMARK                            x       y       z     vdW  Elec       q    Type
REMARK                         _______ _______ _______ _____ _____    ______ ____
ROOT
ATOM      1  C   UNL     1       0.177  -4.769   1.165  0.00  0.00    +0.329 A 
ATOM      2  N   UNL     1       0.304  -6.091   1.198  0.00  0.00    -0.157 NA
ATOM      3  C   UNL     1       0.420  -6.716   2.362  0.00  0.00    +0.260 A 
ATOM      4  N   UNL     1       0.409  -6.019   3.493  0.00  0.00    -0.180 NA
ATOM      5  C   UNL     1       0.282  -4.702   3.459  0.00  0.00    +0.230 A 
ATOM      6  N   UNL     1       0.172  -4.076   2.299  0.00  0.00    -0.164 NA
ATOM      7 CL   UNL     1       0.268  -3.795   4.939  0.00  0.00    -0.041 Cl
ATOM      8  N   UNL     1       0.554  -8.102   2.398  0.00  0.00    -0.186 N 
ATOM      9  C   UNL     1       0.675  -8.875   3.498  0.00  0.00    +0.228 A 
ATOM     10  N   UNL     1       0.776 -10.119   3.108  0.00  0.00    -0.222 NA
ATOM     11  C   UNL     1       0.723 -10.182   1.778  0.00  0.00    +0.245 A 
ATOM     12  N   UNL     1       0.582  -8.975   1.298  0.00  0.00    -0.151 NA
ENDROOT
BRANCH   1  13
ATOM     13  O   UNL     1       0.058  -4.129  -0.021  0.00  0.00    -0.424 OA
BRANCH  13  18
ATOM     14  C   UNL     1       0.050   1.503   0.002  0.00  0.00    +0.044 C 
ATOM     15  C   UNL     1       0.052  -0.004  -0.004  0.00  0.00    -0.050 A 
ATOM     16  C   UNL     1       1.212  -0.693   0.297  0.00  0.00    +0.007 A 
ATOM     17  C   UNL     1       1.217  -2.075   0.292  0.00  0.00    +0.046 A 
ATOM     18  C   UNL     1       0.056  -2.770  -0.015  0.00  0.00    +0.132 A 
ATOM     19  C   UNL     1      -1.107  -2.076  -0.316  0.00  0.00    +0.046 A 
ATOM     20  C   UNL     1      -1.107  -0.694  -0.305  0.00  0.00    +0.007 A 
ENDBRANCH  13  18
ENDBRANCH   1  13
TORSDOF 2
