REMARK  Name = ZINC36548289
REMARK  14 active torsions:
REMARK  status: ('A' for Active; 'I' for Inactive)
REMARK    1  A    between atoms: C_1  and  C_2
REMARK    2  A    between atoms: C_2  and  C_3
REMARK    3  A    between atoms: C_2  and  C_4
REMARK    4  A    between atoms: C_2  and  N_5
REMARK    5  A    between atoms: C_6  and  C_8
REMARK    6  A    between atoms: C_8  and  C_10
REMARK    7  A    between atoms: C_8  and  N_19
REMARK    8  A    between atoms: C_13  and  N_16
REMARK    9  A    between atoms: N_16  and  C_17
REMARK   10  A    between atoms: N_16  and  C_18
REMARK   11  A    between atoms: N_19  and  C_20
REMARK   12  A    between atoms: C_27  and  C_29
REMARK   13  A    between atoms: C_29  and  N_30
REMARK   14  A    between atoms: C_31  and  C_33
REMARK                            x       y       z     vdW  Elec       q    Type
REMARK                         _______ _______ _______ _____ _____    ______ ____
ROOT
ATOM      1  N   UNL     1       3.995  -0.016  -2.845  0.00  0.00    -0.253 N 
ATOM      2  C   UNL     1       4.624  -0.120  -4.033  0.00  0.00    +0.238 C 
ATOM      3  O   UNL     1       4.122  -0.763  -4.931  0.00  0.00    -0.274 OA
ENDROOT
BRANCH   1   4
ATOM      4  C   UNL     1       4.575   0.725  -1.809  0.00  0.00    +0.056 A 
ATOM      5  C   UNL     1       5.469   0.120  -0.936  0.00  0.00    +0.025 A 
ATOM      6  C   UNL     1       6.039   0.854   0.085  0.00  0.00    +0.002 A 
ATOM      7  C   UNL     1       5.721   2.191   0.240  0.00  0.00    +0.002 A 
ATOM      8  C   UNL     1       4.830   2.797  -0.627  0.00  0.00    +0.022 A 
ATOM      9  C   UNL     1       4.261   2.070  -1.655  0.00  0.00    +0.062 A 
ATOM     10 CL   UNL     1       3.150   2.834  -2.748  0.00  0.00    -0.082 Cl
ENDBRANCH   1   4
BRANCH   1  11
ATOM     11  C   UNL     1       2.705  -0.679  -2.639  0.00  0.00    +0.197 C 
BRANCH  11  12
ATOM     12  C   UNL     1       2.888  -2.173  -2.727  0.00  0.00    -0.018 A 
ATOM     13  C   UNL     1       3.890  -2.789  -1.999  0.00  0.00    +0.008 A 
ATOM     14  C   UNL     1       4.060  -4.157  -2.078  0.00  0.00    +0.023 A 
ATOM     15  C   UNL     1       3.224  -4.914  -2.888  0.00  0.00    +0.029 A 
ATOM     16  C   UNL     1       2.219  -4.292  -3.618  0.00  0.00    +0.023 A 
ATOM     17  C   UNL     1       2.050  -2.924  -3.530  0.00  0.00    +0.008 A 
BRANCH  15  18
ATOM     18  N   UNL     1       3.394  -6.298  -2.970  0.00  0.00    -0.336 N 
ATOM     19  C   UNL     1       4.527  -6.938  -2.297  0.00  0.00    +0.129 C 
ATOM     20  C   UNL     1       2.439  -7.110  -3.729  0.00  0.00    +0.129 C 
ENDBRANCH  15  18
ENDBRANCH  11  12
BRANCH  11  22
ATOM     21  N   UNL     1       0.861  -0.019  -1.128  0.00  0.00    -0.309 N 
ATOM     22  C   UNL     1       2.167  -0.318  -1.278  0.00  0.00    +0.239 C 
ATOM     23  O   UNL     1       2.908  -0.297  -0.319  0.00  0.00    -0.273 OA
ATOM     24  H   UNL     1       0.268  -0.036  -1.895  0.00  0.00    +0.149 HD
BRANCH  21  26
ATOM     25  C   UNL     1       1.064   1.573   0.718  0.00  0.00    +0.031 C 
ATOM     26  C   UNL     1       0.338   0.332   0.195  0.00  0.00    +0.026 C 
ATOM     27  C   UNL     1       0.563  -0.835   1.158  0.00  0.00    +0.031 C 
ATOM     28  C   UNL     1      -1.160   0.625   0.089  0.00  0.00    +0.031 C 
ENDBRANCH  21  26
ENDBRANCH  11  22
ENDBRANCH   1  11
BRANCH   2  29
ATOM     29  C   UNL     1       5.951   0.562  -4.245  0.00  0.00    +0.201 C 
BRANCH  29  30
ATOM     30  N   UNL     1       6.423   0.299  -5.607  0.00  0.00    -0.303 N 
ATOM     31  C   UNL     1       7.597   0.812  -6.024  0.00  0.00    +0.244 C 
ATOM     32  O   UNL     1       8.264   1.493  -5.271  0.00  0.00    -0.270 OA
ATOM     33  H   UNL     1       5.890  -0.245  -6.208  0.00  0.00    +0.150 HD
BRANCH  31  34
ATOM     34  C   UNL     1       8.073   0.547  -7.399  0.00  0.00    +0.037 A 
ATOM     35  C   UNL     1       7.306  -0.230  -8.268  0.00  0.00    +0.013 A 
ATOM     36  C   UNL     1       7.756  -0.473  -9.550  0.00  0.00    +0.001 A 
ATOM     37  C   UNL     1       8.965   0.051  -9.973  0.00  0.00    +0.000 A 
ATOM     38  C   UNL     1       9.730   0.821  -9.115  0.00  0.00    +0.001 A 
ATOM     39  C   UNL     1       9.289   1.077  -7.834  0.00  0.00    +0.013 A 
ENDBRANCH  31  34
ENDBRANCH  29  30
ENDBRANCH   2  29
TORSDOF 9
