REMARK  Name = ZINC01272272
REMARK  17 active torsions:
REMARK  status: ('A' for Active; 'I' for Inactive)
REMARK    1  A    between atoms: C_1  and  C_2
REMARK    2  A    between atoms: C_2  and  O_3
REMARK    3  A    between atoms: O_3  and  C_4
REMARK    4  A    between atoms: C_6  and  C_14
REMARK    5  A    between atoms: C_9  and  O_10
REMARK    6  A    between atoms: O_10  and  C_11
REMARK    7  A    between atoms: C_11  and  C_13
REMARK    8  A    between atoms: C_16  and  C_37
REMARK    9  A    between atoms: C_17  and  C_36
REMARK   10  A    between atoms: C_24  and  C_25
REMARK   11  A    between atoms: C_28  and  O_33
REMARK   12  A    between atoms: C_29  and  O_31
REMARK   13  A    between atoms: O_31  and  C_32
REMARK   14  A    between atoms: O_33  and  C_34
REMARK   15  A    between atoms: C_37  and  O_39
REMARK   16  A    between atoms: O_39  and  C_40
REMARK   17  A    between atoms: C_40  and  C_41
REMARK                            x       y       z     vdW  Elec       q    Type
REMARK                         _______ _______ _______ _____ _____    ______ ____
ROOT
ATOM      1  C   UNL     1       1.650  -5.245   0.466  0.00  0.00    +0.162 C 
ATOM      2  C   UNL     1       2.389  -5.416  -0.842  0.00  0.00    +0.085 C 
ATOM      3  C   UNL     1       2.404  -6.657  -1.415  0.00  0.00    +0.053 C 
ATOM      4  N   UNL     1       1.785  -7.676  -0.833  0.00  0.00    -0.228 NA
ATOM      5  C   UNL     1       1.126  -7.604   0.296  0.00  0.00    +0.178 A 
ATOM      6  N   UNL     1       0.988  -6.452   1.035  0.00  0.00    -0.275 N 
ATOM      7  C   UNL     1       0.289  -6.502   2.176  0.00  0.00    +0.268 A 
ATOM      8  O   UNL     1       0.140  -5.508   2.863  0.00  0.00    -0.266 OA
ATOM      9  C   UNL     1      -0.292  -7.791   2.574  0.00  0.00    +0.081 A 
ATOM     10  C   UNL     1      -1.034  -8.103   3.668  0.00  0.00    +0.028 C 
ATOM     11  S   UNL     1       0.240  -8.837   1.230  0.00  0.00    -0.046 S 
ATOM     12  C   UNL     1       3.130  -6.870  -2.718  0.00  0.00    +0.066 C 
ENDROOT
BRANCH   1  15
ATOM     13  C   UNL     1      -1.568  -3.542  -0.541  0.00  0.00    +0.163 A 
ATOM     14  C   UNL     1      -0.596  -4.512  -0.357  0.00  0.00    +0.055 A 
ATOM     15  C   UNL     1       0.595  -4.188   0.266  0.00  0.00    -0.016 A 
ATOM     16  C   UNL     1       0.819  -2.897   0.707  0.00  0.00    +0.010 A 
ATOM     17  C   UNL     1      -0.146  -1.924   0.527  0.00  0.00    +0.050 A 
ATOM     18  C   UNL     1      -1.340  -2.241  -0.102  0.00  0.00    +0.173 A 
BRANCH  13  19
ATOM     19  O   UNL     1      -2.740  -3.858  -1.154  0.00  0.00    -0.489 OA
BRANCH  19  21
ATOM     20  C   UNL     1      -4.360  -5.413  -2.047  0.00  0.00    +0.048 C 
ATOM     21  C   UNL     1      -2.951  -5.234  -1.478  0.00  0.00    +0.226 C 
ENDBRANCH  19  21
ENDBRANCH  13  19
BRANCH  18  22
ATOM     22  O   UNL     1      -2.288  -1.283  -0.285  0.00  0.00    -0.422 OA
BRANCH  22  23
ATOM     23  C   UNL     1      -3.305  -1.229   0.589  0.00  0.00    +0.309 C 
ATOM     24  O   UNL     1      -3.311  -1.955   1.555  0.00  0.00    -0.251 OA
ATOM     25  C   UNL     1      -4.440  -0.262   0.366  0.00  0.00    +0.136 C 
ENDBRANCH  22  23
ENDBRANCH  18  22
ENDBRANCH   1  15
BRANCH  10  26
ATOM     26  C   UNL     1      -1.400  -9.499   3.933  0.00  0.00    -0.020 A 
ATOM     27  C   UNL     1      -0.655 -10.541   3.366  0.00  0.00    +0.012 A 
ATOM     28  C   UNL     1      -1.001 -11.850   3.617  0.00  0.00    +0.050 A 
ATOM     29  C   UNL     1      -2.087 -12.142   4.431  0.00  0.00    +0.162 A 
ATOM     30  C   UNL     1      -2.835 -11.111   5.000  0.00  0.00    +0.162 A 
ATOM     31  C   UNL     1      -2.492  -9.795   4.758  0.00  0.00    +0.057 A 
BRANCH  30  32
ATOM     32  O   UNL     1      -3.898 -11.401   5.796  0.00  0.00    -0.491 OA
ATOM     33  C   UNL     1      -4.619 -10.296   6.345  0.00  0.00    +0.277 C 
ENDBRANCH  30  32
BRANCH  29  34
ATOM     34  O   UNL     1      -2.424 -13.435   4.674  0.00  0.00    -0.491 OA
ATOM     35  C   UNL     1      -1.616 -14.442   4.060  0.00  0.00    +0.277 C 
ENDBRANCH  29  34
ENDBRANCH  10  26
BRANCH   2  36
ATOM     36  C   UNL     1       3.042  -4.332  -1.450  0.00  0.00    +0.339 C 
ATOM     37  O   UNL     1       3.588  -4.477  -2.530  0.00  0.00    -0.245 OA
BRANCH  36  38
ATOM     38  O   UNL     1       3.066  -3.128  -0.838  0.00  0.00    -0.462 OA
BRANCH  38  39
ATOM     39  C   UNL     1       3.652  -2.044  -1.561  0.00  0.00    +0.229 C 
ATOM     40  C   UNL     1       3.699  -0.802  -0.669  0.00  0.00    +0.048 C 
ENDBRANCH  38  39
ENDBRANCH  36  38
ENDBRANCH   2  36
TORSDOF 11
