REMARK  Name = ZINC67470311
REMARK  6 active torsions:
REMARK  status: ('A' for Active; 'I' for Inactive)
REMARK    1  A    between atoms: C_1  and  C_2
REMARK    2  A    between atoms: C_2  and  C_3
REMARK    3  A    between atoms: C_2  and  C_4
REMARK    4  A    between atoms: N_6  and  C_7
REMARK    5  A    between atoms: N_16  and  C_17
REMARK    6  A    between atoms: C_26  and  C_29
REMARK                            x       y       z     vdW  Elec       q    Type
REMARK                         _______ _______ _______ _____ _____    ______ ____
ROOT
ATOM      1  C   UNL     1      -3.007  -2.357   0.007  0.00  0.00    +0.090 C 
ATOM      2  C   UNL     1      -3.028  -3.763   0.611  0.00  0.00    +0.025 C 
ATOM      3  C   UNL     1      -4.468  -4.280   0.658  0.00  0.00    +0.021 C 
ATOM      4  C   UNL     1      -5.024  -4.358  -0.767  0.00  0.00    +0.109 C 
ATOM      5  N   UNL     1      -4.875  -3.043  -1.406  0.00  0.00    -0.284 N 
ATOM      6  C   UNL     1      -3.548  -2.413  -1.425  0.00  0.00    +0.131 C 
ATOM      7  C   UNL     1      -5.936  -2.426  -1.964  0.00  0.00    +0.302 C 
ATOM      8  O   UNL     1      -5.821  -1.299  -2.404  0.00  0.00    -0.253 OA
ATOM      9  N   UNL     1      -7.123  -3.059  -2.034  0.00  0.00    -0.296 N 
ATOM     10  H   UNL     1      -7.235  -3.929  -1.619  0.00  0.00    +0.151 HD
ENDROOT
BRANCH   9  11
ATOM     11  C   UNL     1      -8.246  -2.434  -2.736  0.00  0.00    +0.077 C 
ATOM     12  C   UNL     1      -8.153  -2.752  -4.231  0.00  0.00    +0.041 C 
ATOM     13  C   UNL     1      -9.310  -2.068  -4.967  0.00  0.00    +0.108 C 
ATOM     14  N   UNL     1     -10.575  -2.474  -4.341  0.00  0.00    -0.315 N 
ATOM     15  C   UNL     1     -10.736  -2.297  -2.891  0.00  0.00    +0.108 C 
ATOM     16  C   UNL     1      -9.564  -2.978  -2.179  0.00  0.00    +0.041 C 
ATOM     17  C   UNL     1     -11.598  -3.015  -5.104  0.00  0.00    +0.121 A 
ATOM     18  C   UNL     1     -11.354  -3.369  -6.429  0.00  0.00    +0.045 A 
ATOM     19  C   UNL     1     -12.366  -3.903  -7.180  0.00  0.00    +0.024 A 
ATOM     20  C   UNL     1     -13.624  -4.075  -6.582  0.00  0.00    +0.070 A 
ATOM     21  C   UNL     1     -13.798  -3.697  -5.249  0.00  0.00    +0.131 A 
ATOM     22  N   UNL     1     -12.795  -3.193  -4.561  0.00  0.00    -0.239 NA
BRANCH  20  23
ATOM     23  C   UNL     1     -14.714  -4.628  -7.328  0.00  0.00    +0.101 C 
ATOM     24  N   UNL     1     -15.578  -5.068  -7.919  0.00  0.00    -0.191 NA
ENDBRANCH  20  23
ENDBRANCH   9  11
BRANCH   1  27
ATOM     25  C   UNL     1      -1.403  -0.523  -0.007  0.00  0.00    +0.216 C 
ATOM     26  O   UNL     1      -2.335   0.253   0.007  0.00  0.00    -0.276 OA
ATOM     27  N   UNL     1      -1.633  -1.852  -0.008  0.00  0.00    -0.311 N 
ATOM     28  H   UNL     1      -0.888  -2.473  -0.019  0.00  0.00    +0.149 HD
BRANCH  25  30
ATOM     29  C   UNL     1      -0.008   1.527  -0.018  0.00  0.00    +0.017 C 
ATOM     30  C   UNL     1       0.011  -0.003  -0.023  0.00  0.00    +0.069 C 
ATOM     31  C   UNL     1       0.754  -0.508   1.216  0.00  0.00    +0.017 C 
ENDBRANCH  25  30
ENDBRANCH   1  27
TORSDOF 4
