REMARK  Name = ZINC19941470
REMARK  9 active torsions:
REMARK  status: ('A' for Active; 'I' for Inactive)
REMARK    1  A    between atoms: C_1  and  C_2
REMARK    2  A    between atoms: C_7  and  C_14
REMARK    3  A    between atoms: C_14  and  C_16
REMARK    4  A    between atoms: C_14  and  N_28
REMARK    5  A    between atoms: N_20  and  C_21
REMARK    6  A    between atoms: C_21  and  C_22
REMARK    7  A    between atoms: N_31  and  C_34
REMARK    8  A    between atoms: C_38  and  C_41
REMARK    9  A    between atoms: C_39  and  C_40
REMARK                            x       y       z     vdW  Elec       q    Type
REMARK                         _______ _______ _______ _____ _____    ______ ____
ROOT
ATOM      1  C   UNL     1       4.339   2.720  -1.886  0.00  0.00    +0.162 C 
ENDROOT
BRANCH   1   8
ATOM      2  C   UNL     1      -0.480   8.141  -5.204  0.00  0.00    +0.044 C 
ATOM      3  C   UNL     1       0.279   6.959  -4.659  0.00  0.00    -0.048 A 
ATOM      4  C   UNL     1      -0.207   5.675  -4.867  0.00  0.00    +0.004 A 
ATOM      5  C   UNL     1       0.466   4.590  -4.382  0.00  0.00    +0.010 A 
ATOM      6  C   UNL     1       1.655   4.773  -3.668  0.00  0.00    -0.001 A 
ATOM      7  C   UNL     1       2.401   3.632  -3.133  0.00  0.00    +0.021 A 
ATOM      8  C   UNL     1       3.547   3.871  -2.449  0.00  0.00    +0.042 A 
ATOM      9  C   UNL     1       3.998   5.195  -2.258  0.00  0.00    +0.254 A 
ATOM     10  O   UNL     1       5.028   5.387  -1.636  0.00  0.00    -0.268 OA
ATOM     11  N   UNL     1       3.322   6.248  -2.750  0.00  0.00    -0.322 N 
ATOM     12  H   UNL     1       3.704   7.268  -2.592  0.00  0.00    +0.169 HD
ATOM     13  C   UNL     1       2.151   6.073  -3.454  0.00  0.00    +0.049 A 
ATOM     14  C   UNL     1       1.448   7.163  -3.958  0.00  0.00    +0.029 A 
ENDBRANCH   1   8
BRANCH   1  15
ATOM     15  N   UNL     1       5.698   2.742  -2.442  0.00  0.00    -0.286 NA
ATOM     16  C   UNL     1       5.668   2.708  -3.910  0.00  0.00    +0.104 C 
ATOM     17  C   UNL     1       7.096   2.812  -4.450  0.00  0.00    +0.120 C 
ATOM     18  N   UNL     1       7.901   1.704  -3.918  0.00  0.00    -0.327 N 
ATOM     19  C   UNL     1       7.931   1.738  -2.449  0.00  0.00    +0.120 C 
ATOM     20  C   UNL     1       6.503   1.633  -1.909  0.00  0.00    +0.104 C 
BRANCH  18  21
ATOM     21  C   UNL     1       9.193   1.726  -4.446  0.00  0.00    +0.033 A 
ATOM     22  C   UNL     1      10.038   2.795  -4.177  0.00  0.00    +0.023 A 
ATOM     23  C   UNL     1      11.316   2.812  -4.700  0.00  0.00    +0.002 A 
ATOM     24  C   UNL     1      11.755   1.767  -5.492  0.00  0.00    +0.004 A 
ATOM     25  C   UNL     1      10.916   0.701  -5.763  0.00  0.00    -0.046 A 
ATOM     26  C   UNL     1       9.639   0.675  -5.237  0.00  0.00    -0.027 A 
ATOM     27  C   UNL     1       8.728  -0.490  -5.527  0.00  0.00    +0.046 C 
ATOM     28  C   UNL     1      11.399  -0.435  -6.627  0.00  0.00    +0.044 C 
ENDBRANCH  18  21
ENDBRANCH   1  15
BRANCH   1  29
ATOM     29  C   UNL     1       3.667   1.421  -2.253  0.00  0.00    +0.173 A 
ATOM     30  N   UNL     1       3.587   0.892  -3.449  0.00  0.00    -0.111 NA
ATOM     31  N   UNL     1       2.939  -0.217  -3.352  0.00  0.00    -0.023 NA
ATOM     32  N   UNL     1       2.608  -0.412  -2.123  0.00  0.00    -0.044 NA
ATOM     33  N   UNL     1       3.034   0.579  -1.415  0.00  0.00    -0.223 N 
BRANCH  33  34
ATOM     34  C   UNL     1       2.866   0.752   0.030  0.00  0.00    +0.182 C 
BRANCH  34  35
ATOM     35  C   UNL     1       1.524   1.380   0.308  0.00  0.00    -0.026 A 
ATOM     36  C   UNL     1       0.396   0.587   0.400  0.00  0.00    +0.005 A 
ATOM     37  C   UNL     1      -0.836   1.163   0.650  0.00  0.00    +0.000 A 
ATOM     38  C   UNL     1      -0.937   2.531   0.817  0.00  0.00    +0.000 A 
ATOM     39  C   UNL     1       0.191   3.324   0.726  0.00  0.00    +0.000 A 
ATOM     40  C   UNL     1       1.422   2.749   0.471  0.00  0.00    +0.005 A 
ENDBRANCH  34  35
ENDBRANCH  33  34
ENDBRANCH   1  29
TORSDOF 6
