REMARK  Name = ZINC59844789
REMARK  8 active torsions:
REMARK  status: ('A' for Active; 'I' for Inactive)
REMARK    1  A    between atoms: C_1  and  C_2
REMARK    2  A    between atoms: C_2  and  C_4
REMARK    3  A    between atoms: C_2  and  S_14
REMARK    4  A    between atoms: N_6  and  N_7
REMARK    5  A    between atoms: C_8  and  C_10
REMARK    6  A    between atoms: S_14  and  C_15
REMARK    7  A    between atoms: C_18  and  C_26
REMARK    8  A    between atoms: N_19  and  C_20
REMARK                            x       y       z     vdW  Elec       q    Type
REMARK                         _______ _______ _______ _____ _____    ______ ____
ROOT
ATOM      1  C   UNL     1      -2.365  -0.093  -1.525  0.00  0.00    +0.197 A 
ATOM      2  N   UNL     1      -1.734   0.598  -2.448  0.00  0.00    -0.122 NA
ATOM      3  N   UNL     1      -2.514   0.821  -3.445  0.00  0.00    -0.128 NA
ATOM      4  C   UNL     1      -3.692   0.287  -3.222  0.00  0.00    +0.169 A 
ATOM      5  N   UNL     1      -3.632  -0.322  -1.987  0.00  0.00    -0.270 N 
ENDROOT
BRANCH   4   6
ATOM      6  C   UNL     1      -4.859   0.325  -4.127  0.00  0.00    +0.021 A 
ATOM      7  C   UNL     1      -6.130   0.001  -3.647  0.00  0.00    +0.011 A 
ATOM      8  C   UNL     1      -7.216   0.039  -4.497  0.00  0.00    +0.002 A 
ATOM      9  C   UNL     1      -7.048   0.395  -5.823  0.00  0.00    +0.015 A 
ATOM     10  C   UNL     1      -5.792   0.717  -6.306  0.00  0.00    +0.019 A 
ATOM     11  C   UNL     1      -4.698   0.689  -5.465  0.00  0.00    +0.027 A 
ATOM     12 BR   UNL     1      -5.574   1.203  -8.121  0.00  0.00    -0.050 Br
ENDBRANCH   4   6
BRANCH   5  13
ATOM     13  C   UNL     1      -4.656  -1.025  -1.338  0.00  0.00    +0.051 A 
ATOM     14  C   UNL     1      -5.132  -2.214  -1.875  0.00  0.00    +0.026 A 
ATOM     15  C   UNL     1      -6.141  -2.905  -1.234  0.00  0.00    +0.002 A 
ATOM     16  C   UNL     1      -6.677  -2.414  -0.058  0.00  0.00    +0.000 A 
ATOM     17  C   UNL     1      -6.206  -1.231   0.480  0.00  0.00    +0.002 A 
ATOM     18  C   UNL     1      -5.193  -0.538  -0.154  0.00  0.00    +0.026 A 
ENDBRANCH   5  13
BRANCH   1  19
ATOM     19  S   UNL     1      -1.700  -0.632   0.015  0.00  0.00    -0.073 S 
BRANCH  19  21
ATOM     20  C   UNL     1      -0.019   1.526   0.010  0.00  0.00    +0.029 C 
ATOM     21  C   UNL     1       0.002  -0.004   0.002  0.00  0.00    +0.138 C 
BRANCH  21  22
ATOM     22  C   UNL     1       0.731  -0.503   1.223  0.00  0.00    +0.242 C 
ATOM     23  O   UNL     1       0.105  -0.891   2.187  0.00  0.00    -0.273 OA
ATOM     24  N   UNL     1       2.079  -0.519   1.244  0.00  0.00    -0.233 N 
ATOM     25  H   UNL     1       2.579  -0.208   0.473  0.00  0.00    +0.173 HD
BRANCH  24  26
ATOM     26  N   UNL     1       2.756  -0.983   2.379  0.00  0.00    -0.234 N 
ATOM     27  C   UNL     1       4.104  -0.998   2.400  0.00  0.00    +0.232 C 
ATOM     28  O   UNL     1       4.730  -0.610   1.436  0.00  0.00    -0.274 OA
ATOM     29  H   UNL     1       2.255  -1.293   3.150  0.00  0.00    +0.173 HD
BRANCH  27  30
ATOM     30  C   UNL     1       4.832  -1.497   3.621  0.00  0.00    +0.076 C 
ATOM     31  C   UNL     1       4.976  -0.440   4.728  0.00  0.00    +0.013 C 
ATOM     32  C   UNL     1       6.399  -0.979   4.950  0.00  0.00    +0.001 C 
ATOM     33  C   UNL     1       6.364  -1.450   3.486  0.00  0.00    +0.013 C 
ENDBRANCH  27  30
ENDBRANCH  24  26
ENDBRANCH  21  22
ENDBRANCH  19  21
ENDBRANCH   1  19
TORSDOF 7
