REMARK  Name = ZINC46849368
REMARK  7 active torsions:
REMARK  status: ('A' for Active; 'I' for Inactive)
REMARK    1  A    between atoms: C_1  and  C_2
REMARK    2  A    between atoms: C_3  and  C_29
REMARK    3  A    between atoms: N_4  and  C_23
REMARK    4  A    between atoms: C_5  and  S_7
REMARK    5  A    between atoms: S_7  and  C_8
REMARK    6  A    between atoms: C_8  and  C_9
REMARK    7  A    between atoms: N_21  and  C_22
REMARK                            x       y       z     vdW  Elec       q    Type
REMARK                         _______ _______ _______ _____ _____    ______ ____
ROOT
ATOM      1  S   UNL     1       0.059  -3.453   1.776  0.00  0.00    -0.082 S 
ENDROOT
BRANCH   1   6
ATOM      2  C   UNL     1      -0.018   1.503   0.010  0.00  0.00    +0.065 C 
ATOM      3  C   UNL     1       0.002  -0.004   0.002  0.00  0.00    +0.034 A 
ATOM      4  C   UNL     1       0.008  -0.785  -1.092  0.00  0.00    +0.037 A 
ATOM      5  N   UNL     1       0.028  -2.090  -0.654  0.00  0.00    -0.321 N 
ATOM      6  C   UNL     1       0.034  -2.053   0.707  0.00  0.00    +0.148 A 
ATOM      7  N   UNL     1       0.024  -0.796   1.087  0.00  0.00    -0.338 N 
ATOM      8  C   UNL     1      -0.006  -0.320  -2.525  0.00  0.00    +0.065 C 
ATOM      9  H   UNL     1       0.028  -0.488   2.007  0.00  0.00    +0.168 HD
BRANCH   5  10
ATOM     10  C   UNL     1       0.041  -3.291  -1.493  0.00  0.00    +0.089 C 
ATOM     11  C   UNL     1      -1.195  -4.139  -1.187  0.00  0.00    +0.025 C 
ATOM     12  C   UNL     1      -1.182  -5.393  -2.064  0.00  0.00    +0.002 C 
ATOM     13  C   UNL     1       0.080  -6.207  -1.771  0.00  0.00    +0.000 C 
ATOM     14  C   UNL     1       1.316  -5.358  -2.077  0.00  0.00    +0.002 C 
ATOM     15  C   UNL     1       1.303  -4.104  -1.200  0.00  0.00    +0.025 C 
ENDBRANCH   5  10
ENDBRANCH   1   6
BRANCH   1  16
ATOM     16  C   UNL     1       0.057  -2.734   3.441  0.00  0.00    +0.154 C 
BRANCH  16  17
ATOM     17  C   UNL     1       0.078  -3.839   4.466  0.00  0.00    +0.150 A 
ATOM     18  N   UNL     1      -0.961  -4.426   4.994  0.00  0.00    -0.131 NA
ATOM     19  N   UNL     1      -0.581  -5.324   5.833  0.00  0.00    -0.110 NA
ATOM     20  C   UNL     1       0.732  -5.359   5.885  0.00  0.00    +0.239 A 
ATOM     21  N   UNL     1       1.185  -4.418   5.012  0.00  0.00    -0.263 N 
ATOM     22  C   UNL     1       2.558  -4.203   4.824  0.00  0.00    +0.071 A 
ATOM     23  C   UNL     1       3.214  -3.299   3.992  0.00  0.00    +0.034 A 
ATOM     24  C   UNL     1       4.564  -3.266   3.973  0.00  0.00    +0.048 A 
ATOM     25  S   UNL     1       5.027  -4.449   5.073  0.00  0.00    -0.090 S 
ATOM     26  C   UNL     1       3.421  -5.004   5.574  0.00  0.00    +0.101 A 
ATOM     27  C   UNL     1       2.942  -5.972   6.466  0.00  0.00    +0.269 A 
ATOM     28  O   UNL     1       3.721  -6.655   7.106  0.00  0.00    -0.266 OA
ATOM     29  N   UNL     1       1.609  -6.136   6.619  0.00  0.00    -0.279 N 
ATOM     30  C   UNL     1       1.094  -7.146   7.547  0.00  0.00    +0.155 C 
ENDBRANCH  16  17
ENDBRANCH   1  16
TORSDOF 4
