REMARK  Name = ZINC38489209
REMARK  4 active torsions:
REMARK  status: ('A' for Active; 'I' for Inactive)
REMARK    1  A    between atoms: C_3  and  C_6
REMARK    2  A    between atoms: N_11  and  C_13
REMARK    3  A    between atoms: C_13  and  C_14
REMARK    4  A    between atoms: C_14  and  C_16
REMARK                            x       y       z     vdW  Elec       q    Type
REMARK                         _______ _______ _______ _____ _____    ______ ____
ROOT
ATOM      1  C   UNL     1       3.573   0.619  -0.029  0.00  0.00    +0.142 A 
ATOM      2  C   UNL     1       4.268  -0.647  -0.049  0.00  0.00    +0.077 A 
ATOM      3  C   UNL     1       5.671  -0.720  -0.063  0.00  0.00    +0.148 A 
ATOM      4  C   UNL     1       6.367   0.584  -0.058  0.00  0.00    +0.294 A 
ATOM      5  O   UNL     1       7.586   0.624  -0.070  0.00  0.00    -0.264 OA
ATOM      6  N   UNL     1       5.659   1.724  -0.041  0.00  0.00    -0.219 N 
ATOM      7  N   UNL     1       4.263   1.743  -0.031  0.00  0.00    -0.163 NA
ATOM      8  N   UNL     1       6.196  -1.959  -0.080  0.00  0.00    -0.219 NA
ATOM      9  C   UNL     1       5.448  -3.042  -0.082  0.00  0.00    +0.162 A 
ATOM     10  S   UNL     1       3.796  -2.357  -0.060  0.00  0.00    -0.050 S 
ATOM     11  N   UNL     1       5.839  -4.366  -0.098  0.00  0.00    -0.310 N 
ATOM     12  C   UNL     1       4.838  -5.442  -0.103  0.00  0.00    +0.107 C 
ATOM     13  C   UNL     1       5.126  -6.377  -1.282  0.00  0.00    +0.019 C 
ATOM     14  C   UNL     1       6.574  -6.866  -1.199  0.00  0.00    +0.003 C 
ATOM     15  C   UNL     1       7.524  -5.669  -1.288  0.00  0.00    +0.019 C 
ATOM     16  C   UNL     1       7.263  -4.726  -0.115  0.00  0.00    +0.107 C 
ENDROOT
BRANCH   1  19
ATOM     17  C   UNL     1      -0.016   1.343   0.009  0.00  0.00    +0.042 A 
ATOM     18  C   UNL     1       1.325   1.775  -0.001  0.00  0.00    +0.051 A 
ATOM     19  C   UNL     1       2.096   0.654  -0.014  0.00  0.00    +0.156 A 
ATOM     20  O   UNL     1       1.280  -0.417  -0.012  0.00  0.00    -0.461 OA
ATOM     21  C   UNL     1       0.002  -0.004   0.002  0.00  0.00    +0.196 A 
ENDBRANCH   1  19
BRANCH   6  22
ATOM     22  C   UNL     1       6.379   2.999  -0.036  0.00  0.00    +0.227 C 
BRANCH  22  23
ATOM     23  C   UNL     1       6.613   3.450  -1.454  0.00  0.00    +0.184 C 
ATOM     24  O   UNL     1       6.216   2.772  -2.379  0.00  0.00    -0.290 OA
BRANCH  23  25
ATOM     25  C   UNL     1       7.322   4.711  -1.718  0.00  0.00    +0.019 A 
ATOM     26  C   UNL     1       7.786   5.492  -0.655  0.00  0.00    +0.013 A 
ATOM     27  C   UNL     1       8.450   6.673  -0.909  0.00  0.00    +0.020 A 
ATOM     28  C   UNL     1       8.658   7.087  -2.215  0.00  0.00    +0.041 A 
ATOM     29  C   UNL     1       8.201   6.318  -3.274  0.00  0.00    +0.020 A 
ATOM     30  C   UNL     1       7.540   5.133  -3.034  0.00  0.00    +0.013 A 
ATOM     31 CL   UNL     1       9.494   8.576  -2.527  0.00  0.00    -0.084 Cl
ENDBRANCH  23  25
ENDBRANCH  22  23
ENDBRANCH   6  22
TORSDOF 4
