REMARK  Name = ZINC05749571
REMARK  12 active torsions:
REMARK  status: ('A' for Active; 'I' for Inactive)
REMARK    1  A    between atoms: C_1  and  C_2
REMARK    2  A    between atoms: C_4  and  C_11
REMARK    3  A    between atoms: C_5  and  O_10
REMARK    4  A    between atoms: C_6  and  C_8
REMARK    5  A    between atoms: C_8  and  O_9
REMARK    6  A    between atoms: C_11  and  N_12
REMARK    7  A    between atoms: N_16  and  C_19
REMARK    8  A    between atoms: C_19  and  C_20
REMARK    9  A    between atoms: C_22  and  C_29
REMARK   10  A    between atoms: C_24  and  C_27
REMARK   11  A    between atoms: C_25  and  O_26
REMARK   12  A    between atoms: C_27  and  O_28
REMARK                            x       y       z     vdW  Elec       q    Type
REMARK                         _______ _______ _______ _____ _____    ______ ____
ROOT
ATOM      1  N   UNL     1       3.978   6.105  -1.332  0.00  0.00    -0.281 N 
ATOM      2  C   UNL     1       3.639   7.178  -2.268  0.00  0.00    +0.111 C 
ATOM      3  C   UNL     1       4.817   7.403  -3.222  0.00  0.00    +0.038 C 
ATOM      4  C   UNL     1       5.155   6.072  -3.903  0.00  0.00    +0.111 C 
ATOM      5  N   UNL     1       5.411   5.059  -2.878  0.00  0.00    -0.281 N 
ATOM      6  C   UNL     1       4.825   5.123  -1.673  0.00  0.00    +0.305 C 
ATOM      7  O   UNL     1       5.068   4.253  -0.859  0.00  0.00    -0.252 OA
ENDROOT
BRANCH   1   8
ATOM      8  C   UNL     1       3.384   6.107   0.007  0.00  0.00    +0.148 C 
BRANCH   8  12
ATOM      9  C   UNL     1       1.143   1.769   1.100  0.00  0.00    +0.044 C 
ATOM     10  C   UNL     1       1.078   3.164   0.534  0.00  0.00    -0.050 A 
ATOM     11  C   UNL     1       2.208   3.961   0.530  0.00  0.00    +0.012 A 
ATOM     12  C   UNL     1       2.151   5.240   0.012  0.00  0.00    +0.012 A 
ATOM     13  C   UNL     1       0.960   5.723  -0.509  0.00  0.00    +0.127 A 
ATOM     14  C   UNL     1      -0.174   4.924  -0.499  0.00  0.00    +0.020 A 
ATOM     15  C   UNL     1      -0.112   3.645   0.020  0.00  0.00    +0.013 A 
BRANCH  13  16
ATOM     16  O   UNL     1       0.903   6.979  -1.025  0.00  0.00    -0.506 OA
ATOM     17  H   UNL     1       0.745   7.668  -0.365  0.00  0.00    +0.292 HD
ENDBRANCH  13  16
BRANCH  14  18
ATOM     18  C   UNL     1      -1.471   5.448  -1.059  0.00  0.00    +0.194 C 
BRANCH  18  19
ATOM     19  O   UNL     1      -2.481   4.444  -0.941  0.00  0.00    -0.390 OA
ATOM     20  H   UNL     1      -3.345   4.713  -1.282  0.00  0.00    +0.210 HD
ENDBRANCH  18  19
ENDBRANCH  14  18
ENDBRANCH   8  12
ENDBRANCH   1   8
BRANCH   5  21
ATOM     21  C   UNL     1       6.331   3.958  -3.171  0.00  0.00    +0.148 C 
BRANCH  21  22
ATOM     22  C   UNL     1       7.731   4.354  -2.779  0.00  0.00    +0.012 A 
ATOM     23  C   UNL     1       8.624   4.782  -3.742  0.00  0.00    +0.012 A 
ATOM     24  C   UNL     1       9.907   5.151  -3.381  0.00  0.00    -0.050 A 
ATOM     25  C   UNL     1      10.303   5.082  -2.058  0.00  0.00    +0.013 A 
ATOM     26  C   UNL     1       9.415   4.649  -1.093  0.00  0.00    +0.020 A 
ATOM     27  C   UNL     1       8.126   4.283  -1.451  0.00  0.00    +0.127 A 
ATOM     28  C   UNL     1      10.877   5.623  -4.433  0.00  0.00    +0.044 C 
BRANCH  27  29
ATOM     29  O   UNL     1       7.250   3.857  -0.502  0.00  0.00    -0.506 OA
ATOM     30  H   UNL     1       7.267   2.902  -0.352  0.00  0.00    +0.292 HD
ENDBRANCH  27  29
BRANCH  26  31
ATOM     31  C   UNL     1       9.847   4.573   0.349  0.00  0.00    +0.194 C 
BRANCH  31  32
ATOM     32  O   UNL     1      11.207   4.998   0.462  0.00  0.00    -0.390 OA
ATOM     33  H   UNL     1      11.553   4.976   1.365  0.00  0.00    +0.210 HD
ENDBRANCH  31  32
ENDBRANCH  26  31
ENDBRANCH  21  22
ENDBRANCH   5  21
TORSDOF 10
