REMARK  Name = ZINC17013689
REMARK  12 active torsions:
REMARK  status: ('A' for Active; 'I' for Inactive)
REMARK    1  A    between atoms: C_1  and  C_2
REMARK    2  A    between atoms: C_2  and  C_3
REMARK    3  A    between atoms: C_15  and  O_34
REMARK    4  A    between atoms: N_18  and  C_33
REMARK    5  A    between atoms: C_21  and  C_28
REMARK    6  A    between atoms: C_21  and  O_32
REMARK    7  A    between atoms: C_22  and  O_24
REMARK    8  A    between atoms: O_24  and  C_25
REMARK    9  A    between atoms: C_25  and  C_27
REMARK   10  A    between atoms: C_28  and  O_30
REMARK   11  A    between atoms: O_30  and  C_31
REMARK   12  A    between atoms: O_34  and  C_35
REMARK                            x       y       z     vdW  Elec       q    Type
REMARK                         _______ _______ _______ _____ _____    ______ ____
ROOT
ATOM      1  C   UNL     1      -1.389   2.418   0.036  0.00  0.00    +0.018 C 
ATOM      2  C   UNL     1      -0.056   1.767   0.236  0.00  0.00    -0.024 C 
ATOM      3  C   UNL     1       1.066   2.402   0.084  0.00  0.00    -0.049 C 
ATOM      4  C   UNL     1       1.105   3.845  -0.324  0.00  0.00    -0.051 C 
ATOM      5  C   UNL     1      -1.331   3.884  -0.183  0.00  0.00    -0.042 C 
ATOM      6  C   UNL     1      -1.941   4.521  -1.395  0.00  0.00    +0.007 C 
ATOM      7  C   UNL     1      -0.920   5.614  -1.821  0.00  0.00    -0.007 C 
ATOM      8  C   UNL     1      -0.140   5.887  -0.512  0.00  0.00    -0.077 C 
ATOM      9  C   UNL     1      -3.252   5.190  -1.113  0.00  0.00    -0.020 A 
ATOM     10  C   UNL     1      -3.538   6.246  -0.270  0.00  0.00    +0.009 A 
ATOM     11  C   UNL     1      -4.859   6.673  -0.215  0.00  0.00    +0.046 A 
ATOM     12  C   UNL     1      -5.845   6.066  -0.975  0.00  0.00    +0.122 A 
ATOM     13  C   UNL     1      -5.563   5.000  -1.822  0.00  0.00    +0.069 A 
ATOM     14  C   UNL     1      -4.238   4.561  -1.880  0.00  0.00    +0.037 A 
ATOM     15  N   UNL     1      -3.708   3.524  -2.629  0.00  0.00    -0.325 N 
ATOM     16  C   UNL     1      -2.225   3.624  -2.602  0.00  0.00    +0.128 C 
ATOM     17  C   UNL     1      -1.674   2.214  -2.415  0.00  0.00    +0.219 C 
ATOM     18  C   UNL     1      -2.156   1.681  -1.063  0.00  0.00    +0.229 C 
ATOM     19  C   UNL     1      -4.213   3.558  -4.008  0.00  0.00    +0.129 C 
ATOM     20  N   UNL     1      -0.096   4.591   0.150  0.00  0.00    +0.385 N 
ATOM     21  H   UNL     1      -0.036   4.718   1.167  0.00  0.00    -0.081 HD
ENDROOT
BRANCH   1  23
ATOM     22  C   UNL     1      -2.342   0.698   1.578  0.00  0.00    +0.005 C 
ATOM     23  C   UNL     1      -2.183   2.199   1.325  0.00  0.00    +0.010 C 
ENDBRANCH   1  23
BRANCH  17  24
ATOM     24  C   UNL     1      -0.167   2.247  -2.438  0.00  0.00    +0.345 C 
ATOM     25  O   UNL     1       0.465   1.349  -1.933  0.00  0.00    -0.247 OA
BRANCH  24  26
ATOM     26  O   UNL     1       0.473   3.273  -3.020  0.00  0.00    -0.466 OA
ATOM     27  C   UNL     1       1.917   3.171  -3.133  0.00  0.00    +0.280 C 
ENDBRANCH  24  26
ENDBRANCH  17  24
BRANCH  17  28
ATOM     28  O   UNL     1      -2.152   1.368  -3.463  0.00  0.00    -0.373 OA
ATOM     29  H   UNL     1      -1.852   0.451  -3.396  0.00  0.00    +0.211 HD
ENDBRANCH  17  28
BRANCH  12  30
ATOM     30  O   UNL     1      -7.121   6.523  -0.889  0.00  0.00    -0.495 OA
ATOM     31  C   UNL     1      -7.360   7.619  -0.003  0.00  0.00    +0.277 C 
ENDBRANCH  12  30
BRANCH  18  32
ATOM     32  O   UNL     1      -1.892   0.256  -0.974  0.00  0.00    -0.457 OA
BRANCH  32  33
ATOM     33  C   UNL     1      -2.867  -0.571  -1.383  0.00  0.00    +0.304 C 
ATOM     34  O   UNL     1      -3.907  -0.119  -1.800  0.00  0.00    -0.251 OA
ATOM     35  C   UNL     1      -2.665  -2.063  -1.320  0.00  0.00    +0.136 C 
ENDBRANCH  32  33
ENDBRANCH  18  32
TORSDOF 7
