REMARK  Name = ZINC09019398
REMARK  7 active torsions:
REMARK  status: ('A' for Active; 'I' for Inactive)
REMARK    1  A    between atoms: C_3  and  C_10
REMARK    2  A    between atoms: C_5  and  N_7
REMARK    3  A    between atoms: C_10  and  O_12
REMARK    4  A    between atoms: O_12  and  C_13
REMARK    5  A    between atoms: C_18  and  C_19
REMARK    6  A    between atoms: C_19  and  C_21
REMARK    7  A    between atoms: C_22  and  C_23
REMARK                            x       y       z     vdW  Elec       q    Type
REMARK                         _______ _______ _______ _____ _____    ______ ____
ROOT
ATOM      1  C   UNL     1      -0.015   1.385   0.010  0.00  0.00    +0.143 A 
ATOM      2  C   UNL     1       0.011   0.007  -0.143  0.00  0.00    +0.048 A 
ATOM      3  C   UNL     1       1.217  -0.665  -0.157  0.00  0.00    +0.019 A 
ATOM      4  C   UNL     1       2.409   0.030  -0.019  0.00  0.00    +0.019 A 
ATOM      5  C   UNL     1       2.400   1.401   0.134  0.00  0.00    +0.030 A 
ATOM      6  C   UNL     1       1.187   2.092   0.150  0.00  0.00    +0.065 A 
ATOM      7 BR   UNL     1       4.052  -0.905  -0.042  0.00  0.00    -0.050 Br
ENDROOT
BRANCH   6   8
ATOM      8  C   UNL     1       1.171   3.560   0.313  0.00  0.00    +0.190 C 
ATOM      9  O   UNL     1       0.110   4.160   0.326  0.00  0.00    -0.287 OA
BRANCH   8  10
ATOM     10  C   UNL     1       2.385   4.269   0.454  0.00  0.00    +0.052 C 
ATOM     11  C   UNL     1       2.370   5.619   0.604  0.00  0.00    +0.019 C 
BRANCH  11  12
ATOM     12  C   UNL     1       3.585   6.329   0.744  0.00  0.00    +0.012 A 
ATOM     13  C   UNL     1       3.790   7.696   0.901  0.00  0.00    +0.015 A 
ATOM     14  C   UNL     1       5.088   8.121   1.021  0.00  0.00    +0.008 A 
ATOM     15  C   UNL     1       6.094   7.207   0.969  0.00  0.00    +0.046 A 
ATOM     16  S   UNL     1       5.256   5.704   0.759  0.00  0.00    -0.097 S 
ENDBRANCH  11  12
ENDBRANCH   8  10
ENDBRANCH   6   8
BRANCH   1  17
ATOM     17  O   UNL     1      -1.200   2.048   0.019  0.00  0.00    -0.422 OA
BRANCH  17  18
ATOM     18  C   UNL     1      -1.636   2.536  -1.159  0.00  0.00    +0.345 C 
ATOM     19  O   UNL     1      -1.025   2.294  -2.180  0.00  0.00    -0.245 OA
BRANCH  18  22
ATOM     20  C   UNL     1      -4.703   4.420  -0.088  0.00  0.00    +0.003 A 
ATOM     21  C   UNL     1      -3.562   3.645  -0.035  0.00  0.00    +0.015 A 
ATOM     22  C   UNL     1      -2.858   3.365  -1.208  0.00  0.00    +0.062 A 
ATOM     23  C   UNL     1      -3.310   3.877  -2.425  0.00  0.00    +0.047 A 
ATOM     24  C   UNL     1      -4.454   4.646  -2.465  0.00  0.00    +0.127 A 
ATOM     25  C   UNL     1      -5.148   4.919  -1.299  0.00  0.00    +0.033 A 
BRANCH  24  26
ATOM     26  N   UNL     1      -4.938   5.185  -3.755  0.00  0.00    +0.056 N 
ATOM     27  O   UNL     1      -5.946   5.868  -3.791  0.00  0.00    -0.126 OA
ATOM     28  O   UNL     1      -4.329   4.945  -4.782  0.00  0.00    -0.126 OA
ENDBRANCH  24  26
ENDBRANCH  18  22
ENDBRANCH  17  18
ENDBRANCH   1  17
TORSDOF 7
