REMARK  Name = ZINC35212394
REMARK  12 active torsions:
REMARK  status: ('A' for Active; 'I' for Inactive)
REMARK    1  A    between atoms: C_1  and  C_2
REMARK    2  A    between atoms: N_8  and  C_9
REMARK    3  A    between atoms: C_9  and  C_10
REMARK    4  A    between atoms: C_10  and  C_11
REMARK    5  A    between atoms: C_11  and  N_12
REMARK    6  A    between atoms: C_13  and  C_15
REMARK    7  A    between atoms: C_19  and  C_34
REMARK    8  A    between atoms: C_22  and  C_24
REMARK    9  A    between atoms: C_27  and  C_30
REMARK   10  A    between atoms: C_30  and  C_31
REMARK   11  A    between atoms: C_30  and  C_32
REMARK   12  A    between atoms: C_30  and  C_33
REMARK                            x       y       z     vdW  Elec       q    Type
REMARK                         _______ _______ _______ _____ _____    ______ ____
ROOT
ATOM      1  C   UNL     1       6.792  -0.104   5.335  0.00  0.00    +0.173 C 
ATOM      2  C   UNL     1       6.053   0.544   6.543  0.00  0.00    +0.103 C 
ATOM      3  S   UNL     1       6.812   2.228   6.451  0.00  0.00    -0.131 S 
ATOM      4  C   UNL     1       8.443   1.710   5.766  0.00  0.00    +0.166 C 
ATOM      5  N   UNL     1       8.180   0.345   5.276  0.00  0.00    -0.269 N 
ATOM      6  C   UNL     1       9.166  -0.441   4.799  0.00  0.00    +0.248 C 
ATOM      7  O   UNL     1       8.898  -1.519   4.306  0.00  0.00    -0.270 OA
ENDROOT
BRANCH   4   8
ATOM      8  C   UNL     1       8.858   2.616   4.636  0.00  0.00    -0.014 A 
ATOM      9  C   UNL     1       8.964   2.114   3.352  0.00  0.00    +0.006 A 
ATOM     10  C   UNL     1       9.345   2.944   2.314  0.00  0.00    +0.003 A 
ATOM     11  C   UNL     1       9.619   4.276   2.558  0.00  0.00    +0.038 A 
ATOM     12  C   UNL     1       9.512   4.780   3.843  0.00  0.00    +0.124 A 
ATOM     13  C   UNL     1       9.125   3.949   4.881  0.00  0.00    +0.044 A 
ATOM     14  F   UNL     1       9.781   6.082   4.084  0.00  0.00    -0.205 F 
ENDBRANCH   4   8
BRANCH   6  15
ATOM     15  C   UNL     1      10.572   0.008   4.876  0.00  0.00    +0.037 A 
ATOM     16  C   UNL     1      10.875   1.286   5.348  0.00  0.00    +0.013 A 
ATOM     17  C   UNL     1      12.190   1.698   5.418  0.00  0.00    +0.005 A 
ATOM     18  C   UNL     1      13.207   0.848   5.021  0.00  0.00    -0.042 A 
ATOM     19  C   UNL     1      12.913  -0.420   4.553  0.00  0.00    +0.005 A 
ATOM     20  C   UNL     1      11.603  -0.847   4.484  0.00  0.00    +0.013 A 
BRANCH  18  21
ATOM     21  C   UNL     1      14.641   1.305   5.100  0.00  0.00    -0.013 C 
ATOM     22  C   UNL     1      14.987   1.649   6.550  0.00  0.00    +0.015 C 
ATOM     23  C   UNL     1      15.561   0.186   4.607  0.00  0.00    +0.015 C 
ATOM     24  C   UNL     1      14.829   2.545   4.223  0.00  0.00    +0.015 C 
ENDBRANCH  18  21
ENDBRANCH   6  15
BRANCH   1  26
ATOM     25  N   UNL     1       4.832  -0.141   3.827  0.00  0.00    -0.314 N 
ATOM     26  C   UNL     1       6.091   0.282   4.059  0.00  0.00    +0.234 C 
ATOM     27  O   UNL     1       6.658   0.973   3.240  0.00  0.00    -0.274 OA
ATOM     28  H   UNL     1       4.378  -0.694   4.482  0.00  0.00    +0.149 HD
BRANCH  25  29
ATOM     29  C   UNL     1       4.150   0.234   2.586  0.00  0.00    +0.102 C 
BRANCH  29  30
ATOM     30  C   UNL     1       2.745  -0.371   2.574  0.00  0.00    +0.000 C 
BRANCH  30  31
ATOM     31  C   UNL     1       2.032   0.021   1.278  0.00  0.00    -0.077 C 
BRANCH  31  38
ATOM     32  C   UNL     1      -0.071   1.443   0.079  0.00  0.00    -0.013 C 
ATOM     33  C   UNL     1      -0.041  -0.087   0.080  0.00  0.00    -0.072 C 
ATOM     34  C   UNL     1      -1.474  -0.625   0.105  0.00  0.00    -0.016 C 
ATOM     35  C   UNL     1      -1.438  -2.156   0.106  0.00  0.00    -0.003 C 
ATOM     36  C   UNL     1      -0.617  -2.637   1.305  0.00  0.00    -0.019 C 
ATOM     37  C   UNL     1       0.784  -2.025   1.235  0.00  0.00    -0.078 C 
ATOM     38  N   UNL     1       0.683  -0.561   1.265  0.00  0.00    +0.381 N 
ATOM     39  H   UNL     1       0.189  -0.275   2.097  0.00  0.00    -0.081 HD
ENDBRANCH  31  38
ENDBRANCH  30  31
ENDBRANCH  29  30
ENDBRANCH  25  29
ENDBRANCH   1  26
TORSDOF 8
