REMARK  Name = ZINC20710546
REMARK  10 active torsions:
REMARK  status: ('A' for Active; 'I' for Inactive)
REMARK    1  A    between atoms: C_1  and  C_2
REMARK    2  A    between atoms: C_2  and  C_3
REMARK    3  A    between atoms: C_2  and  C_4
REMARK    4  A    between atoms: C_2  and  N_5
REMARK    5  A    between atoms: N_5  and  S_6
REMARK    6  A    between atoms: S_6  and  C_9
REMARK    7  A    between atoms: C_22  and  C_25
REMARK    8  A    between atoms: C_30  and  O_31
REMARK    9  A    between atoms: O_31  and  C_32
REMARK   10  A    between atoms: C_32  and  C_33
REMARK                            x       y       z     vdW  Elec       q    Type
REMARK                         _______ _______ _______ _____ _____    ______ ____
ROOT
ATOM      1  C   UNL     1      -4.258  -0.397   1.616  0.00  0.00    +0.106 A 
ATOM      2  C   UNL     1      -5.024  -0.287   0.470  0.00  0.00    +0.030 A 
ATOM      3  C   UNL     1      -4.663   0.615  -0.510  0.00  0.00    +0.025 A 
ATOM      4  C   UNL     1      -3.535   1.409  -0.343  0.00  0.00    +0.031 A 
ATOM      5  C   UNL     1      -2.765   1.304   0.805  0.00  0.00    -0.018 A 
ATOM      6  C   UNL     1      -3.139   0.392   1.783  0.00  0.00    +0.034 A 
ATOM      7  C   UNL     1      -1.547   2.141   1.031  0.00  0.00    +0.049 C 
ATOM      8  C   UNL     1      -0.282   1.339   0.838  0.00  0.00    -0.023 C 
ATOM      9  C   UNL     1       0.647   2.081   0.287  0.00  0.00    -0.030 C 
ATOM     10  C   UNL     1       0.128   3.485   0.042  0.00  0.00    +0.033 C 
ATOM     11  C   UNL     1      -1.418   3.300   0.024  0.00  0.00    +0.029 C 
ATOM     12  C   UNL     1      -1.803   2.818  -1.378  0.00  0.00    +0.108 C 
ATOM     13  N   UNL     1      -3.181   2.318  -1.346  0.00  0.00    -0.336 N 
ATOM     14  H   UNL     1      -3.907   2.658  -2.099  0.00  0.00    +0.147 HD
ENDROOT
BRANCH  12  15
ATOM     15  C   UNL     1      -0.874   1.711  -1.804  0.00  0.00    +0.015 A 
ATOM     16  C   UNL     1      -1.167   0.400  -1.482  0.00  0.00    +0.009 A 
ATOM     17  C   UNL     1      -0.312  -0.616  -1.868  0.00  0.00    +0.001 A 
ATOM     18  C   UNL     1       0.832  -0.324  -2.587  0.00  0.00    +0.004 A 
ATOM     19  C   UNL     1       1.127   0.985  -2.917  0.00  0.00    +0.046 A 
ATOM     20  C   UNL     1       0.274   2.006  -2.526  0.00  0.00    +0.126 A 
BRANCH  20  21
ATOM     21  O   UNL     1       0.562   3.295  -2.849  0.00  0.00    -0.487 OA
BRANCH  21  22
ATOM     22  C   UNL     1       1.760   3.525  -3.592  0.00  0.00    +0.264 C 
BRANCH  22  23
ATOM     23  C   UNL     1       1.912   5.001  -3.856  0.00  0.00    -0.010 A 
ATOM     24  C   UNL     1       1.375   5.557  -5.002  0.00  0.00    +0.007 A 
ATOM     25  C   UNL     1       1.510   6.912  -5.241  0.00  0.00    +0.000 A 
ATOM     26  C   UNL     1       2.192   7.708  -4.340  0.00  0.00    +0.000 A 
ATOM     27  C   UNL     1       2.733   7.151  -3.196  0.00  0.00    +0.000 A 
ATOM     28  C   UNL     1       2.593   5.797  -2.955  0.00  0.00    +0.007 A 
ENDBRANCH  22  23
ENDBRANCH  21  22
ENDBRANCH  20  21
ENDBRANCH  12  15
BRANCH   1  29
ATOM     29  S   UNL     1      -4.715  -1.549   2.869  0.00  0.00    +0.059 S 
ATOM     30  O   UNL     1      -4.366  -0.956   4.112  0.00  0.00    -0.153 OA
ATOM     31  O   UNL     1      -6.038  -1.970   2.571  0.00  0.00    -0.153 OA
BRANCH  29  32
ATOM     32  N   UNL     1      -3.743  -2.878   2.690  0.00  0.00    -0.185 NA
ATOM     33  H   UNL     1      -3.131  -3.215   3.540  0.00  0.00    +0.149 HD
BRANCH  32  35
ATOM     34  C   UNL     1      -3.723  -2.848   0.244  0.00  0.00    +0.029 C 
ATOM     35  C   UNL     1      -3.863  -3.717   1.495  0.00  0.00    +0.032 C 
ATOM     36  C   UNL     1      -2.761  -4.779   1.505  0.00  0.00    +0.029 C 
ATOM     37  C   UNL     1      -5.231  -4.402   1.489  0.00  0.00    +0.029 C 
ENDBRANCH  32  35
ENDBRANCH  29  32
ENDBRANCH   1  29
TORSDOF 7
