REMARK  Name = ZINC59829746
REMARK  10 active torsions:
REMARK  status: ('A' for Active; 'I' for Inactive)
REMARK    1  A    between atoms: C_1  and  C_2
REMARK    2  A    between atoms: C_2  and  C_27
REMARK    3  A    between atoms: N_3  and  N_4
REMARK    4  A    between atoms: C_8  and  S_11
REMARK    5  A    between atoms: N_9  and  N_10
REMARK    6  A    between atoms: S_11  and  C_12
REMARK    7  A    between atoms: C_12  and  C_13
REMARK    8  A    between atoms: N_15  and  C_16
REMARK    9  A    between atoms: C_17  and  C_25
REMARK   10  A    between atoms: C_32  and  O_33
REMARK                            x       y       z     vdW  Elec       q    Type
REMARK                         _______ _______ _______ _____ _____    ______ ____
ROOT
ATOM      1  N   UNL     1       0.024   0.035   2.340  0.00  0.00    -0.204 N 
ATOM      2  C   UNL     1       0.045  -0.665   3.538  0.00  0.00    +0.254 A 
ATOM      3  N   UNL     1       0.069  -1.970   3.668  0.00  0.00    -0.109 NA
ATOM      4  N   UNL     1       0.084  -2.268   5.036  0.00  0.00    -0.119 NA
ATOM      5  C   UNL     1       0.068  -1.136   5.698  0.00  0.00    +0.210 A 
ATOM      6  N   UNL     1       0.049  -0.116   4.790  0.00  0.00    -0.211 N 
ATOM      7  H   UNL     1       0.011   1.004   2.345  0.00  0.00    +0.178 HD
ENDROOT
BRANCH   1  10
ATOM      8  C   UNL     1      -0.018   1.503   0.010  0.00  0.00    +0.068 C 
ATOM      9  C   UNL     1       0.002  -0.004   0.002  0.00  0.00    +0.067 C 
ATOM     10  N   UNL     1       0.022  -0.659   1.123  0.00  0.00    -0.184 NA
BRANCH   9  11
ATOM     11  C   UNL     1      -0.000  -0.734  -1.278  0.00  0.00    +0.039 A 
ATOM     12  C   UNL     1      -0.015  -0.033  -2.486  0.00  0.00    +0.013 A 
ATOM     13  C   UNL     1      -0.017  -0.722  -3.681  0.00  0.00    +0.001 A 
ATOM     14  C   UNL     1      -0.005  -2.107  -3.688  0.00  0.00    +0.004 A 
ATOM     15  C   UNL     1       0.010  -2.812  -2.499  0.00  0.00    +0.046 A 
ATOM     16  C   UNL     1       0.019  -2.135  -1.290  0.00  0.00    +0.126 A 
BRANCH  16  17
ATOM     17  O   UNL     1       0.040  -2.827  -0.122  0.00  0.00    -0.506 OA
ATOM     18  H   UNL     1      -0.837  -3.040   0.225  0.00  0.00    +0.292 HD
ENDBRANCH  16  17
ENDBRANCH   9  11
ENDBRANCH   1  10
BRANCH   6  19
ATOM     19  N   UNL     1       0.034   1.218   5.081  0.00  0.00    -0.294 N 
ATOM     20  H   UNL     1      -0.912   1.559   5.167  0.00  0.00    +0.163 HD
ATOM     21  H   UNL     1       0.565   1.412   5.917  0.00  0.00    +0.163 HD
ENDBRANCH   6  19
BRANCH   5  22
ATOM     22  S   UNL     1       0.075  -0.961   7.452  0.00  0.00    -0.075 S 
BRANCH  22  23
ATOM     23  C   UNL     1       0.111  -2.669   8.063  0.00  0.00    +0.173 C 
BRANCH  23  24
ATOM     24  C   UNL     1       0.120  -2.663   9.570  0.00  0.00    +0.228 C 
ATOM     25  O   UNL     1       0.105  -1.611  10.172  0.00  0.00    -0.275 OA
ATOM     26  N   UNL     1       0.146  -3.828  10.248  0.00  0.00    -0.278 N 
ATOM     27  H   UNL     1       0.158  -4.669   9.766  0.00  0.00    +0.155 HD
BRANCH  26  28
ATOM     28  C   UNL     1       0.154  -3.822  11.636  0.00  0.00    +0.090 A 
ATOM     29  C   UNL     1       0.185  -4.911  12.491  0.00  0.00    +0.084 A 
ATOM     30  C   UNL     1       0.189  -4.636  13.917  0.00  0.00    -0.018 A 
ATOM     31  C   UNL     1       0.160  -3.321  14.226  0.00  0.00    -0.004 A 
ATOM     32  S   UNL     1       0.137  -2.494  12.663  0.00  0.00    -0.077 S 
ATOM     33  C   UNL     1       0.153  -2.720  15.598  0.00  0.00    +0.043 C 
ATOM     34  C   UNL     1      -0.197  -3.823  16.607  0.00  0.00    +0.005 C 
ATOM     35  C   UNL     1       0.667  -5.054  16.314  0.00  0.00    +0.005 C 
ATOM     36  C   UNL     1       0.222  -5.703  15.002  0.00  0.00    +0.037 C 
BRANCH  29  37
ATOM     37  C   UNL     1       0.213  -6.252  11.991  0.00  0.00    +0.102 C 
ATOM     38  N   UNL     1       0.235  -7.316  11.593  0.00  0.00    -0.191 NA
ENDBRANCH  29  37
ENDBRANCH  26  28
ENDBRANCH  23  24
ENDBRANCH  22  23
ENDBRANCH   5  22
TORSDOF 9
