REMARK  Name = ZINC14461007
REMARK  10 active torsions:
REMARK  status: ('A' for Active; 'I' for Inactive)
REMARK    1  A    between atoms: C_1  and  C_2
REMARK    2  A    between atoms: C_2  and  C_3
REMARK    3  A    between atoms: C_3  and  N_4
REMARK    4  A    between atoms: N_4  and  C_5
REMARK    5  A    between atoms: N_4  and  S_8
REMARK    6  A    between atoms: C_5  and  C_6
REMARK    7  A    between atoms: C_6  and  C_7
REMARK    8  A    between atoms: S_8  and  C_11
REMARK    9  A    between atoms: C_24  and  C_27
REMARK   10  A    between atoms: C_32  and  O_33
REMARK                            x       y       z     vdW  Elec       q    Type
REMARK                         _______ _______ _______ _____ _____    ______ ____
ROOT
ATOM      1  C   UNL     1       0.002  -0.004   0.002  0.00  0.00    +0.106 A 
ATOM      2  C   UNL     1      -0.017   1.379   0.010  0.00  0.00    +0.030 A 
ATOM      3  C   UNL     1       1.167   2.088   0.002  0.00  0.00    +0.025 A 
ATOM      4  C   UNL     1       2.385   1.420  -0.013  0.00  0.00    +0.031 A 
ATOM      5  C   UNL     1       2.396   0.021  -0.009  0.00  0.00    -0.018 A 
ATOM      6  C   UNL     1       1.209  -0.678  -0.007  0.00  0.00    +0.034 A 
ATOM      7  C   UNL     1       3.714  -0.651   0.016  0.00  0.00    +0.049 C 
ATOM      8  C   UNL     1       3.936  -2.029  -0.519  0.00  0.00    -0.023 C 
ATOM      9  C   UNL     1       5.165  -2.113  -1.012  0.00  0.00    -0.030 C 
ATOM     10  C   UNL     1       5.884  -0.771  -0.857  0.00  0.00    +0.033 C 
ATOM     11  C   UNL     1       4.704   0.209  -0.825  0.00  0.00    +0.029 C 
ATOM     12  C   UNL     1       4.893   1.494  -0.038  0.00  0.00    +0.108 C 
ATOM     13  N   UNL     1       3.572   2.162  -0.043  0.00  0.00    -0.336 N 
ATOM     14  H   UNL     1       3.529   3.130  -0.067  0.00  0.00    +0.147 HD
ENDROOT
BRANCH  12  15
ATOM     15  C   UNL     1       5.316   1.186   1.375  0.00  0.00    +0.015 A 
ATOM     16  C   UNL     1       4.363   1.039   2.365  0.00  0.00    +0.024 A 
ATOM     17  C   UNL     1       4.751   0.752   3.661  0.00  0.00    +0.018 A 
ATOM     18  C   UNL     1       6.093   0.621   3.971  0.00  0.00    +0.019 A 
ATOM     19  C   UNL     1       7.048   0.772   2.986  0.00  0.00    +0.047 A 
ATOM     20  C   UNL     1       6.662   1.055   1.684  0.00  0.00    +0.122 A 
ATOM     21 BR   UNL     1       3.445   0.546   5.013  0.00  0.00    -0.050 Br
BRANCH  20  22
ATOM     22  O   UNL     1       7.600   1.205   0.712  0.00  0.00    -0.506 OA
ATOM     23  H   UNL     1       7.916   2.113   0.607  0.00  0.00    +0.292 HD
ENDBRANCH  20  22
ENDBRANCH  12  15
BRANCH   1  24
ATOM     24  S   UNL     1      -1.512  -0.906   0.003  0.00  0.00    +0.061 S 
ATOM     25  O   UNL     1      -1.221  -2.187   0.546  0.00  0.00    -0.153 OA
ATOM     26  O   UNL     1      -2.496  -0.047   0.563  0.00  0.00    -0.153 OA
BRANCH  24  27
ATOM     27  N   UNL     1      -1.938  -1.148  -1.578  0.00  0.00    -0.177 NA
BRANCH  27  28
ATOM     28  C   UNL     1      -1.478  -2.345  -2.287  0.00  0.00    +0.109 C 
BRANCH  28  30
ATOM     29  C   UNL     1      -2.074  -4.679  -2.950  0.00  0.00    +0.005 C 
ATOM     30  C   UNL     1      -2.555  -3.429  -2.211  0.00  0.00    +0.014 C 
ENDBRANCH  28  30
ENDBRANCH  27  28
BRANCH  27  31
ATOM     31  C   UNL     1      -2.777  -0.165  -2.269  0.00  0.00    +0.109 C 
BRANCH  31  32
ATOM     32  C   UNL     1      -1.887   0.812  -3.040  0.00  0.00    +0.014 C 
ATOM     33  C   UNL     1      -2.763   1.838  -3.762  0.00  0.00    +0.005 C 
ENDBRANCH  31  32
ENDBRANCH  27  31
ENDBRANCH  24  27
ENDBRANCH   1  24
TORSDOF 8
