REMARK  Name = ZINC03040388
REMARK  14 active torsions:
REMARK  status: ('A' for Active; 'I' for Inactive)
REMARK    1  A    between atoms: C_1  and  C_2
REMARK    2  A    between atoms: C_2  and  C_3
REMARK    3  A    between atoms: C_3  and  N_4
REMARK    4  A    between atoms: N_4  and  C_5
REMARK    5  A    between atoms: N_4  and  C_8
REMARK    6  A    between atoms: C_5  and  C_6
REMARK    7  A    between atoms: C_6  and  C_7
REMARK    8  A    between atoms: C_8  and  C_9
REMARK    9  A    between atoms: C_9  and  C_10
REMARK   10  A    between atoms: C_10  and  N_11
REMARK   11  A    between atoms: C_12  and  C_14
REMARK   12  A    between atoms: N_20  and  C_30
REMARK   13  A    between atoms: C_30  and  C_31
REMARK   14  A    between atoms: C_34  and  C_37
REMARK                            x       y       z     vdW  Elec       q    Type
REMARK                         _______ _______ _______ _____ _____    ______ ____
ROOT
ATOM      1  C   UNL     1       6.168   0.144   3.047  0.00  0.00    +0.039 A 
ATOM      2  C   UNL     1       5.723   1.463   2.928  0.00  0.00    +0.014 A 
ATOM      3  C   UNL     1       4.850   1.800   1.919  0.00  0.00    +0.017 A 
ATOM      4  C   UNL     1       4.409   0.835   1.018  0.00  0.00    +0.034 A 
ATOM      5  C   UNL     1       4.848  -0.484   1.124  0.00  0.00    +0.051 A 
ATOM      6  C   UNL     1       5.727  -0.824   2.143  0.00  0.00    +0.037 A 
ATOM      7  N   UNL     1       4.438  -1.476   0.244  0.00  0.00    -0.262 N 
ATOM      8  C   UNL     1       3.250  -1.763  -0.219  0.00  0.00    +0.252 C 
ATOM      9  O   UNL     1       3.197  -2.720  -0.967  0.00  0.00    -0.270 OA
ATOM     10  C   UNL     1       1.977  -1.093   0.038  0.00  0.00    +0.051 A 
ATOM     11  C   UNL     1       0.832  -1.863   0.281  0.00  0.00    +0.014 A 
ATOM     12  C   UNL     1      -0.376  -1.250   0.530  0.00  0.00    +0.001 A 
ATOM     13  C   UNL     1      -0.473   0.132   0.542  0.00  0.00    +0.001 A 
ATOM     14  C   UNL     1       0.643   0.907   0.303  0.00  0.00    +0.016 A 
ATOM     15  C   UNL     1       1.868   0.304   0.050  0.00  0.00    +0.025 A 
ATOM     16  S   UNL     1       3.289   1.299  -0.261  0.00  0.00    -0.087 S 
ENDROOT
BRANCH   1  18
ATOM     17  N   UNL     1       7.529   0.710   4.999  0.00  0.00    -0.311 N 
ATOM     18  C   UNL     1       7.103  -0.226   4.126  0.00  0.00    +0.244 C 
ATOM     19  O   UNL     1       7.490  -1.374   4.229  0.00  0.00    -0.270 OA
ATOM     20  H   UNL     1       7.179   1.748   4.905  0.00  0.00    +0.149 HD
BRANCH  17  21
ATOM     21  C   UNL     1       8.457   0.343   6.071  0.00  0.00    +0.102 C 
BRANCH  21  22
ATOM     22  C   UNL     1       8.778   1.579   6.913  0.00  0.00    +0.000 C 
BRANCH  22  23
ATOM     23  C   UNL     1       9.748   1.196   8.033  0.00  0.00    -0.077 C 
BRANCH  23  24
ATOM     24  N   UNL     1      10.056   2.383   8.841  0.00  0.00    +0.380 N 
ATOM     25  H   UNL     1      10.380   3.183   8.158  0.00  0.00    -0.082 HD
BRANCH  24  26
ATOM     26  C   UNL     1       8.864   2.857   9.557  0.00  0.00    -0.079 C 
BRANCH  26  28
ATOM     27  C   UNL     1       7.103   2.230  11.214  0.00  0.00    +0.002 C 
ATOM     28  C   UNL     1       8.409   1.787  10.552  0.00  0.00    -0.022 C 
ENDBRANCH  26  28
ENDBRANCH  24  26
BRANCH  24  29
ATOM     29  C   UNL     1      11.159   2.113   9.774  0.00  0.00    -0.079 C 
BRANCH  29  30
ATOM     30  C   UNL     1      11.702   3.436  10.317  0.00  0.00    -0.022 C 
ATOM     31  C   UNL     1      12.931   3.163  11.187  0.00  0.00    +0.002 C 
ENDBRANCH  29  30
ENDBRANCH  24  29
ENDBRANCH  23  24
ENDBRANCH  22  23
ENDBRANCH  21  22
ENDBRANCH  17  21
ENDBRANCH   1  18
BRANCH   7  32
ATOM     32  C   UNL     1       5.512  -2.344  -0.245  0.00  0.00    +0.149 C 
BRANCH  32  33
ATOM     33  C   UNL     1       6.127  -1.735  -1.479  0.00  0.00    -0.030 A 
ATOM     34  C   UNL     1       5.625  -2.048  -2.728  0.00  0.00    +0.005 A 
ATOM     35  C   UNL     1       6.186  -1.486  -3.860  0.00  0.00    +0.003 A 
ATOM     36  C   UNL     1       7.255  -0.618  -3.742  0.00  0.00    -0.050 A 
ATOM     37  C   UNL     1       7.760  -0.308  -2.494  0.00  0.00    +0.003 A 
ATOM     38  C   UNL     1       7.197  -0.867  -1.362  0.00  0.00    +0.005 A 
ATOM     39  C   UNL     1       7.869  -0.008  -4.976  0.00  0.00    +0.044 C 
ENDBRANCH  32  33
ENDBRANCH   7  32
TORSDOF 11
