REMARK  Name = ZINC35774572
REMARK  6 active torsions:
REMARK  status: ('A' for Active; 'I' for Inactive)
REMARK    1  A    between atoms: C_6  and  C_7
REMARK    2  A    between atoms: C_7  and  N_8
REMARK    3  A    between atoms: C_9  and  C_11
REMARK    4  A    between atoms: C_11  and  C_13
REMARK    5  A    between atoms: C_11  and  N_18
REMARK    6  A    between atoms: C_24  and  C_26
REMARK                            x       y       z     vdW  Elec       q    Type
REMARK                         _______ _______ _______ _____ _____    ______ ____
ROOT
ATOM      1  C   UNL     1      -4.176  -1.772  -4.173  0.00  0.00    +0.146 C 
ENDROOT
BRANCH   1   2
ATOM      2  N   UNL     1      -5.336  -2.604  -3.825  0.00  0.00    -0.288 NA
ATOM      3  C   UNL     1      -6.217  -1.908  -2.878  0.00  0.00    +0.104 C 
ATOM      4  C   UNL     1      -7.498  -2.727  -2.681  0.00  0.00    +0.123 C 
ATOM      5  N   UNL     1      -7.122  -4.095  -2.292  0.00  0.00    -0.295 N 
ATOM      6  C   UNL     1      -6.136  -4.808  -3.118  0.00  0.00    +0.123 C 
ATOM      7  C   UNL     1      -4.910  -3.907  -3.298  0.00  0.00    +0.104 C 
ATOM      8  C   UNL     1      -7.668  -4.679  -1.207  0.00  0.00    +0.248 C 
ATOM      9  O   UNL     1      -7.271  -5.768  -0.839  0.00  0.00    -0.270 OA
BRANCH   8  10
ATOM     10  C   UNL     1      -8.748  -3.998  -0.466  0.00  0.00    +0.055 A 
ATOM     11  C   UNL     1      -9.832  -3.446  -1.154  0.00  0.00    +0.016 A 
ATOM     12  C   UNL     1     -10.837  -2.812  -0.456  0.00  0.00    +0.021 A 
ATOM     13  C   UNL     1     -10.775  -2.719   0.925  0.00  0.00    +0.042 A 
ATOM     14  C   UNL     1      -9.704  -3.263   1.614  0.00  0.00    +0.040 A 
ATOM     15  C   UNL     1      -8.694  -3.907   0.928  0.00  0.00    +0.054 A 
ATOM     16 CL   UNL     1      -7.356  -4.596   1.793  0.00  0.00    -0.083 Cl
ATOM     17 CL   UNL     1     -12.045  -1.917   1.795  0.00  0.00    -0.083 Cl
ENDBRANCH   8  10
ENDBRANCH   1   2
BRANCH   1  18
ATOM     18  C   UNL     1      -4.656  -0.392  -4.626  0.00  0.00    +0.015 C 
ATOM     19  C   UNL     1      -5.578  -0.530  -5.855  0.00  0.00    +0.005 C 
ATOM     20  C   UNL     1      -5.225   0.696  -6.734  0.00  0.00    +0.000 C 
ATOM     21  C   UNL     1      -3.691   0.816  -6.554  0.00  0.00    +0.000 C 
ATOM     22  C   UNL     1      -3.457   0.464  -5.070  0.00  0.00    +0.005 C 
ENDBRANCH   1  18
BRANCH   1  24
ATOM     23  N   UNL     1      -1.964  -1.406  -3.127  0.00  0.00    -0.310 N 
ATOM     24  C   UNL     1      -3.285  -1.623  -2.967  0.00  0.00    +0.231 C 
ATOM     25  O   UNL     1      -3.756  -1.698  -1.852  0.00  0.00    -0.274 OA
ATOM     26  H   UNL     1      -1.575  -1.419  -4.016  0.00  0.00    +0.149 HD
BRANCH  23  27
ATOM     27  C   UNL     1      -1.117  -1.150  -1.960  0.00  0.00    +0.139 C 
BRANCH  27  33
ATOM     28  C   UNL     1       0.752   0.329  -2.723  0.00  0.00    +0.009 A 
ATOM     29  C   UNL     1       2.057   0.525  -3.135  0.00  0.00    +0.050 A 
ATOM     30  C   UNL     1       2.922  -0.552  -3.235  0.00  0.00    +0.166 A 
ATOM     31  C   UNL     1       2.473  -1.833  -2.919  0.00  0.00    +0.167 A 
ATOM     32  C   UNL     1       1.165  -2.022  -2.507  0.00  0.00    +0.054 A 
ATOM     33  C   UNL     1       0.307  -0.942  -2.409  0.00  0.00    -0.027 A 
ATOM     34  O   UNL     1       3.502  -2.712  -3.096  0.00  0.00    -0.453 OA
ATOM     35  C   UNL     1       4.464  -2.018  -3.913  0.00  0.00    +0.466 C 
ATOM     36  O   UNL     1       4.232  -0.629  -3.610  0.00  0.00    -0.453 OA
ENDBRANCH  27  33
ENDBRANCH  23  27
ENDBRANCH   1  24
TORSDOF 6
