REMARK  Name = ZINC21370484
REMARK  4 active torsions:
REMARK  status: ('A' for Active; 'I' for Inactive)
REMARK    1  A    between atoms: C_3  and  N_8
REMARK    2  A    between atoms: C_12  and  S_13
REMARK    3  A    between atoms: S_13  and  C_14
REMARK    4  A    between atoms: C_14  and  C_15
REMARK                            x       y       z     vdW  Elec       q    Type
REMARK                         _______ _______ _______ _____ _____    ______ ____
ROOT
ATOM      1  N   UNL     1       1.315  -0.393  -0.013  0.00  0.00    -0.277 N 
ATOM      2  C   UNL     1       0.002  -0.004   0.002  0.00  0.00    +0.230 A 
ATOM      3  N   UNL     1      -0.016   1.299   0.009  0.00  0.00    -0.137 NA
ATOM      4  N   UNL     1       1.185   1.758   0.000  0.00  0.00    -0.122 NA
ATOM      5  C   UNL     1       2.043   0.765  -0.013  0.00  0.00    +0.196 A 
ENDROOT
BRANCH   1   8
ATOM      6  C   UNL     1       3.255  -3.372  -0.967  0.00  0.00    +0.003 A 
ATOM      7  C   UNL     1       2.765  -2.080  -0.960  0.00  0.00    +0.026 A 
ATOM      8  C   UNL     1       1.810  -1.706  -0.025  0.00  0.00    +0.051 A 
ATOM      9  C   UNL     1       1.342  -2.634   0.895  0.00  0.00    +0.046 A 
ATOM     10  C   UNL     1       1.832  -3.926   0.881  0.00  0.00    +0.043 A 
ATOM     11  C   UNL     1       2.788  -4.295  -0.050  0.00  0.00    +0.020 A 
ATOM     12 CL   UNL     1       1.247  -5.088   2.030  0.00  0.00    -0.083 Cl
ENDBRANCH   1   8
BRANCH   5  13
ATOM     13  S   UNL     1       3.800   0.898  -0.030  0.00  0.00    -0.081 S 
BRANCH  13  14
ATOM     14  C   UNL     1       3.979   2.700  -0.022  0.00  0.00    +0.114 C 
BRANCH  14  15
ATOM     15  C   UNL     1       5.442   3.059  -0.035  0.00  0.00    -0.019 A 
ATOM     16  C   UNL     1       6.101   3.231  -1.238  0.00  0.00    +0.009 A 
ATOM     17  C   UNL     1       7.442   3.562  -1.251  0.00  0.00    +0.039 A 
ATOM     18  C   UNL     1       8.128   3.722  -0.059  0.00  0.00    +0.125 A 
ATOM     19  C   UNL     1       7.468   3.549   1.146  0.00  0.00    +0.058 A 
ATOM     20  C   UNL     1       6.124   3.223   1.158  0.00  0.00    +0.048 A 
ATOM     21 CL   UNL     1       5.294   3.014   2.668  0.00  0.00    -0.083 Cl
ATOM     22  F   UNL     1       9.439   4.045  -0.071  0.00  0.00    -0.205 F 
ENDBRANCH  14  15
ENDBRANCH  13  14
ENDBRANCH   5  13
TORSDOF 4
