REMARK  Name = ZINC16461248
REMARK  12 active torsions:
REMARK  status: ('A' for Active; 'I' for Inactive)
REMARK    1  A    between atoms: C_1  and  C_2
REMARK    2  A    between atoms: C_2  and  C_3
REMARK    3  A    between atoms: C_3  and  C_5
REMARK    4  A    between atoms: C_3  and  N_6
REMARK    5  A    between atoms: C_7  and  C_9
REMARK    6  A    between atoms: C_12  and  C_14
REMARK    7  A    between atoms: C_14  and  S_15
REMARK    8  A    between atoms: S_15  and  C_16
REMARK    9  A    between atoms: C_19  and  C_29
REMARK   10  A    between atoms: N_20  and  C_21
REMARK   11  A    between atoms: C_26  and  O_27
REMARK   12  A    between atoms: O_27  and  C_28
REMARK                            x       y       z     vdW  Elec       q    Type
REMARK                         _______ _______ _______ _____ _____    ______ ____
ROOT
ATOM      1  C   UNL     1      -0.008   0.011   0.036  0.00  0.00    +0.197 A 
ATOM      2  N   UNL     1       1.244  -0.381  -0.035  0.00  0.00    -0.122 NA
ATOM      3  N   UNL     1       2.026   0.638  -0.062  0.00  0.00    -0.128 NA
ATOM      4  C   UNL     1       1.323   1.746  -0.010  0.00  0.00    +0.171 A 
ATOM      5  N   UNL     1      -0.004   1.379   0.054  0.00  0.00    -0.267 N 
ENDROOT
BRANCH   4   6
ATOM      6  C   UNL     1       1.853   3.125  -0.020  0.00  0.00    +0.038 A 
ATOM      7  C   UNL     1       1.394   4.059   0.911  0.00  0.00    +0.013 A 
ATOM      8  C   UNL     1       1.893   5.345   0.897  0.00  0.00    +0.001 A 
ATOM      9  C   UNL     1       2.847   5.710  -0.037  0.00  0.00    +0.001 A 
ATOM     10  C   UNL     1       3.306   4.791  -0.963  0.00  0.00    +0.021 A 
ATOM     11  C   UNL     1       2.820   3.498  -0.956  0.00  0.00    +0.052 A 
ATOM     12 CL   UNL     1       3.403   2.343  -2.113  0.00  0.00    -0.083 Cl
ENDBRANCH   4   6
BRANCH   5  13
ATOM     13  C   UNL     1      -1.117   2.230   0.119  0.00  0.00    +0.092 A 
ATOM     14  C   UNL     1      -1.682   2.545   1.346  0.00  0.00    +0.030 A 
ATOM     15  C   UNL     1      -2.778   3.383   1.407  0.00  0.00    +0.002 A 
ATOM     16  C   UNL     1      -3.316   3.910   0.247  0.00  0.00    +0.004 A 
ATOM     17  C   UNL     1      -2.759   3.601  -0.979  0.00  0.00    +0.048 A 
ATOM     18  C   UNL     1      -1.655   2.765  -1.049  0.00  0.00    +0.144 A 
BRANCH  18  19
ATOM     19  O   UNL     1      -1.103   2.465  -2.254  0.00  0.00    -0.493 OA
ATOM     20  C   UNL     1      -1.707   3.050  -3.409  0.00  0.00    +0.277 C 
ENDBRANCH  18  19
ENDBRANCH   5  13
BRANCH   1  21
ATOM     21  S   UNL     1      -1.428  -1.031   0.097  0.00  0.00    -0.079 S 
BRANCH  21  22
ATOM     22  C   UNL     1      -0.630  -2.654   0.033  0.00  0.00    +0.140 C 
BRANCH  22  26
ATOM     23  C   UNL     1      -3.215  -5.249  -0.688  0.00  0.00    +0.133 A 
ATOM     24  C   UNL     1      -3.457  -5.584   0.620  0.00  0.00    +0.080 A 
ATOM     25  S   UNL     1      -2.366  -4.525   1.456  0.00  0.00    -0.079 S 
ATOM     26  C   UNL     1      -1.681  -3.733   0.074  0.00  0.00    +0.089 A 
ATOM     27  N   UNL     1      -2.308  -4.300  -0.924  0.00  0.00    -0.239 NA
BRANCH  23  29
ATOM     28  N   UNL     1      -3.675  -5.562  -3.067  0.00  0.00    -0.308 N 
ATOM     29  C   UNL     1      -3.933  -5.910  -1.791  0.00  0.00    +0.263 C 
ATOM     30  O   UNL     1      -4.758  -6.770  -1.550  0.00  0.00    -0.269 OA
ATOM     31  H   UNL     1      -3.017  -4.876  -3.259  0.00  0.00    +0.149 HD
BRANCH  28  32
ATOM     32  C   UNL     1      -4.390  -6.219  -4.164  0.00  0.00    +0.070 C 
ATOM     33  C   UNL     1      -3.676  -7.521  -4.530  0.00  0.00    +0.028 C 
BRANCH  32  35
ATOM     34  C   UNL     1      -5.239  -4.044  -5.055  0.00  0.00    +0.005 C 
ATOM     35  C   UNL     1      -4.418  -5.293  -5.382  0.00  0.00    +0.018 C 
ENDBRANCH  32  35
ENDBRANCH  28  32
ENDBRANCH  23  29
ENDBRANCH  22  26
ENDBRANCH  21  22
ENDBRANCH   1  21
TORSDOF 9
