REMARK  Name = ZINC07278282
REMARK  4 active torsions:
REMARK  status: ('A' for Active; 'I' for Inactive)
REMARK    1  A    between atoms: C_1  and  C_2
REMARK    2  A    between atoms: C_5  and  C_8
REMARK    3  A    between atoms: C_10  and  C_13
REMARK    4  A    between atoms: C_13  and  N_14
REMARK                            x       y       z     vdW  Elec       q    Type
REMARK                         _______ _______ _______ _____ _____    ______ ____
ROOT
ATOM      1  N   UNL     1      -2.940   5.879   1.424  0.00  0.00    -0.218 N 
ATOM      2  C   UNL     1      -4.014   5.969   2.238  0.00  0.00    +0.251 C 
ATOM      3  O   UNL     1      -5.160   5.669   1.980  0.00  0.00    -0.272 OA
ATOM      4  C   UNL     1      -3.482   6.518   3.536  0.00  0.00    +0.138 C 
ATOM      5  C   UNL     1      -4.167   7.843   3.896  0.00  0.00    +0.045 C 
ATOM      6  C   UNL     1      -4.188   7.791   5.440  0.00  0.00    +0.038 C 
ATOM      7  C   UNL     1      -4.154   6.317   5.788  0.00  0.00    -0.042 A 
ATOM      8  C   UNL     1      -3.742   5.585   4.688  0.00  0.00    -0.012 A 
ATOM      9  C   UNL     1      -3.631   4.208   4.782  0.00  0.00    +0.006 A 
ATOM     10  C   UNL     1      -3.933   3.564   5.966  0.00  0.00    +0.000 A 
ATOM     11  C   UNL     1      -4.346   4.295   7.064  0.00  0.00    +0.000 A 
ATOM     12  C   UNL     1      -4.456   5.669   6.973  0.00  0.00    +0.004 A 
ATOM     13  N   UNL     1      -2.051   6.705   3.299  0.00  0.00    -0.281 N 
ATOM     14  C   UNL     1      -1.824   6.303   2.032  0.00  0.00    +0.310 C 
ATOM     15  O   UNL     1      -0.731   6.323   1.502  0.00  0.00    -0.252 OA
ATOM     16  H   UNL     1      -1.396   7.048   3.928  0.00  0.00    +0.152 HD
ENDROOT
BRANCH   1  17
ATOM     17  C   UNL     1      -2.990   5.386   0.045  0.00  0.00    +0.174 C 
BRANCH  17  20
ATOM     18  C   UNL     1      -1.306   2.116   0.020  0.00  0.00    +0.109 A 
ATOM     19  N   UNL     1      -1.536   3.422   0.028  0.00  0.00    -0.242 NA
ATOM     20  C   UNL     1      -2.759   3.897   0.036  0.00  0.00    +0.067 A 
ATOM     21  C   UNL     1      -3.818   3.044   0.035  0.00  0.00    +0.072 A 
ATOM     22  S   UNL     1      -2.972   1.468   0.016  0.00  0.00    -0.075 S 
BRANCH  18  27
ATOM     23  C   UNL     1       3.710  -0.705  -0.038  0.00  0.00    +0.044 C 
ATOM     24  C   UNL     1       2.396   0.034  -0.021  0.00  0.00    -0.050 A 
ATOM     25  C   UNL     1       1.208  -0.674  -0.013  0.00  0.00    +0.004 A 
ATOM     26  C   UNL     1       0.002  -0.004   0.002  0.00  0.00    +0.011 A 
ATOM     27  C   UNL     1      -0.017   1.391   0.010  0.00  0.00    +0.007 A 
ATOM     28  C   UNL     1       1.186   2.099   0.002  0.00  0.00    +0.011 A 
ATOM     29  C   UNL     1       2.385   1.417  -0.014  0.00  0.00    +0.004 A 
ENDBRANCH  18  27
ENDBRANCH  17  20
ENDBRANCH   1  17
TORSDOF 3
