REMARK  Name = ZINC21131323
REMARK  6 active torsions:
REMARK  status: ('A' for Active; 'I' for Inactive)
REMARK    1  A    between atoms: C_6  and  C_7
REMARK    2  A    between atoms: C_7  and  N_8
REMARK    3  A    between atoms: N_11  and  C_14
REMARK    4  A    between atoms: C_14  and  C_15
REMARK    5  A    between atoms: N_17  and  C_18
REMARK    6  A    between atoms: C_19  and  C_28
REMARK                            x       y       z     vdW  Elec       q    Type
REMARK                         _______ _______ _______ _____ _____    ______ ____
ROOT
ATOM      1  N   UNL     1      -1.728  -1.016  -1.372  0.00  0.00    +0.384 N 
ATOM      2  C   UNL     1      -2.039   0.265  -2.019  0.00  0.00    -0.063 C 
ATOM      3  C   UNL     1      -2.473   0.014  -3.465  0.00  0.00    +0.066 C 
ATOM      4  N   UNL     1      -3.656  -0.859  -3.474  0.00  0.00    -0.298 NA
ATOM      5  C   UNL     1      -3.366  -2.136  -2.807  0.00  0.00    +0.066 C 
ATOM      6  C   UNL     1      -2.925  -1.867  -1.367  0.00  0.00    -0.063 C 
ATOM      7  H   UNL     1      -0.989  -1.478  -1.880  0.00  0.00    -0.081 HD
ENDROOT
BRANCH   1   8
ATOM      8  C   UNL     1      -1.294  -0.774   0.010  0.00  0.00    -0.043 C 
BRANCH   8  14
ATOM      9  C   UNL     1      -0.017   1.378   0.010  0.00  0.00    +0.005 A 
ATOM     10  C   UNL     1       1.170   2.088   0.002  0.00  0.00    +0.050 A 
ATOM     11  C   UNL     1       2.380   1.416  -0.013  0.00  0.00    +0.166 A 
ATOM     12  C   UNL     1       2.399   0.023  -0.021  0.00  0.00    +0.166 A 
ATOM     13  C   UNL     1       1.207  -0.682  -0.014  0.00  0.00    +0.051 A 
ATOM     14  C   UNL     1       0.002  -0.004   0.002  0.00  0.00    -0.060 A 
ATOM     15  O   UNL     1       3.698  -0.395  -0.036  0.00  0.00    -0.453 OA
ATOM     16  C   UNL     1       4.466   0.750  -0.450  0.00  0.00    +0.466 C 
ATOM     17  O   UNL     1       3.668   1.870  -0.024  0.00  0.00    -0.453 OA
ENDBRANCH   8  14
ENDBRANCH   1   8
BRANCH   4  18
ATOM     18  C   UNL     1      -4.138  -1.077  -4.844  0.00  0.00    +0.180 C 
BRANCH  18  19
ATOM     19  C   UNL     1      -5.479  -1.765  -4.801  0.00  0.00    +0.232 C 
ATOM     20  O   UNL     1      -5.982  -2.045  -3.733  0.00  0.00    -0.274 OA
ATOM     21  N   UNL     1      -6.118  -2.068  -5.948  0.00  0.00    -0.278 N 
ATOM     22  H   UNL     1      -5.715  -1.844  -6.801  0.00  0.00    +0.155 HD
BRANCH  21  23
ATOM     23  C   UNL     1      -7.352  -2.701  -5.908  0.00  0.00    +0.090 A 
ATOM     24  C   UNL     1      -8.143  -3.091  -6.974  0.00  0.00    +0.084 A 
ATOM     25  C   UNL     1      -9.409  -3.743  -6.667  0.00  0.00    -0.018 A 
ATOM     26  C   UNL     1      -9.647  -3.878  -5.345  0.00  0.00    -0.004 A 
ATOM     27  S   UNL     1      -8.225  -3.177  -4.556  0.00  0.00    -0.077 S 
ATOM     28  C   UNL     1     -10.851  -4.481  -4.690  0.00  0.00    +0.043 C 
ATOM     29  C   UNL     1     -11.152  -5.837  -5.342  0.00  0.00    +0.005 C 
ATOM     30  C   UNL     1     -12.087  -5.611  -6.526  0.00  0.00    +0.001 C 
ATOM     31  C   UNL     1     -11.791  -4.264  -7.183  0.00  0.00    +0.005 C 
ATOM     32  C   UNL     1     -10.370  -4.241  -7.736  0.00  0.00    +0.037 C 
BRANCH  24  33
ATOM     33  C   UNL     1      -7.734  -2.861  -8.327  0.00  0.00    +0.102 C 
ATOM     34  N   UNL     1      -7.410  -2.679  -9.400  0.00  0.00    -0.191 NA
ENDBRANCH  24  33
ENDBRANCH  21  23
ENDBRANCH  18  19
ENDBRANCH   4  18
TORSDOF 6
