REMARK  Name = ZINC13122831
REMARK  4 active torsions:
REMARK  status: ('A' for Active; 'I' for Inactive)
REMARK    1  A    between atoms: C_1  and  C_2
REMARK    2  A    between atoms: N_4  and  C_5
REMARK    3  A    between atoms: C_9  and  C_11
REMARK    4  A    between atoms: C_13  and  C_21
REMARK                            x       y       z     vdW  Elec       q    Type
REMARK                         _______ _______ _______ _____ _____    ______ ____
ROOT
ATOM      1  C   UNL     1      -3.388  -5.051   0.166  0.00  0.00    +0.055 C 
ATOM      2  C   UNL     1      -3.264  -6.545   0.262  0.00  0.00    +0.091 C 
ATOM      3  C   UNL     1      -4.439  -7.151   1.038  0.00  0.00    +0.182 C 
ATOM      4  N   UNL     1      -5.663  -6.479   0.603  0.00  0.00    -0.219 N 
ATOM      5  C   UNL     1      -5.678  -5.184   0.163  0.00  0.00    +0.249 A 
ATOM      6  N   UNL     1      -6.919  -4.883  -0.132  0.00  0.00    -0.198 NA
ATOM      7  C   UNL     1      -7.702  -5.938   0.093  0.00  0.00    +0.247 A 
ATOM      8  N   UNL     1      -6.976  -6.936   0.540  0.00  0.00    -0.156 NA
ATOM      9  N   UNL     1      -4.541  -4.444   0.084  0.00  0.00    -0.215 NA
ENDROOT
BRANCH   1  14
ATOM     10  C   UNL     1      -1.081  -2.089   0.091  0.00  0.00    +0.034 A 
ATOM     11  C   UNL     1       0.157  -2.715   0.178  0.00  0.00    +0.023 A 
ATOM     12  C   UNL     1       0.238  -4.092   0.260  0.00  0.00    +0.002 A 
ATOM     13  C   UNL     1      -0.910  -4.857   0.256  0.00  0.00    +0.010 A 
ATOM     14  C   UNL     1      -2.161  -4.239   0.170  0.00  0.00    -0.002 A 
ATOM     15  C   UNL     1      -2.242  -2.845   0.092  0.00  0.00    +0.033 A 
BRANCH  10  19
ATOM     16  C   UNL     1      -2.194   1.470   0.609  0.00  0.00    +0.109 C 
ATOM     17  C   UNL     1      -2.169  -0.037   0.608  0.00  0.00    +0.214 C 
ATOM     18  O   UNL     1      -3.061  -0.658   1.146  0.00  0.00    -0.276 OA
ATOM     19  N   UNL     1      -1.156  -0.694   0.009  0.00  0.00    -0.286 N 
ATOM     20  H   UNL     1      -0.478  -0.200  -0.478  0.00  0.00    +0.155 HD
ENDBRANCH  10  19
ENDBRANCH   1  14
BRANCH   3  21
ATOM     21  C   UNL     1      -4.237  -6.937   2.516  0.00  0.00    +0.130 A 
ATOM     22  C   UNL     1      -4.136  -7.905   3.445  0.00  0.00    +0.047 A 
ATOM     23  C   UNL     1      -3.956  -7.262   4.690  0.00  0.00    +0.041 A 
ATOM     24  C   UNL     1      -3.957  -5.938   4.449  0.00  0.00    +0.195 A 
ATOM     25  O   UNL     1      -4.122  -5.748   3.130  0.00  0.00    -0.466 OA
ENDBRANCH   3  21
TORSDOF 3
