REMARK  Name = ZINC12389424
REMARK  6 active torsions:
REMARK  status: ('A' for Active; 'I' for Inactive)
REMARK    1  A    between atoms: C_1  and  C_2
REMARK    2  A    between atoms: C_5  and  N_8
REMARK    3  A    between atoms: C_18  and  S_20
REMARK    4  A    between atoms: S_20  and  C_21
REMARK    5  A    between atoms: C_21  and  C_22
REMARK    6  A    between atoms: N_24  and  C_25
REMARK                            x       y       z     vdW  Elec       q    Type
REMARK                         _______ _______ _______ _____ _____    ______ ____
ROOT
ATOM      1  N   UNL     1       0.002  -0.004   0.002  0.00  0.00    -0.214 N 
ATOM      2  C   UNL     1       1.303  -0.412  -0.013  0.00  0.00    +0.169 A 
ATOM      3  C   UNL     1       2.086   0.750  -0.014  0.00  0.00    +0.077 A 
ATOM      4  C   UNL     1       1.208   1.848   0.000  0.00  0.00    +0.148 A 
ATOM      5  N   UNL     1      -0.017   1.396   0.010  0.00  0.00    -0.172 NA
ATOM      6  C   UNL     1       3.548   0.604  -0.028  0.00  0.00    +0.113 C 
ATOM      7  C   UNL     1       5.769   1.567  -0.041  0.00  0.00    +0.115 C 
ATOM      8  C   UNL     1       6.191   0.276  -0.749  0.00  0.00    +0.040 C 
ATOM      9  C   UNL     1       5.506  -0.905  -0.052  0.00  0.00    +0.116 C 
ATOM     10  N   UNL     1       4.058  -0.678  -0.038  0.00  0.00    -0.266 N 
ATOM     11  C   UNL     1       3.204  -1.747  -0.036  0.00  0.00    +0.164 C 
ATOM     12  N   UNL     1       1.900  -1.613  -0.025  0.00  0.00    -0.206 NA
ATOM     13  N   UNL     1       4.271   1.737  -0.032  0.00  0.00    -0.372 N 
ATOM     14  H   UNL     1       3.829   2.664  -0.029  0.00  0.00    +0.161 HD
ENDROOT
BRANCH   1  19
ATOM     15  C   UNL     1      -4.549  -3.393   0.029  0.00  0.00    +0.044 C 
ATOM     16  C   UNL     1      -3.340  -2.493   0.022  0.00  0.00    -0.050 A 
ATOM     17  C   UNL     1      -3.367  -1.297   0.715  0.00  0.00    +0.005 A 
ATOM     18  C   UNL     1      -2.261  -0.470   0.711  0.00  0.00    +0.028 A 
ATOM     19  C   UNL     1      -1.121  -0.841   0.009  0.00  0.00    +0.068 A 
ATOM     20  C   UNL     1      -1.100  -2.040  -0.692  0.00  0.00    +0.028 A 
ATOM     21  C   UNL     1      -2.207  -2.865  -0.678  0.00  0.00    +0.005 A 
ENDBRANCH   1  19
BRANCH  11  22
ATOM     22  S   UNL     1       3.886  -3.372  -0.051  0.00  0.00    -0.081 S 
BRANCH  22  23
ATOM     23  C   UNL     1       2.364  -4.351  -0.043  0.00  0.00    +0.172 C 
BRANCH  23  24
ATOM     24  C   UNL     1       2.710  -5.818  -0.053  0.00  0.00    +0.223 C 
ATOM     25  O   UNL     1       3.871  -6.167  -0.066  0.00  0.00    -0.275 OA
ATOM     26  N   UNL     1       1.728  -6.742  -0.050  0.00  0.00    -0.318 N 
ATOM     27  C   UNL     1       2.065  -8.167  -0.060  0.00  0.00    +0.128 C 
ATOM     28  H   UNL     1       0.800  -6.463  -0.040  0.00  0.00    +0.148 HD
ENDBRANCH  23  24
ENDBRANCH  22  23
ENDBRANCH  11  22
TORSDOF 4
