REMARK  Name = ZINC39678238
REMARK  7 active torsions:
REMARK  status: ('A' for Active; 'I' for Inactive)
REMARK    1  A    between atoms: C_4  and  C_7
REMARK    2  A    between atoms: C_7  and  C_8
REMARK    3  A    between atoms: C_8  and  C_9
REMARK    4  A    between atoms: C_13  and  C_22
REMARK    5  A    between atoms: N_24  and  C_25
REMARK    6  A    between atoms: C_25  and  C_26
REMARK    7  A    between atoms: C_31  and  N_32
REMARK                            x       y       z     vdW  Elec       q    Type
REMARK                         _______ _______ _______ _____ _____    ______ ____
ROOT
ATOM      1  C   UNL     1       6.250  -2.067   1.232  0.00  0.00    +0.216 C 
ATOM      2  O   UNL     1       6.696  -2.661   0.273  0.00  0.00    -0.276 OA
ATOM      3  N   UNL     1       6.603  -2.439   2.479  0.00  0.00    -0.300 N 
ATOM      4  C   UNL     1       6.162  -1.846   3.763  0.00  0.00    +0.121 C 
ATOM      5  C   UNL     1       5.966  -3.055   4.705  0.00  0.00    +0.100 C 
ATOM      6  C   UNL     1       6.861  -4.159   4.118  0.00  0.00    -0.004 C 
ATOM      7  C   UNL     1       7.516  -3.539   2.875  0.00  0.00    +0.115 C 
ATOM      8  C   UNL     1       7.928  -4.568   5.129  0.00  0.00    -0.010 C 
ATOM      9  C   UNL     1       8.768  -5.707   4.545  0.00  0.00    -0.082 C 
ATOM     10  N   UNL     1       7.900  -6.848   4.231  0.00  0.00    +0.379 N 
ATOM     11  C   UNL     1       6.936  -6.472   3.189  0.00  0.00    -0.082 C 
ATOM     12  C   UNL     1       6.018  -5.365   3.716  0.00  0.00    -0.010 C 
ATOM     13  H   UNL     1       8.463  -7.618   3.903  0.00  0.00    -0.086 HD
ATOM     14  H   UNL     1       7.402  -7.129   5.062  0.00  0.00    -0.086 HD
ENDROOT
BRANCH   5  15
ATOM     15  C   UNL     1       6.406  -2.707   6.104  0.00  0.00    +0.218 C 
ATOM     16  O   UNL     1       7.423  -2.070   6.279  0.00  0.00    -0.275 OA
ATOM     17  N   UNL     1       5.670  -3.105   7.160  0.00  0.00    -0.311 N 
ATOM     18  H   UNL     1       4.857  -3.614   7.020  0.00  0.00    +0.149 HD
BRANCH  17  19
ATOM     19  C   UNL     1       6.098  -2.767   8.520  0.00  0.00    +0.141 C 
BRANCH  19  20
ATOM     20  C   UNL     1       5.109  -3.324   9.511  0.00  0.00    -0.009 A 
ATOM     21  C   UNL     1       4.146  -2.502  10.063  0.00  0.00    +0.007 A 
ATOM     22  C   UNL     1       3.239  -3.012  10.973  0.00  0.00    +0.000 A 
ATOM     23  C   UNL     1       3.291  -4.347  11.333  0.00  0.00    +0.002 A 
ATOM     24  C   UNL     1       4.251  -5.174  10.784  0.00  0.00    +0.023 A 
ATOM     25  C   UNL     1       5.161  -4.666   9.866  0.00  0.00    +0.034 A 
BRANCH  25  26
ATOM     26  N   UNL     1       6.130  -5.501   9.304  0.00  0.00    -0.330 N 
ATOM     27  C   UNL     1       7.436  -5.673   9.953  0.00  0.00    +0.105 C 
ATOM     28  C   UNL     1       7.693  -7.170  10.156  0.00  0.00    +0.019 C 
ATOM     29  C   UNL     1       7.558  -7.893   8.814  0.00  0.00    +0.003 C 
ATOM     30  C   UNL     1       6.135  -7.715   8.278  0.00  0.00    +0.019 C 
ATOM     31  C   UNL     1       5.859  -6.230   8.057  0.00  0.00    +0.105 C 
ENDBRANCH  25  26
ENDBRANCH  19  20
ENDBRANCH  17  19
ENDBRANCH   5  15
BRANCH   1  32
ATOM     32  C   UNL     1       5.301  -0.914   1.031  0.00  0.00    +0.100 C 
BRANCH  32  33
ATOM     33  C   UNL     1       5.068  -0.701  -0.466  0.00  0.00    +0.044 C 
BRANCH  33  37
ATOM     34  C   UNL     1       2.379   2.568  -1.040  0.00  0.00    +0.000 A 
ATOM     35  C   UNL     1       3.741   2.795  -0.984  0.00  0.00    +0.000 A 
ATOM     36  C   UNL     1       4.611   1.738  -0.798  0.00  0.00    +0.003 A 
ATOM     37  C   UNL     1       4.119   0.452  -0.668  0.00  0.00    -0.047 A 
ATOM     38  C   UNL     1       2.757   0.225  -0.724  0.00  0.00    +0.003 A 
ATOM     39  C   UNL     1       1.887   1.283  -0.911  0.00  0.00    +0.000 A 
ENDBRANCH  33  37
ENDBRANCH  32  33
ENDBRANCH   1  32
TORSDOF 7
