REMARK  Name = ZINC20255622
REMARK  13 active torsions:
REMARK  status: ('A' for Active; 'I' for Inactive)
REMARK    1  A    between atoms: C_1  and  C_2
REMARK    2  A    between atoms: C_2  and  O_3
REMARK    3  A    between atoms: O_3  and  C_4
REMARK    4  A    between atoms: C_4  and  C_6
REMARK    5  A    between atoms: C_7  and  C_35
REMARK    6  A    between atoms: C_9  and  S_22
REMARK    7  A    between atoms: C_10  and  C_20
REMARK    8  A    between atoms: C_11  and  C_13
REMARK    9  A    between atoms: S_22  and  C_23
REMARK   10  A    between atoms: C_23  and  C_24
REMARK   11  A    between atoms: N_26  and  C_27
REMARK   12  A    between atoms: C_31  and  O_33
REMARK   13  A    between atoms: O_33  and  C_34
REMARK                            x       y       z     vdW  Elec       q    Type
REMARK                         _______ _______ _______ _____ _____    ______ ____
ROOT
ATOM      1  C   UNL     1       1.857  12.490   0.304  0.00  0.00    +0.066 C 
ATOM      2  C   UNL     1       0.891  11.560   0.211  0.00  0.00    +0.016 C 
ATOM      3  N   UNL     1       1.153  10.244   0.471  0.00  0.00    -0.312 N 
ATOM      4  C   UNL     1       2.451   9.784   0.477  0.00  0.00    +0.080 C 
ATOM      5  C   UNL     1       3.490  10.653   0.587  0.00  0.00    +0.069 C 
ATOM      6  C   UNL     1       3.260  12.133   0.703  0.00  0.00    +0.102 C 
ATOM      7  C   UNL     1      -0.502  11.976  -0.186  0.00  0.00    +0.061 C 
ATOM      8  H   UNL     1       0.325   9.549   0.677  0.00  0.00    +0.152 HD
ENDROOT
BRANCH   6   9
ATOM      9  C   UNL     1       3.491  12.555   2.131  0.00  0.00    -0.016 A 
ATOM     10  C   UNL     1       2.708  12.030   3.143  0.00  0.00    +0.006 A 
ATOM     11  C   UNL     1       2.920  12.418   4.452  0.00  0.00    +0.000 A 
ATOM     12  C   UNL     1       3.915  13.329   4.752  0.00  0.00    +0.001 A 
ATOM     13  C   UNL     1       4.699  13.854   3.742  0.00  0.00    +0.020 A 
ATOM     14  C   UNL     1       4.490  13.463   2.431  0.00  0.00    +0.045 A 
ATOM     15 CL   UNL     1       5.479  14.117   1.163  0.00  0.00    -0.083 Cl
ENDBRANCH   6   9
BRANCH   1  16
ATOM     16  C   UNL     1       1.544  13.838   0.017  0.00  0.00    +0.338 C 
ATOM     17  O   UNL     1       0.413  14.145  -0.308  0.00  0.00    -0.245 OA
BRANCH  16  18
ATOM     18  O   UNL     1       2.501  14.786   0.105  0.00  0.00    -0.462 OA
BRANCH  18  20
ATOM     19  C   UNL     1       3.324  17.053  -0.045  0.00  0.00    +0.048 C 
ATOM     20  C   UNL     1       2.115  16.128  -0.199  0.00  0.00    +0.229 C 
ENDBRANCH  18  20
ENDBRANCH  16  18
ENDBRANCH   1  16
BRANCH   5  21
ATOM     21  C   UNL     1       4.831  10.149   0.588  0.00  0.00    +0.098 C 
ATOM     22  N   UNL     1       5.894   9.749   0.588  0.00  0.00    -0.191 NA
ENDBRANCH   5  21
BRANCH   4  23
ATOM     23  S   UNL     1       2.766   8.055   0.348  0.00  0.00    -0.100 S 
BRANCH  23  24
ATOM     24  C   UNL     1       1.070   7.433   0.242  0.00  0.00    +0.171 C 
BRANCH  24  25
ATOM     25  C   UNL     1       1.092   5.931   0.122  0.00  0.00    +0.227 C 
ATOM     26  O   UNL     1       2.151   5.339   0.109  0.00  0.00    -0.275 OA
ATOM     27  N   UNL     1      -0.064   5.245   0.028  0.00  0.00    -0.285 N 
ATOM     28  H   UNL     1      -1.020   5.785  -0.037  0.00  0.00    +0.155 HD
BRANCH  27  29
ATOM     29  C   UNL     1      -0.049   3.846   0.014  0.00  0.00    +0.037 A 
ATOM     30  C   UNL     1      -1.073   3.133   0.623  0.00  0.00    +0.023 A 
ATOM     31  C   UNL     1      -1.058   1.752   0.609  0.00  0.00    +0.005 A 
ATOM     32  C   UNL     1      -0.023   1.076  -0.010  0.00  0.00    +0.046 A 
ATOM     33  C   UNL     1       1.006   1.783  -0.615  0.00  0.00    +0.122 A 
ATOM     34  C   UNL     1       0.991   3.169  -0.609  0.00  0.00    +0.069 A 
BRANCH  33  35
ATOM     35  O   UNL     1       2.025   1.117  -1.219  0.00  0.00    -0.495 OA
ATOM     36  C   UNL     1       1.973  -0.311  -1.192  0.00  0.00    +0.277 C 
ENDBRANCH  33  35
ENDBRANCH  27  29
ENDBRANCH  24  25
ENDBRANCH  23  24
ENDBRANCH   4  23
TORSDOF 10
