REMARK  Name = ZINC20558208
REMARK  5 active torsions:
REMARK  status: ('A' for Active; 'I' for Inactive)
REMARK    1  A    between atoms: C_4  and  C_7
REMARK    2  A    between atoms: C_7  and  N_8
REMARK    3  A    between atoms: C_20  and  C_28
REMARK    4  A    between atoms: C_22  and  C_26
REMARK    5  A    between atoms: C_23  and  N_25
REMARK                            x       y       z     vdW  Elec       q    Type
REMARK                         _______ _______ _______ _____ _____    ______ ____
ROOT
ATOM      1  N   UNL     1      -1.139   1.830  -0.036  0.00  0.00    -0.198 N 
ATOM      2  C   UNL     1      -0.004   1.034  -0.237  0.00  0.00    +0.062 A 
ATOM      3  C   UNL     1      -0.167  -0.340  -0.359  0.00  0.00    +0.025 A 
ATOM      4  C   UNL     1       0.932  -1.155  -0.540  0.00  0.00    +0.002 A 
ATOM      5  C   UNL     1       2.201  -0.605  -0.598  0.00  0.00    +0.001 A 
ATOM      6  C   UNL     1       2.376   0.756  -0.481  0.00  0.00    +0.013 A 
ATOM      7  C   UNL     1       1.270   1.598  -0.302  0.00  0.00    +0.042 A 
ATOM      8  C   UNL     1       1.520   3.055  -0.200  0.00  0.00    +0.162 C 
ATOM      9  C   UNL     1       0.609   3.885   0.300  0.00  0.00    +0.141 C 
ATOM     10  S   UNL     1      -0.937   3.224   0.851  0.00  0.00    +0.076 S 
ATOM     11  O   UNL     1      -0.762   2.833   2.206  0.00  0.00    -0.150 OA
ATOM     12  O   UNL     1      -1.948   4.133   0.437  0.00  0.00    -0.150 OA
ATOM     13  C   UNL     1       0.860   5.364   0.408  0.00  0.00    +0.118 C 
ATOM     14  C   UNL     1       2.005   5.762  -0.483  0.00  0.00    +0.099 C 
ATOM     15  C   UNL     1       2.864   4.823  -0.952  0.00  0.00    +0.199 C 
ATOM     16  O   UNL     1       2.719   3.526  -0.635  0.00  0.00    -0.439 OA
ENDROOT
BRANCH  13  17
ATOM     17  C   UNL     1       1.194   5.712   1.836  0.00  0.00    -0.033 A 
ATOM     18  C   UNL     1       2.299   5.146   2.444  0.00  0.00    +0.006 A 
ATOM     19  C   UNL     1       2.609   5.469   3.752  0.00  0.00    +0.020 A 
ATOM     20  C   UNL     1       1.807   6.349   4.455  0.00  0.00    +0.041 A 
ATOM     21  C   UNL     1       0.698   6.910   3.848  0.00  0.00    +0.020 A 
ATOM     22  C   UNL     1       0.392   6.591   2.538  0.00  0.00    +0.006 A 
ATOM     23 CL   UNL     1       2.191   6.749   6.101  0.00  0.00    -0.084 Cl
ENDBRANCH  13  17
BRANCH  15  24
ATOM     24  N   UNL     1       3.901   5.205  -1.766  0.00  0.00    -0.328 N 
ATOM     25  H   UNL     1       4.603   4.451  -2.152  0.00  0.00    +0.145 HD
ATOM     26  H   UNL     1       4.029   6.264  -2.033  0.00  0.00    +0.145 HD
ENDBRANCH  15  24
BRANCH  14  27
ATOM     27  C   UNL     1       2.189   7.138  -0.837  0.00  0.00    +0.101 C 
ATOM     28  N   UNL     1       2.335   8.229  -1.117  0.00  0.00    -0.191 NA
ENDBRANCH  14  27
BRANCH   1  29
ATOM     29  C   UNL     1      -2.445   1.453  -0.583  0.00  0.00    +0.166 C 
BRANCH  29  33
ATOM     30  C   UNL     1      -2.704   2.721  -4.654  0.00  0.00    +0.000 A 
ATOM     31  C   UNL     1      -2.108   1.514  -4.343  0.00  0.00    +0.000 A 
ATOM     32  C   UNL     1      -2.023   1.104  -3.025  0.00  0.00    +0.005 A 
ATOM     33  C   UNL     1      -2.536   1.901  -2.019  0.00  0.00    -0.028 A 
ATOM     34  C   UNL     1      -3.137   3.106  -2.330  0.00  0.00    +0.005 A 
ATOM     35  C   UNL     1      -3.216   3.519  -3.647  0.00  0.00    +0.000 A 
ENDBRANCH  29  33
ENDBRANCH   1  29
TORSDOF 5
