REMARK  Name = ZINC62954999
REMARK  3 active torsions:
REMARK  status: ('A' for Active; 'I' for Inactive)
REMARK    1  A    between atoms: N_8  and  C_11
REMARK    2  A    between atoms: C_11  and  C_12
REMARK    3  A    between atoms: C_12  and  C_13
REMARK                            x       y       z     vdW  Elec       q    Type
REMARK                         _______ _______ _______ _____ _____    ______ ____
ROOT
ATOM      1  C   UNL     1      -0.019   1.536   0.011  0.00  0.00    +0.001 C 
ATOM      2  C   UNL     1       1.454   1.996  -0.001  0.00  0.00    +0.001 C 
ATOM      3  C   UNL     1       2.235   0.792   0.584  0.00  0.00    +0.007 C 
ATOM      4  C   UNL     1       1.482  -0.419  -0.004  0.00  0.00    -0.033 C 
ATOM      5  C   UNL     1       0.002  -0.004   0.002  0.00  0.00    +0.007 C 
ATOM      6  C   UNL     1       1.954  -0.689  -1.429  0.00  0.00    -0.012 C 
ATOM      7  C   UNL     1       1.244  -1.934  -1.970  0.00  0.00    -0.078 C 
ATOM      8  N   UNL     1       1.541  -3.083  -1.106  0.00  0.00    +0.380 N 
ATOM      9  C   UNL     1       0.997  -2.853   0.237  0.00  0.00    -0.078 C 
ATOM     10  C   UNL     1       1.695  -1.647   0.874  0.00  0.00    -0.012 C 
ATOM     11  H   UNL     1       2.541  -3.207  -1.046  0.00  0.00    -0.082 HD
ENDROOT
BRANCH   8  12
ATOM     12  C   UNL     1       0.935  -4.293  -1.677  0.00  0.00    -0.072 C 
BRANCH  12  13
ATOM     13  C   UNL     1       1.346  -5.510  -0.848  0.00  0.00    +0.052 C 
BRANCH  13  14
ATOM     14  C   UNL     1       0.724  -6.751  -1.434  0.00  0.00    +0.221 C 
ATOM     15  O   UNL     1       1.421  -7.689  -1.741  0.00  0.00    -0.301 OA
ENDBRANCH  13  14
ENDBRANCH  12  13
ENDBRANCH   8  12
TORSDOF 3
