REMARK  Name = ZINC20283678
REMARK  13 active torsions:
REMARK  status: ('A' for Active; 'I' for Inactive)
REMARK    1  A    between atoms: C_1  and  C_2
REMARK    2  A    between atoms: C_2  and  O_3
REMARK    3  A    between atoms: O_3  and  C_4
REMARK    4  A    between atoms: C_4  and  C_6
REMARK    5  A    between atoms: C_7  and  C_24
REMARK    6  A    between atoms: C_12  and  C_14
REMARK    7  A    between atoms: C_18  and  O_22
REMARK    8  A    between atoms: C_19  and  O_20
REMARK    9  A    between atoms: O_20  and  C_21
REMARK   10  A    between atoms: O_22  and  C_23
REMARK   11  A    between atoms: C_24  and  N_25
REMARK   12  A    between atoms: C_28  and  C_31
REMARK   13  A    between atoms: C_31  and  C_32
REMARK                            x       y       z     vdW  Elec       q    Type
REMARK                         _______ _______ _______ _____ _____    ______ ____
ROOT
ATOM      1  C   UNL     1       4.106  -0.888  -1.609  0.00  0.00    +0.076 C 
ATOM      2  C   UNL     1       5.337  -0.424  -1.916  0.00  0.00    +0.008 C 
ATOM      3  N   UNL     1       6.106   0.208  -0.981  0.00  0.00    -0.274 N 
ATOM      4  C   UNL     1       5.716   0.414   0.284  0.00  0.00    +0.304 C 
ATOM      5  O   UNL     1       6.472   0.986   1.046  0.00  0.00    -0.252 OA
ATOM      6  N   UNL     1       4.515   0.008   0.739  0.00  0.00    -0.288 N 
ATOM      7  C   UNL     1       3.609  -0.684  -0.192  0.00  0.00    +0.147 C 
ATOM      8  H   UNL     1       7.105   0.579  -1.250  0.00  0.00    +0.156 HD
ATOM      9  H   UNL     1       4.205   0.184   1.780  0.00  0.00    +0.151 HD
ENDROOT
BRANCH   7  10
ATOM     10  C   UNL     1       2.324   0.100  -0.259  0.00  0.00    +0.023 A 
ATOM     11  C   UNL     1       2.018   0.830  -1.393  0.00  0.00    +0.009 A 
ATOM     12  C   UNL     1       0.840   1.551  -1.457  0.00  0.00    +0.004 A 
ATOM     13  C   UNL     1      -0.037   1.544  -0.389  0.00  0.00    +0.049 A 
ATOM     14  C   UNL     1       0.263   0.815   0.750  0.00  0.00    +0.162 A 
ATOM     15  C   UNL     1       1.449   0.089   0.815  0.00  0.00    +0.167 A 
BRANCH  15  16
ATOM     16  O   UNL     1       1.749  -0.628   1.931  0.00  0.00    -0.491 OA
ATOM     17  C   UNL     1       1.204  -1.946   2.020  0.00  0.00    +0.277 C 
ENDBRANCH  15  16
BRANCH  14  18
ATOM     18  O   UNL     1      -0.599   0.808   1.802  0.00  0.00    -0.491 OA
ATOM     19  C   UNL     1      -1.796   1.576   1.665  0.00  0.00    +0.277 C 
ENDBRANCH  14  18
ENDBRANCH   7  10
BRANCH   1  20
ATOM     20  C   UNL     1       3.309  -1.541  -2.577  0.00  0.00    +0.339 C 
ATOM     21  O   UNL     1       3.102  -2.737  -2.489  0.00  0.00    -0.245 OA
BRANCH  20  22
ATOM     22  O   UNL     1       2.777  -0.839  -3.599  0.00  0.00    -0.462 OA
BRANCH  22  24
ATOM     23  C   UNL     1       1.654  -0.637  -5.730  0.00  0.00    +0.048 C 
ATOM     24  C   UNL     1       2.076  -1.579  -4.600  0.00  0.00    +0.229 C 
ENDBRANCH  22  24
ENDBRANCH  20  22
ENDBRANCH   1  20
BRANCH   2  25
ATOM     25  C   UNL     1       5.870  -0.605  -3.314  0.00  0.00    -0.026 C 
BRANCH  25  26
ATOM     26  N   UNL     1       6.069   0.710  -3.937  0.00  0.00    +0.383 N 
ATOM     27  C   UNL     1       4.787   1.399  -4.133  0.00  0.00    -0.078 C 
ATOM     28  C   UNL     1       5.043   2.818  -4.646  0.00  0.00    -0.015 C 
ATOM     29  C   UNL     1       5.812   2.746  -5.968  0.00  0.00    -0.010 C 
ATOM     30  C   UNL     1       7.121   1.982  -5.747  0.00  0.00    -0.015 C 
ATOM     31  C   UNL     1       6.805   0.587  -5.201  0.00  0.00    -0.078 C 
ATOM     32  H   UNL     1       6.677   1.321  -3.253  0.00  0.00    -0.081 HD
BRANCH  29  33
ATOM     33  C   UNL     1       6.124   4.162  -6.457  0.00  0.00    +0.038 C 
BRANCH  33  34
ATOM     34  C   UNL     1       4.837   4.872  -6.792  0.00  0.00    -0.047 A 
ATOM     35  C   UNL     1       4.319   4.798  -8.071  0.00  0.00    +0.003 A 
ATOM     36  C   UNL     1       3.137   5.446  -8.377  0.00  0.00    +0.000 A 
ATOM     37  C   UNL     1       2.477   6.175  -7.405  0.00  0.00    +0.000 A 
ATOM     38  C   UNL     1       2.998   6.253  -6.127  0.00  0.00    +0.000 A 
ATOM     39  C   UNL     1       4.178   5.602  -5.820  0.00  0.00    +0.003 A 
ENDBRANCH  33  34
ENDBRANCH  29  33
ENDBRANCH  25  26
ENDBRANCH   2  25
TORSDOF 10
