REMARK  Name = ZINC08686478
REMARK  11 active torsions:
REMARK  status: ('A' for Active; 'I' for Inactive)
REMARK    1  A    between atoms: C_1  and  C_2
REMARK    2  A    between atoms: C_5  and  C_7
REMARK    3  A    between atoms: C_7  and  C_9
REMARK    4  A    between atoms: C_7  and  N_18
REMARK    5  A    between atoms: N_11  and  C_12
REMARK    6  A    between atoms: N_18  and  C_19
REMARK    7  A    between atoms: C_19  and  C_20
REMARK    8  A    between atoms: C_24  and  O_26
REMARK    9  A    between atoms: O_26  and  C_27
REMARK   10  A    between atoms: C_28  and  C_30
REMARK   11  A    between atoms: C_30  and  C_31
REMARK                            x       y       z     vdW  Elec       q    Type
REMARK                         _______ _______ _______ _____ _____    ______ ____
ROOT
ATOM      1  N   UNL     1       2.707  -3.329  -0.603  0.00  0.00    -0.279 N 
ATOM      2  C   UNL     1       2.655  -3.996  -1.773  0.00  0.00    +0.221 C 
ATOM      3  O   UNL     1       1.604  -4.460  -2.160  0.00  0.00    -0.275 OA
ENDROOT
BRANCH   1   4
ATOM      4  C   UNL     1       1.524  -3.267   0.258  0.00  0.00    +0.228 C 
BRANCH   4   9
ATOM      5  C   UNL     1       2.093   1.278   2.369  0.00  0.00    +0.086 C 
ATOM      6  C   UNL     1       1.511   0.140   1.571  0.00  0.00    +0.102 A 
ATOM      7  C   UNL     1       0.357   0.173   0.879  0.00  0.00    +0.045 A 
ATOM      8  C   UNL     1       0.198  -1.101   0.288  0.00  0.00    +0.047 A 
ATOM      9  C   UNL     1       1.263  -1.837   0.653  0.00  0.00    +0.135 A 
ATOM     10  O   UNL     1       2.058  -1.078   1.426  0.00  0.00    -0.462 OA
ENDBRANCH   4   9
BRANCH   4  11
ATOM     11  C   UNL     1       1.760  -4.095   1.496  0.00  0.00    +0.241 C 
ATOM     12  O   UNL     1       2.867  -4.527   1.734  0.00  0.00    -0.273 OA
ATOM     13  N   UNL     1       0.740  -4.355   2.337  0.00  0.00    -0.311 N 
ATOM     14  H   UNL     1      -0.147  -4.009   2.147  0.00  0.00    +0.149 HD
BRANCH  13  15
ATOM     15  C   UNL     1       0.969  -5.159   3.540  0.00  0.00    +0.073 C 
ATOM     16  C   UNL     1       0.864  -6.644   3.188  0.00  0.00    +0.022 C 
ATOM     17  C   UNL     1       1.103  -7.485   4.444  0.00  0.00    +0.002 C 
ATOM     18  C   UNL     1       0.052  -7.135   5.499  0.00  0.00    +0.000 C 
ATOM     19  C   UNL     1       0.158  -5.650   5.851  0.00  0.00    +0.002 C 
ATOM     20  C   UNL     1      -0.082  -4.810   4.595  0.00  0.00    +0.022 C 
ENDBRANCH  13  15
ENDBRANCH   4  11
ENDBRANCH   1   4
BRANCH   1  21
ATOM     21  C   UNL     1       3.947  -2.664  -0.193  0.00  0.00    +0.144 C 
BRANCH  21  22
ATOM     22  C   UNL     1       4.238  -1.521  -1.131  0.00  0.00    -0.027 A 
ATOM     23  C   UNL     1       5.030  -1.727  -2.246  0.00  0.00    +0.005 A 
ATOM     24  C   UNL     1       5.299  -0.681  -3.108  0.00  0.00    +0.004 A 
ATOM     25  C   UNL     1       4.778   0.574  -2.858  0.00  0.00    +0.045 A 
ATOM     26  C   UNL     1       3.983   0.783  -1.740  0.00  0.00    +0.120 A 
ATOM     27  C   UNL     1       3.709  -0.270  -0.879  0.00  0.00    +0.050 A 
BRANCH  26  28
ATOM     28  O   UNL     1       3.469   2.016  -1.492  0.00  0.00    -0.495 OA
ATOM     29  C   UNL     1       3.788   3.052  -2.424  0.00  0.00    +0.277 C 
ENDBRANCH  26  28
ENDBRANCH  21  22
ENDBRANCH   1  21
BRANCH   2  30
ATOM     30  C   UNL     1       3.904  -4.166  -2.599  0.00  0.00    +0.133 C 
BRANCH  30  31
ATOM     31  C   UNL     1       3.668  -5.215  -3.655  0.00  0.00    -0.014 A 
ATOM     32  C   UNL     1       3.972  -6.519  -3.566  0.00  0.00    +0.087 A 
ATOM     33  N   UNL     1       3.612  -7.162  -4.720  0.00  0.00    -0.360 N 
ATOM     34  H   UNL     1       3.732  -8.109  -4.891  0.00  0.00    +0.165 HD
ATOM     35  C   UNL     1       3.054  -6.263  -5.602  0.00  0.00    +0.047 A 
ATOM     36  C   UNL     1       3.059  -5.006  -4.971  0.00  0.00    +0.003 A 
ATOM     37  C   UNL     1       2.543  -3.892  -5.635  0.00  0.00    +0.010 A 
ATOM     38  C   UNL     1       2.031  -4.030  -6.895  0.00  0.00    +0.001 A 
ATOM     39  C   UNL     1       2.020  -5.269  -7.519  0.00  0.00    +0.002 A 
ATOM     40  C   UNL     1       2.533  -6.380  -6.886  0.00  0.00    +0.026 A 
ENDBRANCH  30  31
ENDBRANCH   2  30
TORSDOF 9
