REMARK  Name = ZINC63695487
REMARK  8 active torsions:
REMARK  status: ('A' for Active; 'I' for Inactive)
REMARK    1  A    between atoms: C_1  and  C_2
REMARK    2  A    between atoms: C_5  and  N_8
REMARK    3  A    between atoms: C_13  and  C_15
REMARK    4  A    between atoms: N_17  and  C_18
REMARK    5  A    between atoms: C_18  and  C_19
REMARK    6  A    between atoms: N_23  and  C_25
REMARK    7  A    between atoms: C_25  and  C_26
REMARK    8  A    between atoms: C_25  and  C_27
REMARK                            x       y       z     vdW  Elec       q    Type
REMARK                         _______ _______ _______ _____ _____    ______ ____
ROOT
ATOM      1  N   UNL     1       0.057  -4.170  -0.021  0.00  0.00    -0.158 N 
ATOM      2  C   UNL     1       0.168  -4.841   1.143  0.00  0.00    +0.256 C 
ATOM      3  O   UNL     1       0.235  -4.237   2.193  0.00  0.00    -0.272 OA
ATOM      4  C   UNL     1       0.208  -6.351   1.128  0.00  0.00    +0.201 C 
ATOM      5  N   UNL     1      -0.518  -6.816  -0.063  0.00  0.00    -0.315 N 
ATOM      6  C   UNL     1      -0.322  -6.129  -1.265  0.00  0.00    +0.200 C 
ATOM      7  N   UNL     1      -0.046  -4.856  -1.236  0.00  0.00    -0.152 NA
ATOM      8  H   UNL     1      -1.117  -7.577  -0.016  0.00  0.00    +0.148 HD
ENDROOT
BRANCH   1  13
ATOM      9  C   UNL     1      -0.017   1.503   0.012  0.00  0.00    +0.044 C 
ATOM     10  C   UNL     1       0.003  -0.004   0.003  0.00  0.00    -0.050 A 
ATOM     11  C   UNL     1      -0.955  -0.703  -0.709  0.00  0.00    +0.005 A 
ATOM     12  C   UNL     1      -0.940  -2.083  -0.719  0.00  0.00    +0.026 A 
ATOM     13  C   UNL     1       0.039  -2.771  -0.013  0.00  0.00    +0.060 A 
ATOM     14  C   UNL     1       1.000  -2.066   0.701  0.00  0.00    +0.026 A 
ATOM     15  C   UNL     1       0.982  -0.685   0.703  0.00  0.00    +0.005 A 
ENDBRANCH   1  13
BRANCH   6  16
ATOM     16  C   UNL     1      -0.432  -6.837  -2.553  0.00  0.00    +0.278 C 
ATOM     17  O   UNL     1      -0.695  -8.024  -2.574  0.00  0.00    -0.267 OA
ATOM     18  N   UNL     1      -0.242  -6.169  -3.708  0.00  0.00    -0.309 N 
ATOM     19  H   UNL     1      -0.033  -5.222  -3.692  0.00  0.00    +0.149 HD
BRANCH  18  20
ATOM     20  C   UNL     1      -0.351  -6.873  -4.988  0.00  0.00    +0.106 C 
BRANCH  20  21
ATOM     21  C   UNL     1      -0.092  -5.892  -6.133  0.00  0.00    -0.011 C 
ATOM     22  C   UNL     1       1.357  -5.402  -6.069  0.00  0.00    +0.001 C 
ATOM     23  C   UNL     1       1.629  -4.483  -7.263  0.00  0.00    -0.018 C 
ATOM     24  C   UNL     1       1.329  -5.238  -8.560  0.00  0.00    -0.078 C 
ATOM     25  N   UNL     1      -0.078  -5.657  -8.572  0.00  0.00    +0.381 N 
ATOM     26  C   UNL     1      -0.328  -6.595  -7.472  0.00  0.00    -0.074 C 
ATOM     27  H   UNL     1      -0.670  -4.847  -8.464  0.00  0.00    -0.081 HD
BRANCH  25  28
ATOM     28  C   UNL     1      -0.380  -6.313  -9.852  0.00  0.00    -0.075 C 
ATOM     29  C   UNL     1      -1.847  -6.750  -9.866  0.00  0.00    -0.014 C 
ATOM     30  C   UNL     1      -0.129  -5.333 -10.999  0.00  0.00    -0.014 C 
ENDBRANCH  25  28
ENDBRANCH  20  21
ENDBRANCH  18  20
ENDBRANCH   6  16
TORSDOF 5
