REMARK  Name = ZINC63514845
REMARK  9 active torsions:
REMARK  status: ('A' for Active; 'I' for Inactive)
REMARK    1  A    between atoms: C_1  and  C_2
REMARK    2  A    between atoms: C_4  and  C_12
REMARK    3  A    between atoms: C_12  and  C_13
REMARK    4  A    between atoms: C_13  and  N_14
REMARK    5  A    between atoms: C_15  and  C_17
REMARK    6  A    between atoms: C_17  and  N_26
REMARK    7  A    between atoms: C_18  and  C_19
REMARK    8  A    between atoms: C_27  and  C_29
REMARK    9  A    between atoms: C_33  and  N_35
REMARK                            x       y       z     vdW  Elec       q    Type
REMARK                         _______ _______ _______ _____ _____    ______ ____
ROOT
ATOM      1  C   UNL     1      -7.119  -0.870  -2.283  0.00  0.00    +0.097 C 
ATOM      2  C   UNL     1      -6.804  -0.519  -3.552  0.00  0.00    +0.036 C 
ENDROOT
BRANCH   2   3
ATOM      3  C   UNL     1      -7.855  -0.449  -4.578  0.00  0.00    -0.023 A 
ATOM      4  C   UNL     1      -9.199  -0.356  -4.202  0.00  0.00    +0.009 A 
ATOM      5  C   UNL     1     -10.179  -0.290  -5.169  0.00  0.00    +0.020 A 
ATOM      6  C   UNL     1      -9.836  -0.315  -6.511  0.00  0.00    +0.041 A 
ATOM      7  C   UNL     1      -8.507  -0.408  -6.891  0.00  0.00    +0.020 A 
ATOM      8  C   UNL     1      -7.516  -0.469  -5.935  0.00  0.00    +0.009 A 
ATOM      9 CL   UNL     1     -11.076  -0.232  -7.722  0.00  0.00    -0.084 Cl
ENDBRANCH   2   3
BRANCH   1  11
ATOM     10  N   UNL     1      -4.855  -0.372  -1.518  0.00  0.00    -0.310 N 
ATOM     11  C   UNL     1      -6.101  -0.792  -1.225  0.00  0.00    +0.258 C 
ATOM     12  O   UNL     1      -6.385  -1.108  -0.085  0.00  0.00    -0.269 OA
ATOM     13  H   UNL     1      -4.629  -0.120  -2.427  0.00  0.00    +0.149 HD
BRANCH  10  14
ATOM     14  C   UNL     1      -3.841  -0.294  -0.464  0.00  0.00    +0.109 C 
BRANCH  14  15
ATOM     15  C   UNL     1      -2.524   0.209  -1.058  0.00  0.00    +0.052 C 
BRANCH  15  18
ATOM     16  C   UNL     1       0.009   2.183  -0.617  0.00  0.00    +0.035 C 
ATOM     17  C   UNL     1      -0.044   0.736  -0.124  0.00  0.00    +0.103 C 
ATOM     18  C   UNL     1      -1.481   0.289   0.027  0.00  0.00    -0.037 C 
ATOM     19  C   UNL     1      -1.641  -0.025   1.333  0.00  0.00    -0.001 A 
ATOM     20  C   UNL     1      -2.789  -0.515   2.105  0.00  0.00    +0.010 A 
ATOM     21  C   UNL     1      -2.640  -0.743   3.429  0.00  0.00    +0.001 A 
ATOM     22  C   UNL     1      -1.419  -0.523   4.082  0.00  0.00    +0.002 A 
ATOM     23  C   UNL     1      -0.320  -0.074   3.441  0.00  0.00    +0.026 A 
ATOM     24  C   UNL     1      -0.363   0.199   2.046  0.00  0.00    +0.043 A 
ATOM     25  N   UNL     1       0.553   0.634   1.212  0.00  0.00    -0.378 N 
ATOM     26  H   UNL     1       1.470   0.852   1.440  0.00  0.00    +0.160 HD
ENDBRANCH  15  18
ENDBRANCH  14  15
ENDBRANCH  10  14
ENDBRANCH   1  11
BRANCH   1  27
ATOM     27  N   UNL     1      -8.412  -1.307  -1.979  0.00  0.00    -0.277 N 
ATOM     28  C   UNL     1      -9.136  -0.667  -1.040  0.00  0.00    +0.248 C 
ATOM     29  O   UNL     1      -8.627   0.219  -0.380  0.00  0.00    -0.270 OA
ATOM     30  H   UNL     1      -8.788  -2.070  -2.445  0.00  0.00    +0.155 HD
BRANCH  28  31
ATOM     31  C   UNL     1     -10.547  -1.042  -0.811  0.00  0.00    +0.039 A 
ATOM     32  C   UNL     1     -11.100  -2.134  -1.483  0.00  0.00    +0.013 A 
ATOM     33  C   UNL     1     -12.417  -2.479  -1.265  0.00  0.00    +0.003 A 
ATOM     34  C   UNL     1     -13.191  -1.744  -0.384  0.00  0.00    +0.033 A 
ATOM     35  C   UNL     1     -12.650  -0.661   0.284  0.00  0.00    +0.127 A 
ATOM     36  C   UNL     1     -11.331  -0.309   0.081  0.00  0.00    +0.045 A 
BRANCH  35  37
ATOM     37  N   UNL     1     -13.486   0.120   1.224  0.00  0.00    +0.056 N 
ATOM     38  O   UNL     1     -14.640  -0.190   1.407  0.00  0.00    -0.126 OA
ATOM     39  O   UNL     1     -13.014   1.067   1.809  0.00  0.00    -0.126 OA
ENDBRANCH  35  37
ENDBRANCH  28  31
ENDBRANCH   1  27
TORSDOF 8
