REMARK  Name = ZINC14882533
REMARK  10 active torsions:
REMARK  status: ('A' for Active; 'I' for Inactive)
REMARK    1  A    between atoms: C_1  and  C_2
REMARK    2  A    between atoms: C_3  and  C_4
REMARK    3  A    between atoms: C_4  and  N_5
REMARK    4  A    between atoms: C_8  and  C_12
REMARK    5  A    between atoms: C_8  and  C_21
REMARK    6  A    between atoms: C_12  and  C_13
REMARK    7  A    between atoms: C_13  and  C_14
REMARK    8  A    between atoms: C_14  and  C_15
REMARK    9  A    between atoms: C_26  and  C_27
REMARK   10  A    between atoms: C_26  and  N_70
REMARK                            x       y       z     vdW  Elec       q    Type
REMARK                         _______ _______ _______ _____ _____    ______ ____
ROOT
ATOM      1  N   UNL     1       6.514   1.536   4.886  0.00  0.00    -0.212 N 
ATOM      2  C   UNL     1       6.185   0.454   4.152  0.00  0.00    +0.248 C 
ATOM      3  O   UNL     1       6.362  -0.710   4.443  0.00  0.00    -0.273 OA
ATOM      4  C   UNL     1       5.546   0.994   2.889  0.00  0.00    +0.115 C 
ATOM      5  N   UNL     1       5.593   2.455   3.074  0.00  0.00    -0.285 N 
ATOM      6  C   UNL     1       6.175   2.673   4.267  0.00  0.00    +0.310 C 
ATOM      7  O   UNL     1       6.370   3.779   4.732  0.00  0.00    -0.252 OA
ATOM      8  H   UNL     1       5.269   3.128   2.456  0.00  0.00    +0.151 HD
ENDROOT
BRANCH   4   9
ATOM      9  C   UNL     1       4.098   0.514   2.769  0.00  0.00    +0.018 C 
ATOM     10  C   UNL     1       3.300   0.987   3.987  0.00  0.00    -0.013 C 
ATOM     11  C   UNL     1       1.840   0.555   3.833  0.00  0.00    -0.078 C 
ATOM     12  C   UNL     1       2.004   0.656   1.417  0.00  0.00    -0.078 C 
ATOM     13  C   UNL     1       3.469   1.092   1.499  0.00  0.00    -0.013 C 
ATOM     14  N   UNL     1       1.286   1.164   2.605  0.00  0.00    +0.380 N 
ATOM     15  H   UNL     1       1.405   2.183   2.656  0.00  0.00    -0.082 HD
BRANCH  14  16
ATOM     16  C   UNL     1      -0.155   0.854   2.494  0.00  0.00    -0.075 C 
BRANCH  16  17
ATOM     17  C   UNL     1      -0.777   1.783   1.450  0.00  0.00    -0.024 C 
ATOM     18  C   UNL     1      -0.708   3.229   1.948  0.00  0.00    +0.006 C 
ATOM     19  C   UNL     1      -1.169   4.152   0.817  0.00  0.00    +0.027 C 
ATOM     20  C   UNL     1      -2.468   3.661   0.247  0.00  0.00    -0.031 C 
ATOM     21  C   UNL     1      -2.934   2.467   0.427  0.00  0.00    -0.031 C 
ATOM     22  C   UNL     1      -2.246   1.409   1.239  0.00  0.00    +0.028 C 
ENDBRANCH  16  17
ENDBRANCH  14  16
ENDBRANCH   4   9
BRANCH   1  23
ATOM     23  C   UNL     1       7.161   1.474   6.198  0.00  0.00    +0.206 C 
BRANCH  23  26
ATOM     24  C   UNL     1      11.251   1.520   5.715  0.00  0.00    +0.106 C 
ATOM     25  C   UNL     1       9.789   1.504   5.888  0.00  0.00    -0.104 C 
ATOM     26  C   UNL     1       8.623   1.491   6.026  0.00  0.00    -0.083 C 
ENDBRANCH  23  26
ENDBRANCH   1  23
BRANCH   4  27
ATOM     27  C   UNL     1       6.353   0.578   1.657  0.00  0.00    +0.036 C 
BRANCH  27  28
ATOM     28  C   UNL     1       7.794   1.071   1.802  0.00  0.00    +0.007 C 
BRANCH  28  29
ATOM     29  C   UNL     1       8.601   0.654   0.570  0.00  0.00    +0.035 C 
BRANCH  29  30
ATOM     30  C   UNL     1      10.021   1.139   0.713  0.00  0.00    -0.047 A 
ATOM     31  C   UNL     1      10.377   2.385   0.232  0.00  0.00    +0.003 A 
ATOM     32  C   UNL     1      11.679   2.832   0.367  0.00  0.00    +0.000 A 
ATOM     33  C   UNL     1      12.626   2.029   0.974  0.00  0.00    +0.000 A 
ATOM     34  C   UNL     1      12.271   0.780   1.449  0.00  0.00    +0.000 A 
ATOM     35  C   UNL     1      10.969   0.336   1.319  0.00  0.00    +0.003 A 
ENDBRANCH  29  30
ENDBRANCH  28  29
ENDBRANCH  27  28
ENDBRANCH   4  27
TORSDOF 9
