REMARK  Name = ZINC44879344
REMARK  12 active torsions:
REMARK  status: ('A' for Active; 'I' for Inactive)
REMARK    1  A    between atoms: C_1  and  C_2
REMARK    2  A    between atoms: C_2  and  C_3
REMARK    3  A    between atoms: C_3  and  C_5
REMARK    4  A    between atoms: C_3  and  N_24
REMARK    5  A    between atoms: N_7  and  C_8
REMARK    6  A    between atoms: C_8  and  C_9
REMARK    7  A    between atoms: C_12  and  C_15
REMARK    8  A    between atoms: C_15  and  N_16
REMARK    9  A    between atoms: C_20  and  C_23
REMARK   10  A    between atoms: N_24  and  C_25
REMARK   11  A    between atoms: N_24  and  S_32
REMARK   12  A    between atoms: S_32  and  C_35
REMARK                            x       y       z     vdW  Elec       q    Type
REMARK                         _______ _______ _______ _____ _____    ______ ____
ROOT
ATOM      1  C   UNL     1      -2.155  -2.510   0.165  0.00  0.00    +0.236 C 
ATOM      2  O   UNL     1      -2.532  -2.919   1.243  0.00  0.00    -0.274 OA
ATOM      3  N   UNL     1      -1.981  -3.368  -0.859  0.00  0.00    -0.310 N 
ATOM      4  H   UNL     1      -1.680  -3.041  -1.721  0.00  0.00    +0.149 HD
ENDROOT
BRANCH   1   5
ATOM      5  C   UNL     1      -1.882  -1.040  -0.029  0.00  0.00    +0.183 C 
BRANCH   5   7
ATOM      6  C   UNL     1      -0.089   0.696  -0.153  0.00  0.00    +0.006 C 
ATOM      7  C   UNL     1      -0.391  -0.767   0.177  0.00  0.00    +0.030 C 
ENDBRANCH   5   7
BRANCH   5   8
ATOM      8  N   UNL     1      -2.659  -0.266   0.943  0.00  0.00    -0.196 N 
BRANCH   8   9
ATOM      9  C   UNL     1      -2.476  -0.479   2.312  0.00  0.00    +0.052 A 
ATOM     10  C   UNL     1      -3.500  -1.027   3.073  0.00  0.00    +0.026 A 
ATOM     11  C   UNL     1      -3.316  -1.236   4.426  0.00  0.00    +0.022 A 
ATOM     12  C   UNL     1      -2.114  -0.900   5.023  0.00  0.00    +0.041 A 
ATOM     13  C   UNL     1      -1.092  -0.353   4.266  0.00  0.00    +0.022 A 
ATOM     14  C   UNL     1      -1.268  -0.147   2.912  0.00  0.00    +0.026 A 
ATOM     15 CL   UNL     1      -1.887  -1.163   6.723  0.00  0.00    -0.084 Cl
ENDBRANCH   8   9
BRANCH   8  16
ATOM     16  S   UNL     1      -3.754   0.860   0.418  0.00  0.00    +0.043 S 
ATOM     17  O   UNL     1      -3.941   1.727   1.528  0.00  0.00    -0.155 OA
ATOM     18  O   UNL     1      -3.214   1.350  -0.801  0.00  0.00    -0.155 OA
ATOM     19  C   UNL     1      -5.271  -0.080   0.096  0.00  0.00    +0.218 C 
ENDBRANCH   8  16
ENDBRANCH   5   8
ENDBRANCH   1   5
BRANCH   3  20
ATOM     20  C   UNL     1      -2.247  -4.797  -0.670  0.00  0.00    +0.139 C 
BRANCH  20  21
ATOM     21  C   UNL     1      -1.977  -5.532  -1.957  0.00  0.00    -0.030 A 
ATOM     22  C   UNL     1      -2.990  -5.697  -2.884  0.00  0.00    +0.005 A 
ATOM     23  C   UNL     1      -2.743  -6.372  -4.065  0.00  0.00    +0.002 A 
ATOM     24  C   UNL     1      -1.483  -6.881  -4.319  0.00  0.00    -0.064 A 
ATOM     25  C   UNL     1      -0.470  -6.716  -3.393  0.00  0.00    +0.002 A 
ATOM     26  C   UNL     1      -0.716  -6.037  -2.214  0.00  0.00    +0.005 A 
BRANCH  24  27
ATOM     27  C   UNL     1      -1.214  -7.618  -5.606  0.00  0.00    -0.043 C 
BRANCH  27  28
ATOM     28  N   UNL     1      -0.767  -6.665  -6.631  0.00  0.00    +0.383 N 
ATOM     29  C   UNL     1      -1.854  -5.726  -6.932  0.00  0.00    -0.078 C 
ATOM     30  C   UNL     1      -1.368  -4.682  -7.939  0.00  0.00    -0.018 C 
ATOM     31  C   UNL     1      -0.930  -5.387  -9.226  0.00  0.00    -0.001 C 
ATOM     32  C   UNL     1       0.152  -6.417  -8.889  0.00  0.00    -0.031 C 
ATOM     33  C   UNL     1      -0.391  -7.397  -7.847  0.00  0.00    -0.075 C 
ATOM     34  C   UNL     1       0.541  -7.182 -10.156  0.00  0.00    +0.005 C 
ATOM     35  H   UNL     1       0.032  -6.153  -6.288  0.00  0.00    -0.081 HD
ENDBRANCH  27  28
ENDBRANCH  24  27
ENDBRANCH  20  21
ENDBRANCH   3  20
TORSDOF 9
