REMARK  Name = ZINC01244900
REMARK  9 active torsions:
REMARK  status: ('A' for Active; 'I' for Inactive)
REMARK    1  A    between atoms: C_1  and  C_2
REMARK    2  A    between atoms: C_2  and  O_3
REMARK    3  A    between atoms: O_3  and  C_4
REMARK    4  A    between atoms: C_4  and  C_6
REMARK    5  A    between atoms: C_6  and  N_7
REMARK    6  A    between atoms: N_15  and  N_16
REMARK    7  A    between atoms: C_17  and  C_19
REMARK    8  A    between atoms: C_19  and  N_20
REMARK    9  A    between atoms: C_21  and  C_23
REMARK                            x       y       z     vdW  Elec       q    Type
REMARK                         _______ _______ _______ _____ _____    ______ ____
ROOT
ATOM      1  N   UNL     1       1.450  -3.817  -2.491  0.00  0.00    -0.255 N 
ATOM      2  C   UNL     1       2.438  -4.589  -1.890  0.00  0.00    +0.047 A 
ATOM      3  C   UNL     1       3.614  -4.238  -1.235  0.00  0.00    +0.024 A 
ATOM      4  C   UNL     1       4.438  -5.217  -0.719  0.00  0.00    +0.002 A 
ATOM      5  C   UNL     1       4.108  -6.556  -0.845  0.00  0.00    +0.001 A 
ATOM      6  C   UNL     1       2.945  -6.923  -1.491  0.00  0.00    +0.012 A 
ATOM      7  C   UNL     1       2.108  -5.944  -2.015  0.00  0.00    +0.028 A 
ATOM      8  C   UNL     1       0.822  -5.996  -2.748  0.00  0.00    +0.153 C 
ATOM      9  N   UNL     1       0.138  -7.061  -3.088  0.00  0.00    -0.174 NA
ATOM     10  C   UNL     1       0.474  -4.583  -3.006  0.00  0.00    +0.272 C 
ATOM     11  O   UNL     1      -0.519  -4.185  -3.586  0.00  0.00    -0.268 OA
ENDROOT
BRANCH   9  12
ATOM     12  N   UNL     1      -1.070  -6.926  -3.784  0.00  0.00    -0.205 N 
ATOM     13  C   UNL     1      -1.772  -8.022  -4.134  0.00  0.00    +0.249 C 
ATOM     14  O   UNL     1      -1.359  -9.124  -3.845  0.00  0.00    -0.272 OA
ATOM     15  H   UNL     1      -1.400  -6.044  -4.016  0.00  0.00    +0.177 HD
BRANCH  13  16
ATOM     16  C   UNL     1      -3.072  -7.876  -4.883  0.00  0.00    +0.202 C 
BRANCH  16  17
ATOM     17  N   UNL     1      -3.637  -9.203  -5.143  0.00  0.00    -0.303 N 
ATOM     18  C   UNL     1      -4.805  -9.320  -5.805  0.00  0.00    +0.245 C 
ATOM     19  O   UNL     1      -5.389  -8.325  -6.187  0.00  0.00    -0.270 OA
ATOM     20  H   UNL     1      -3.170  -9.997  -4.838  0.00  0.00    +0.150 HD
BRANCH  18  21
ATOM     21  C   UNL     1      -5.375 -10.658  -6.067  0.00  0.00    +0.050 A 
ATOM     22  C   UNL     1      -4.709 -11.803  -5.625  0.00  0.00    +0.014 A 
ATOM     23  C   UNL     1      -5.247 -13.049  -5.872  0.00  0.00    +0.001 A 
ATOM     24  C   UNL     1      -6.443 -13.166  -6.558  0.00  0.00    +0.001 A 
ATOM     25  C   UNL     1      -7.109 -12.037  -6.999  0.00  0.00    +0.015 A 
ATOM     26  C   UNL     1      -6.585 -10.783  -6.753  0.00  0.00    +0.025 A 
ATOM     27  I   UNL     1      -7.598  -9.073  -7.415  0.00  0.00    -0.043 I 
ENDBRANCH  18  21
ENDBRANCH  16  17
ENDBRANCH  13  16
ENDBRANCH   9  12
BRANCH   1  28
ATOM     28  C   UNL     1       1.468  -2.353  -2.550  0.00  0.00    +0.234 C 
BRANCH  28  29
ATOM     29  C   UNL     1       0.775  -1.794  -1.334  0.00  0.00    +0.325 C 
ATOM     30  O   UNL     1       0.314  -2.540  -0.504  0.00  0.00    -0.249 OA
BRANCH  29  31
ATOM     31  O   UNL     1       0.671  -0.465  -1.174  0.00  0.00    -0.464 OA
BRANCH  31  33
ATOM     32  C   UNL     1      -0.019   1.526   0.010  0.00  0.00    +0.048 C 
ATOM     33  C   UNL     1       0.002  -0.004   0.002  0.00  0.00    +0.229 C 
ENDBRANCH  31  33
ENDBRANCH  29  31
ENDBRANCH  28  29
ENDBRANCH   1  28
TORSDOF 8
