REMARK  Name = ZINC00944595
REMARK  5 active torsions:
REMARK  status: ('A' for Active; 'I' for Inactive)
REMARK    1  A    between atoms: C_1  and  C_2
REMARK    2  A    between atoms: C_3  and  S_17
REMARK    3  A    between atoms: C_4  and  C_16
REMARK    4  A    between atoms: C_7  and  C_9
REMARK    5  A    between atoms: S_17  and  C_18
REMARK                            x       y       z     vdW  Elec       q    Type
REMARK                         _______ _______ _______ _____ _____    ______ ____
ROOT
ATOM      1  C   UNL     1       0.116   1.500   0.000  0.00  0.00    +0.069 C 
ATOM      2  C   UNL     1       0.094  -0.007  -0.005  0.00  0.00    +0.074 A 
ATOM      3  C   UNL     1       0.079  -0.826  -1.149  0.00  0.00    +0.056 A 
ATOM      4  C   UNL     1       0.062  -2.117  -0.736  0.00  0.00    +0.059 A 
ATOM      5  N   UNL     1       0.066  -2.110   0.630  0.00  0.00    -0.199 N 
ATOM      6  N   UNL     1       0.092  -0.775   1.052  0.00  0.00    -0.168 NA
ATOM      7  C   UNL     1       0.052  -3.195   1.430  0.00  0.00    +0.279 C 
ATOM      8  O   UNL     1      -0.056  -4.304   0.946  0.00  0.00    -0.265 OA
ATOM      9  C   UNL     1       0.041  -3.336  -1.621  0.00  0.00    +0.067 C 
ENDROOT
BRANCH   7  10
ATOM     10  C   UNL     1       0.168  -3.036   2.893  0.00  0.00    +0.041 A 
ATOM     11  C   UNL     1       0.148  -1.761   3.463  0.00  0.00    +0.014 A 
ATOM     12  C   UNL     1       0.257  -1.619   4.830  0.00  0.00    +0.016 A 
ATOM     13  C   UNL     1       0.385  -2.737   5.638  0.00  0.00    +0.018 A 
ATOM     14  C   UNL     1       0.406  -4.003   5.078  0.00  0.00    +0.016 A 
ATOM     15  C   UNL     1       0.292  -4.160   3.713  0.00  0.00    +0.014 A 
ATOM     16 BR   UNL     1       0.534  -2.533   7.512  0.00  0.00    -0.050 Br
ENDBRANCH   7  10
BRANCH   3  17
ATOM     17  S   UNL     1       0.083  -0.271  -2.821  0.00  0.00    -0.086 S 
BRANCH  17  18
ATOM     18  C   UNL     1       1.793  -0.162  -3.231  0.00  0.00    +0.013 A 
ATOM     19  C   UNL     1       2.758  -0.496  -2.288  0.00  0.00    +0.015 A 
ATOM     20  C   UNL     1       4.097  -0.410  -2.613  0.00  0.00    +0.001 A 
ATOM     21  C   UNL     1       4.479   0.009  -3.875  0.00  0.00    +0.000 A 
ATOM     22  C   UNL     1       3.521   0.342  -4.816  0.00  0.00    +0.001 A 
ATOM     23  C   UNL     1       2.180   0.252  -4.500  0.00  0.00    +0.015 A 
ENDBRANCH  17  18
ENDBRANCH   3  17
TORSDOF 3
