REMARK  Name = ZINC59170358
REMARK  9 active torsions:
REMARK  status: ('A' for Active; 'I' for Inactive)
REMARK    1  A    between atoms: C_1  and  C_2
REMARK    2  A    between atoms: C_2  and  N_3
REMARK    3  A    between atoms: N_3  and  C_4
REMARK    4  A    between atoms: N_3  and  C_6
REMARK    5  A    between atoms: C_4  and  C_5
REMARK    6  A    between atoms: C_11  and  C_27
REMARK    7  A    between atoms: N_13  and  C_14
REMARK    8  A    between atoms: C_17  and  S_20
REMARK    9  A    between atoms: S_20  and  N_23
REMARK                            x       y       z     vdW  Elec       q    Type
REMARK                         _______ _______ _______ _____ _____    ______ ____
ROOT
ATOM      1  C   UNL     1       2.885  -0.713   0.097  0.00  0.00    +0.033 A 
ATOM      2  C   UNL     1       3.896  -0.501  -0.842  0.00  0.00    +0.024 A 
ATOM      3  C   UNL     1       5.198  -0.742  -0.520  0.00  0.00    +0.013 A 
ATOM      4  C   UNL     1       5.528  -1.217   0.759  0.00  0.00    +0.018 A 
ATOM      5  C   UNL     1       6.875  -1.505   1.093  0.00  0.00    +0.030 A 
ATOM      6  C   UNL     1       7.129  -2.157   2.292  0.00  0.00    +0.097 A 
ATOM      7  C   UNL     1       5.966  -2.532   3.119  0.00  0.00    +0.212 A 
ATOM      8  N   UNL     1       6.027  -3.537   3.966  0.00  0.00    -0.325 N 
ATOM      9  O   UNL     1       4.829  -1.802   2.976  0.00  0.00    -0.438 OA
ATOM     10  C   UNL     1       4.513  -1.402   1.719  0.00  0.00    +0.139 A 
ATOM     11  C   UNL     1       3.195  -1.155   1.377  0.00  0.00    +0.070 A 
ATOM     12  H   UNL     1       6.815  -4.102   3.991  0.00  0.00    +0.169 HD
ENDROOT
BRANCH   8  13
ATOM     13  C   UNL     1       4.981  -3.785   4.811  0.00  0.00    +0.042 A 
ATOM     14  C   UNL     1       4.367  -2.732   5.495  0.00  0.00    +0.027 A 
ATOM     15  C   UNL     1       3.312  -2.990   6.345  0.00  0.00    +0.030 A 
ATOM     16  C   UNL     1       2.861  -4.286   6.522  0.00  0.00    +0.105 A 
ATOM     17  C   UNL     1       3.465  -5.333   5.848  0.00  0.00    +0.030 A 
ATOM     18  C   UNL     1       4.517  -5.090   4.990  0.00  0.00    +0.027 A 
BRANCH  16  19
ATOM     19  S   UNL     1       1.513  -4.606   7.610  0.00  0.00    +0.056 S 
ATOM     20  O   UNL     1       1.635  -5.960   8.021  0.00  0.00    -0.153 OA
ATOM     21  O   UNL     1       1.476  -3.529   8.537  0.00  0.00    -0.153 OA
BRANCH  19  22
ATOM     22  N   UNL     1       0.125  -4.505   6.713  0.00  0.00    -0.204 NA
ATOM     23  H   UNL     1      -0.649  -5.038   6.955  0.00  0.00    +0.144 HD
ATOM     24  H   UNL     1       0.086  -3.915   5.944  0.00  0.00    +0.144 HD
ENDBRANCH  19  22
ENDBRANCH  16  19
ENDBRANCH   8  13
BRANCH   6  25
ATOM     25  C   UNL     1       8.503  -2.463   2.720  0.00  0.00    +0.247 C 
ATOM     26  O   UNL     1       8.706  -2.924   3.827  0.00  0.00    -0.270 OA
ATOM     27  N   UNL     1       9.536  -2.232   1.886  0.00  0.00    -0.325 N 
ATOM     28  H   UNL     1       9.382  -1.799   1.032  0.00  0.00    +0.145 HD
ATOM     29  H   UNL     1      10.433  -2.499   2.140  0.00  0.00    +0.145 HD
ENDBRANCH   6  25
BRANCH   1  30
ATOM     30  N   UNL     1       1.560  -0.475  -0.249  0.00  0.00    -0.330 N 
BRANCH  30  32
ATOM     31  C   UNL     1       1.243   1.521  -1.626  0.00  0.00    +0.024 C 
ATOM     32  C   UNL     1       1.228  -0.009  -1.598  0.00  0.00    +0.102 C 
ENDBRANCH  30  32
BRANCH  30  33
ATOM     33  C   UNL     1       0.496  -0.691   0.734  0.00  0.00    +0.102 C 
ATOM     34  C   UNL     1      -0.005  -2.133   0.636  0.00  0.00    +0.024 C 
ENDBRANCH  30  33
ENDBRANCH   1  30
TORSDOF 7
