REMARK  Name = ZINC15048701
REMARK  7 active torsions:
REMARK  status: ('A' for Active; 'I' for Inactive)
REMARK    1  A    between atoms: CB_1  and  CA_2
REMARK    2  A    between atoms: CA_2  and  C_4
REMARK    3  A    between atoms: CA_2  and  N_7
REMARK    4  A    between atoms: C_8  and  C_10
REMARK    5  A    between atoms: C_10  and  C_12
REMARK    6  A    between atoms: C_10  and  N_13
REMARK    7  A    between atoms: C_17  and  C_18
REMARK                            x       y       z     vdW  Elec       q    Type
REMARK                         _______ _______ _______ _____ _____    ______ ____
ROOT
ATOM      1  N   UNK A   0      -3.447  -0.376   2.886  0.00  0.00    -0.244 N 
ATOM      2  C   UNK A   0      -4.701  -0.022   3.108  0.00  0.00    +0.259 C 
ATOM      3  O   UNK A   0      -5.365   0.511   2.237  0.00  0.00    -0.269 OA
ATOM      4  C   UNK A   0      -5.254  -0.282   4.398  0.00  0.00    +0.077 C 
ATOM      5  C   UNK A   0      -6.502  -0.020   4.875  0.00  0.00    +0.030 C 
ATOM      6  S   UNK A   0      -3.862  -1.049   5.216  0.00  0.00    -0.061 S 
ATOM      7  C   UNK A   0      -2.712  -0.973   3.851  0.00  0.00    +0.121 C 
ATOM      8  S   UNK A   0      -1.091  -1.517   3.782  0.00  0.00    -0.027 S 
ENDROOT
BRANCH   5   9
ATOM      9  C   UNK A   0      -6.837  -0.341   6.262  0.00  0.00    +0.001 A 
ATOM     10  C   UNK A   0      -6.134  -1.153   7.107  0.00  0.00    +0.091 A 
ATOM     11  N   UNK A   0      -6.756  -1.207   8.312  0.00  0.00    -0.360 N 
ATOM     12  H   UNK A   0      -6.444  -1.720   9.074  0.00  0.00    +0.165 HD
ATOM     13  C   UNK A   0      -7.896  -0.429   8.301  0.00  0.00    +0.047 A 
ATOM     14  C   UNK A   0      -7.999   0.151   7.026  0.00  0.00    +0.007 A 
ATOM     15  C   UNK A   0      -9.062   0.999   6.729  0.00  0.00    +0.010 A 
ATOM     16  C   UNK A   0     -10.011   1.267   7.692  0.00  0.00    +0.001 A 
ATOM     17  C   UNK A   0      -9.909   0.697   8.952  0.00  0.00    +0.002 A 
ATOM     18  C   UNK A   0      -8.866  -0.150   9.258  0.00  0.00    +0.026 A 
ENDBRANCH   5   9
BRANCH   1  19
ATOM     19  C   UNK A   0      -2.847  -0.124   1.574  0.00  0.00    +0.165 C 
ATOM     20  C   UNK A   0      -2.411  -1.451   0.949  0.00  0.00    +0.038 C 
BRANCH  19  22
ATOM     21  N   ALA A   1      -0.932   1.143   0.654  0.00  0.00    -0.301 N 
ATOM     22  C   UNK A   0      -1.647   0.774   1.735  0.00  0.00    +0.234 C 
ATOM     23  O   UNK A   0      -1.325   1.164   2.837  0.00  0.00    -0.274 OA
ATOM     24  H   ALA A   1      -1.189   0.830  -0.228  0.00  0.00    +0.150 HD
BRANCH  21  26
ATOM     25  CB  ALA A   1      -0.220   3.476   0.825  0.00  0.00    +0.040 C 
ATOM     26  CA  ALA A   1       0.235   2.015   0.810  0.00  0.00    +0.183 C 
BRANCH  26  27
ATOM     27  C   ALA A   1       1.183   1.796  -0.341  0.00  0.00    +0.376 C 
ATOM     28  O   ALA A   1       2.299   2.287  -0.312  0.00  0.00    -0.244 OA
ATOM     29  OXT ALA A   1       0.835   1.129  -1.299  0.00  0.00    -0.244 OA
ENDBRANCH  26  27
ENDBRANCH  21  26
ENDBRANCH  19  22
ENDBRANCH   1  19
TORSDOF 5
