REMARK  Name = ZINC19926990
REMARK  6 active torsions:
REMARK  status: ('A' for Active; 'I' for Inactive)
REMARK    1  A    between atoms: C_1  and  C_2
REMARK    2  A    between atoms: C_2  and  C_25
REMARK    3  A    between atoms: N_3  and  N_4
REMARK    4  A    between atoms: C_5  and  C_7
REMARK    5  A    between atoms: C_8  and  C_18
REMARK    6  A    between atoms: C_18  and  N_19
REMARK                            x       y       z     vdW  Elec       q    Type
REMARK                         _______ _______ _______ _____ _____    ______ ____
ROOT
ATOM      1  C   UNL     1       4.653  -2.778   0.657  0.00  0.00    +0.154 A 
ATOM      2  C   UNL     1       4.860  -4.132   0.612  0.00  0.00    +0.079 A 
ATOM      3  N   UNL     1       6.149  -4.325   0.896  0.00  0.00    -0.135 NA
ATOM      4  N   UNL     1       6.717  -3.191   1.104  0.00  0.00    -0.058 NA
ATOM      5  N   UNL     1       5.872  -2.228   0.971  0.00  0.00    -0.183 N 
ATOM      6  C   UNL     1       6.147  -0.866   1.121  0.00  0.00    +0.241 A 
ATOM      7  C   UNL     1       7.471  -0.277   1.347  0.00  0.00    +0.206 A 
ATOM      8  N   UNL     1       7.334   1.017   1.436  0.00  0.00    -0.032 NA
ATOM      9  O   UNL     1       5.959   1.320   1.276  0.00  0.00    -0.239 OA
ATOM     10  N   UNL     1       5.271   0.098   1.077  0.00  0.00    -0.027 NA
ATOM     11  N   UNL     1       8.666  -0.979   1.450  0.00  0.00    -0.337 N 
ATOM     12  H   UNL     1       9.608  -0.437   1.622  0.00  0.00    +0.144 HD
ATOM     13  H   UNL     1       8.671  -2.075   1.361  0.00  0.00    +0.144 HD
ENDROOT
BRANCH   1  15
ATOM     14  N   UNL     1       3.174  -1.462  -0.772  0.00  0.00    -0.201 N 
ATOM     15  C   UNL     1       3.391  -2.062   0.415  0.00  0.00    +0.284 C 
ATOM     16  O   UNL     1       2.543  -2.012   1.286  0.00  0.00    -0.267 OA
ATOM     17  H   UNL     1       3.968  -1.444  -1.533  0.00  0.00    +0.178 HD
BRANCH  14  20
ATOM     18  C   UNL     1       2.682  -0.568  -3.333  0.00  0.00    +0.068 C 
ATOM     19  C   UNL     1       1.690  -0.374  -2.215  0.00  0.00    +0.063 C 
ATOM     20  N   UNL     1       1.936  -0.861  -1.037  0.00  0.00    -0.184 NA
BRANCH  19  21
ATOM     21  C   UNL     1       0.440   0.369  -2.459  0.00  0.00    -0.001 A 
ATOM     22  C   UNL     1       0.172   0.894  -3.726  0.00  0.00    +0.010 A 
ATOM     23  C   UNL     1      -1.000   1.587  -3.948  0.00  0.00    +0.002 A 
ATOM     24  C   UNL     1      -1.909   1.764  -2.919  0.00  0.00    +0.015 A 
ATOM     25  C   UNL     1      -1.652   1.243  -1.663  0.00  0.00    +0.018 A 
ATOM     26  C   UNL     1      -0.481   0.551  -1.425  0.00  0.00    +0.025 A 
ATOM     27 BR   UNL     1      -2.905   1.484  -0.268  0.00  0.00    -0.050 Br
ENDBRANCH  19  21
ENDBRANCH  14  20
ENDBRANCH   1  15
BRANCH   2  28
ATOM     28  C   UNL     1       3.835  -5.192   0.303  0.00  0.00    -0.018 C 
BRANCH  28  29
ATOM     29  N   UNL     1       3.813  -5.444  -1.144  0.00  0.00    +0.383 N 
ATOM     30  C   UNL     1       3.334  -4.265  -1.876  0.00  0.00    -0.078 C 
ATOM     31  C   UNL     1       3.462  -4.511  -3.381  0.00  0.00    -0.019 C 
ATOM     32  C   UNL     1       2.635  -5.742  -3.764  0.00  0.00    -0.004 C 
ATOM     33  C   UNL     1       3.121  -6.946  -2.952  0.00  0.00    -0.019 C 
ATOM     34  C   UNL     1       3.004  -6.629  -1.459  0.00  0.00    -0.078 C 
ATOM     35  H   UNL     1       4.844  -5.646  -1.470  0.00  0.00    -0.081 HD
ENDBRANCH  28  29
ENDBRANCH   2  28
TORSDOF 5
