REMARK  Name = ZINC27523010
REMARK  6 active torsions:
REMARK  status: ('A' for Active; 'I' for Inactive)
REMARK    1  A    between atoms: C_1  and  O_2
REMARK    2  A    between atoms: O_2  and  C_3
REMARK    3  A    between atoms: C_6  and  N_9
REMARK    4  A    between atoms: C_10  and  C_30
REMARK    5  A    between atoms: C_12  and  N_16
REMARK    6  A    between atoms: C_23  and  N_27
REMARK                            x       y       z     vdW  Elec       q    Type
REMARK                         _______ _______ _______ _____ _____    ______ ____
ROOT
ATOM      1  N   UNL     1      -1.058   8.701  -0.356  0.00  0.00    -0.260 N 
ATOM      2  C   UNL     1      -0.435   7.691  -1.219  0.00  0.00    +0.141 C 
ATOM      3  C   UNL     1      -0.270   6.911   0.090  0.00  0.00    +0.196 C 
ATOM      4  C   UNL     1      -0.935   8.051   0.822  0.00  0.00    +0.244 C 
ATOM      5  O   UNL     1      -1.231   8.285   1.975  0.00  0.00    -0.273 OA
ENDROOT
BRANCH   3   6
ATOM      6  N   UNL     1      -1.047   5.670   0.125  0.00  0.00    -0.220 N 
ATOM      7  C   UNL     1      -2.283   5.559   0.644  0.00  0.00    +0.255 C 
ATOM      8  O   UNL     1      -2.922   6.460   1.150  0.00  0.00    -0.270 OA
ATOM      9  C   UNL     1      -2.733   4.159   0.496  0.00  0.00    +0.052 A 
ATOM     10  C   UNL     1      -3.888   3.473   0.836  0.00  0.00    +0.014 A 
ATOM     11  C   UNL     1      -3.993   2.121   0.549  0.00  0.00    +0.003 A 
ATOM     12  C   UNL     1      -2.958   1.455  -0.080  0.00  0.00    +0.033 A 
ATOM     13  C   UNL     1      -1.795   2.128  -0.421  0.00  0.00    +0.139 A 
ATOM     14  C   UNL     1      -1.675   3.479  -0.140  0.00  0.00    +0.080 A 
ATOM     15  C   UNL     1      -0.618   4.489  -0.356  0.00  0.00    +0.257 C 
ATOM     16  O   UNL     1       0.459   4.287  -0.881  0.00  0.00    -0.269 OA
BRANCH  13  17
ATOM     17  N   UNL     1      -0.688   1.407  -1.089  0.00  0.00    +0.057 N 
ATOM     18  O   UNL     1      -0.796   0.219  -1.335  0.00  0.00    -0.126 OA
ATOM     19  O   UNL     1       0.329   2.003  -1.397  0.00  0.00    -0.126 OA
ENDBRANCH  13  17
ENDBRANCH   3   6
BRANCH   2  20
ATOM     20  C   UNL     1      -1.382   7.052  -2.202  0.00  0.00    -0.021 A 
ATOM     21  C   UNL     1      -2.746   7.212  -2.049  0.00  0.00    +0.009 A 
ATOM     22  C   UNL     1      -3.619   6.628  -2.948  0.00  0.00    +0.050 A 
ATOM     23  C   UNL     1      -3.127   5.880  -4.005  0.00  0.00    +0.166 A 
ATOM     24  C   UNL     1      -1.753   5.718  -4.159  0.00  0.00    +0.167 A 
ATOM     25  C   UNL     1      -0.884   6.311  -3.257  0.00  0.00    +0.055 A 
ATOM     26  O   UNL     1      -1.525   4.949  -5.263  0.00  0.00    -0.453 OA
ATOM     27  C   UNL     1      -2.780   4.303  -5.547  0.00  0.00    +0.466 C 
ATOM     28  O   UNL     1      -3.761   5.211  -5.012  0.00  0.00    -0.453 OA
ENDBRANCH   2  20
BRANCH   1  32
ATOM     29  C   UNL     1      -2.700  12.426  -1.260  0.00  0.00    +0.120 A 
ATOM     30  C   UNL     1      -2.693  11.971   0.051  0.00  0.00    +0.047 A 
ATOM     31  C   UNL     1      -2.149  10.737   0.351  0.00  0.00    +0.027 A 
ATOM     32  C   UNL     1      -1.610   9.952  -0.659  0.00  0.00    +0.037 A 
ATOM     33  C   UNL     1      -1.613  10.410  -1.970  0.00  0.00    +0.027 A 
ATOM     34  C   UNL     1      -2.162  11.642  -2.270  0.00  0.00    +0.047 A 
BRANCH  29  36
ATOM     35  C   UNL     1      -3.209  14.046  -2.925  0.00  0.00    +0.277 C 
ATOM     36  O   UNL     1      -3.235  13.640  -1.555  0.00  0.00    -0.495 OA
ENDBRANCH  29  36
ENDBRANCH   1  32
TORSDOF 5
