REMARK  Name = ZINC12653378
REMARK  5 active torsions:
REMARK  status: ('A' for Active; 'I' for Inactive)
REMARK    1  A    between atoms: C_1  and  C_2
REMARK    2  A    between atoms: C_2  and  N_3
REMARK    3  A    between atoms: C_18  and  C_24
REMARK    4  A    between atoms: C_24  and  C_26
REMARK    5  A    between atoms: C_29  and  N_32
REMARK                            x       y       z     vdW  Elec       q    Type
REMARK                         _______ _______ _______ _____ _____    ______ ____
ROOT
ATOM      1  N   UNL     1      -1.819   3.926  -0.589  0.00  0.00    -0.242 N 
ATOM      2  C   UNL     1      -0.588   4.357  -0.907  0.00  0.00    +0.228 C 
ATOM      3  O   UNL     1      -0.121   5.440  -0.628  0.00  0.00    -0.275 OA
ATOM      4  C   UNL     1       0.116   3.258  -1.675  0.00  0.00    +0.113 C 
ATOM      5  C   UNL     1       1.502   2.993  -1.093  0.00  0.00    +0.100 C 
ATOM      6  C   UNL     1       2.117   4.229  -0.491  0.00  0.00    -0.021 A 
ATOM      7  C   UNL     1       1.887   5.474  -1.029  0.00  0.00    +0.006 A 
ATOM      8  C   UNL     1       2.461   6.594  -0.451  0.00  0.00    +0.000 A 
ATOM      9  C   UNL     1       3.267   6.467   0.666  0.00  0.00    +0.001 A 
ATOM     10  C   UNL     1       3.507   5.223   1.214  0.00  0.00    +0.008 A 
ATOM     11  C   UNL     1       2.934   4.089   0.638  0.00  0.00    -0.019 A 
ATOM     12  C   UNL     1       3.189   2.752   1.212  0.00  0.00    +0.022 C 
ATOM     13  C   UNL     1       2.375   1.727   0.888  0.00  0.00    +0.054 C 
ATOM     14  C   UNL     1      -0.018   1.503   0.010  0.00  0.00    +0.141 C 
ATOM     15  C   UNL     1      -0.726   2.022  -1.257  0.00  0.00    +0.116 C 
ATOM     16  C   UNL     1      -2.036   2.630  -0.865  0.00  0.00    +0.228 C 
ATOM     17  O   UNL     1      -3.104   2.060  -0.798  0.00  0.00    -0.275 OA
ATOM     18  N   UNL     1       1.408   1.804  -0.280  0.00  0.00    -0.384 NA
ATOM     19  H   UNL     1       1.713   1.044  -0.899  0.00  0.00    +0.127 HD
ENDROOT
BRANCH   1  21
ATOM     20  C   UNL     1      -3.658   5.455  -1.101  0.00  0.00    +0.025 C 
ATOM     21  C   UNL     1      -2.837   4.794   0.008  0.00  0.00    +0.113 C 
ENDBRANCH   1  21
BRANCH  14  22
ATOM     22  C   UNL     1       0.002  -0.004   0.002  0.00  0.00    +0.183 C 
ATOM     23  O   UNL     1       1.029  -0.595  -0.257  0.00  0.00    -0.290 OA
BRANCH  22  24
ATOM     24  C   UNL     1      -1.224  -0.758   0.308  0.00  0.00    +0.019 A 
ATOM     25  C   UNL     1      -2.409  -0.080   0.613  0.00  0.00    +0.013 A 
ATOM     26  C   UNL     1      -3.554  -0.794   0.895  0.00  0.00    +0.033 A 
ATOM     27  C   UNL     1      -3.531  -2.178   0.885  0.00  0.00    +0.126 A 
ATOM     28  C   UNL     1      -2.362  -2.856   0.590  0.00  0.00    +0.033 A 
ATOM     29  C   UNL     1      -1.209  -2.157   0.301  0.00  0.00    +0.013 A 
BRANCH  27  30
ATOM     30  N   UNL     1      -4.764  -2.937   1.194  0.00  0.00    +0.056 N 
ATOM     31  O   UNL     1      -4.748  -4.154   1.187  0.00  0.00    -0.126 OA
ATOM     32  O   UNL     1      -5.796  -2.343   1.454  0.00  0.00    -0.126 OA
ENDBRANCH  27  30
ENDBRANCH  22  24
ENDBRANCH  14  22
TORSDOF 4
