REMARK  Name = ZINC67399716
REMARK  4 active torsions:
REMARK  status: ('A' for Active; 'I' for Inactive)
REMARK    1  A    between atoms: C_3  and  N_10
REMARK    2  A    between atoms: C_5  and  N_7
REMARK    3  A    between atoms: C_13  and  N_17
REMARK    4  A    between atoms: C_21  and  N_24
REMARK                            x       y       z     vdW  Elec       q    Type
REMARK                         _______ _______ _______ _____ _____    ______ ____
ROOT
ATOM      1  N   UNL     1       3.584   2.123  -0.021  0.00  0.00    -0.270 N 
ATOM      2  C   UNL     1       3.678   3.585  -0.115  0.00  0.00    +0.116 C 
ATOM      3  C   UNL     1       5.111   3.936   0.346  0.00  0.00    +0.048 C 
ATOM      4  C   UNL     1       5.872   2.628   0.030  0.00  0.00    +0.145 C 
ATOM      5  C   UNL     1       4.801   1.560   0.061  0.00  0.00    +0.237 C 
ATOM      6  O   UNL     1       5.011   0.368   0.146  0.00  0.00    -0.274 OA
ENDROOT
BRANCH   1   9
ATOM      7  C   UNL     1       1.207  -0.682  -0.026  0.00  0.00    +0.004 A 
ATOM      8  C   UNL     1       2.396   0.021  -0.035  0.00  0.00    +0.023 A 
ATOM      9  C   UNL     1       2.381   1.409  -0.013  0.00  0.00    +0.038 A 
ATOM     10  C   UNL     1       1.169   2.087   0.017  0.00  0.00    +0.056 A 
ATOM     11  C   UNL     1      -0.017   1.379   0.025  0.00  0.00    +0.128 A 
ATOM     12  C   UNL     1       0.002  -0.004   0.004  0.00  0.00    +0.033 A 
BRANCH  11  13
ATOM     13  N   UNL     1      -1.308   2.100   0.057  0.00  0.00    +0.056 N 
ATOM     14  O   UNL     1      -1.325   3.309   0.076  0.00  0.00    -0.126 OA
ATOM     15  O   UNL     1      -2.347   1.481   0.065  0.00  0.00    -0.126 OA
ENDBRANCH  11  13
ENDBRANCH   1   9
BRANCH   4  16
ATOM     16  N   UNL     1       6.890   2.365   1.056  0.00  0.00    -0.293 NA
ATOM     17  C   UNL     1       7.808   3.503   1.191  0.00  0.00    +0.085 C 
ATOM     18  C   UNL     1       8.760   3.256   2.364  0.00  0.00    +0.014 C 
ATOM     19  C   UNL     1       9.548   1.967   2.112  0.00  0.00    -0.013 C 
ATOM     20  C   UNL     1       8.567   0.806   1.927  0.00  0.00    -0.054 C 
ATOM     21  C   UNL     1       7.620   1.124   0.767  0.00  0.00    +0.070 C 
BRANCH  20  22
ATOM     22  N   UNL     1       9.313  -0.424   1.629  0.00  0.00    +0.382 N 
ATOM     23  C   UNL     1       8.370  -1.534   1.444  0.00  0.00    -0.078 C 
ATOM     24  C   UNL     1       9.137  -2.799   1.053  0.00  0.00    -0.019 C 
ATOM     25  C   UNL     1      10.129  -3.151   2.165  0.00  0.00    -0.004 C 
ATOM     26  C   UNL     1      11.060  -1.958   2.401  0.00  0.00    -0.019 C 
ATOM     27  C   UNL     1      10.223  -0.724   2.741  0.00  0.00    -0.078 C 
ATOM     28  H   UNL     1       9.848  -0.295   0.784  0.00  0.00    -0.081 HD
ENDBRANCH  20  22
ENDBRANCH   4  16
TORSDOF 4
