REMARK  Name = ZINC22214376
REMARK  9 active torsions:
REMARK  status: ('A' for Active; 'I' for Inactive)
REMARK    1  A    between atoms: C_1  and  C_2
REMARK    2  A    between atoms: N_13  and  C_28
REMARK    3  A    between atoms: C_14  and  S_16
REMARK    4  A    between atoms: S_16  and  C_17
REMARK    5  A    between atoms: C_17  and  C_18
REMARK    6  A    between atoms: C_18  and  C_20
REMARK    7  A    between atoms: C_23  and  O_27
REMARK    8  A    between atoms: C_25  and  O_26
REMARK    9  A    between atoms: C_28  and  C_29
REMARK                            x       y       z     vdW  Elec       q    Type
REMARK                         _______ _______ _______ _____ _____    ______ ____
ROOT
ATOM      1  C   UNL     1      -0.427   8.027   6.050  0.00  0.00    +0.008 C 
ATOM      2  C   UNL     1      -0.746   6.939   5.023  0.00  0.00    -0.009 C 
ATOM      3  C   UNL     1       0.558   6.362   4.465  0.00  0.00    +0.008 C 
ATOM      4  C   UNL     1       0.256   5.457   3.270  0.00  0.00    +0.037 C 
ATOM      5  C   UNL     1      -0.795   4.430   3.683  0.00  0.00    -0.023 A 
ATOM      6  C   UNL     1      -1.566   4.633   4.771  0.00  0.00    -0.004 A 
ATOM      7  S   UNL     1      -2.619   3.210   4.860  0.00  0.00    -0.073 S 
ATOM      8  C   UNL     1      -2.018   2.344   3.432  0.00  0.00    +0.117 A 
ATOM      9  C   UNL     1      -1.017   3.193   2.933  0.00  0.00    +0.076 A 
ATOM     10  C   UNL     1      -0.340   2.735   1.758  0.00  0.00    +0.263 A 
ATOM     11  O   UNL     1       0.547   3.404   1.256  0.00  0.00    -0.267 OA
ATOM     12  N   UNL     1      -0.698   1.558   1.213  0.00  0.00    -0.285 N 
ATOM     13  C   UNL     1      -1.685   0.794   1.765  0.00  0.00    +0.173 A 
ATOM     14  N   UNL     1      -2.322   1.190   2.849  0.00  0.00    -0.216 NA
ATOM     15  C   UNL     1      -1.536   5.809   5.699  0.00  0.00    +0.046 C 
ENDROOT
BRANCH  13  16
ATOM     16  S   UNL     1      -2.114  -0.743   1.018  0.00  0.00    -0.080 S 
BRANCH  16  17
ATOM     17  C   UNL     1      -3.426  -1.284   2.142  0.00  0.00    +0.157 C 
BRANCH  17  18
ATOM     18  C   UNL     1      -3.960  -2.617   1.687  0.00  0.00    +0.177 C 
ATOM     19  O   UNL     1      -3.499  -3.150   0.699  0.00  0.00    -0.291 OA
BRANCH  18  20
ATOM     20  C   UNL     1      -5.036  -3.270   2.437  0.00  0.00    +0.060 A 
ATOM     21  C   UNL     1      -5.567  -2.660   3.581  0.00  0.00    +0.018 A 
ATOM     22  C   UNL     1      -6.572  -3.268   4.275  0.00  0.00    +0.046 A 
ATOM     23  C   UNL     1      -7.071  -4.500   3.860  0.00  0.00    +0.120 A 
ATOM     24  C   UNL     1      -6.553  -5.121   2.732  0.00  0.00    +0.091 A 
ATOM     25  C   UNL     1      -5.537  -4.515   2.015  0.00  0.00    +0.131 A 
BRANCH  25  26
ATOM     26  O   UNL     1      -5.028  -5.117   0.911  0.00  0.00    -0.506 OA
ATOM     27  H   UNL     1      -5.422  -6.090   0.585  0.00  0.00    +0.292 HD
ENDBRANCH  25  26
BRANCH  23  28
ATOM     28  O   UNL     1      -8.067  -5.097   4.562  0.00  0.00    -0.507 OA
ATOM     29  H   UNL     1      -8.463  -6.070   4.236  0.00  0.00    +0.292 HD
ENDBRANCH  23  28
ENDBRANCH  18  20
ENDBRANCH  17  18
ENDBRANCH  16  17
ENDBRANCH  13  16
BRANCH  12  30
ATOM     30  C   UNL     1      -0.013   1.086   0.008  0.00  0.00    +0.159 C 
BRANCH  30  31
ATOM     31  C   UNL     1      -0.753   1.593  -1.232  0.00  0.00    +0.138 C 
ATOM     32  C   UNL     1      -0.085   1.045  -2.518  0.00  0.00    +0.035 C 
ATOM     33  C   UNL     1      -1.274   1.103  -3.515  0.00  0.00    +0.031 C 
ATOM     34  C   UNL     1      -2.480   0.787  -2.605  0.00  0.00    +0.160 C 
ATOM     35  O   UNL     1      -2.094   1.078  -1.257  0.00  0.00    -0.375 OA
ENDBRANCH  30  31
ENDBRANCH  12  30
TORSDOF 8
