REMARK  Name = ZINC05617755
REMARK  5 active torsions:
REMARK  status: ('A' for Active; 'I' for Inactive)
REMARK    1  A    between atoms: C_1  and  C_2
REMARK    2  A    between atoms: C_5  and  S_8
REMARK    3  A    between atoms: S_8  and  N_11
REMARK    4  A    between atoms: C_13  and  C_21
REMARK    5  A    between atoms: C_13  and  C_22
REMARK                            x       y       z     vdW  Elec       q    Type
REMARK                         _______ _______ _______ _____ _____    ______ ____
ROOT
ATOM      1  N   UNL     1      -2.725   0.922   0.070  0.00  0.00    -0.201 N 
ATOM      2  C   UNL     1      -4.127   1.200   0.364  0.00  0.00    +0.150 C 
ATOM      3  C   UNL     1      -4.556   2.452  -0.416  0.00  0.00    +0.049 C 
ATOM      4  S   UNL     1      -3.606   3.859   0.235  0.00  0.00    -0.114 S 
ATOM      5  C   UNL     1      -1.959   3.232   0.319  0.00  0.00    +0.031 A 
ATOM      6  C   UNL     1      -1.710   1.865   0.234  0.00  0.00    +0.065 A 
ATOM      7  C   UNL     1      -0.397   1.408   0.324  0.00  0.00    +0.026 A 
ATOM      8  C   UNL     1       0.645   2.301   0.474  0.00  0.00    +0.002 A 
ATOM      9  C   UNL     1       0.395   3.658   0.543  0.00  0.00    +0.001 A 
ATOM     10  C   UNL     1      -0.904   4.124   0.467  0.00  0.00    +0.016 A 
ATOM     11  C   UNL     1      -4.254   2.267  -1.904  0.00  0.00    +0.026 C 
ENDROOT
BRANCH   1  12
ATOM     12  S   UNL     1      -2.319  -0.582  -0.492  0.00  0.00    +0.075 S 
ATOM     13  O   UNL     1      -3.512  -1.160  -1.004  0.00  0.00    -0.150 OA
ATOM     14  O   UNL     1      -1.150  -0.418  -1.283  0.00  0.00    -0.150 OA
BRANCH  12  19
ATOM     15  C   UNL     1      -0.713  -3.898   4.287  0.00  0.00    +0.044 C 
ATOM     16  C   UNL     1      -1.114  -3.071   3.093  0.00  0.00    -0.050 A 
ATOM     17  C   UNL     1      -2.450  -2.928   2.768  0.00  0.00    +0.005 A 
ATOM     18  C   UNL     1      -2.818  -2.167   1.674  0.00  0.00    +0.029 A 
ATOM     19  C   UNL     1      -1.850  -1.551   0.904  0.00  0.00    +0.109 A 
ATOM     20  C   UNL     1      -0.514  -1.698   1.225  0.00  0.00    +0.029 A 
ATOM     21  C   UNL     1      -0.146  -2.454   2.323  0.00  0.00    +0.005 A 
ENDBRANCH  12  19
ENDBRANCH   1  12
BRANCH   3  22
ATOM     22  C   UNL     1      -6.053   2.700  -0.217  0.00  0.00    +0.128 C 
ATOM     23 CL   UNL     1      -6.380   3.038   1.523  0.00  0.00    -0.124 Cl
ENDBRANCH   3  22
TORSDOF 3
