REMARK  Name = ZINC29355851
REMARK  6 active torsions:
REMARK  status: ('A' for Active; 'I' for Inactive)
REMARK    1  A    between atoms: C_6  and  C_7
REMARK    2  A    between atoms: N_9  and  N_10
REMARK    3  A    between atoms: C_11  and  C_13
REMARK    4  A    between atoms: C_13  and  S_14
REMARK    5  A    between atoms: S_14  and  C_15
REMARK    6  A    between atoms: N_20  and  C_21
REMARK                            x       y       z     vdW  Elec       q    Type
REMARK                         _______ _______ _______ _____ _____    ______ ____
ROOT
ATOM      1  N   UNL     1       2.366   1.217  -0.014  0.00  0.00    -0.233 N 
ATOM      2  C   UNL     1       3.524   1.907  -0.021  0.00  0.00    +0.239 C 
ATOM      3  O   UNL     1       3.508   3.120  -0.015  0.00  0.00    -0.273 OA
ATOM      4  H   UNL     1       2.381   0.117  -0.020  0.00  0.00    +0.173 HD
ENDROOT
BRANCH   1   7
ATOM      5  C   UNL     1      -0.014   1.211   0.009  0.00  0.00    +0.260 C 
ATOM      6  O   UNL     1       0.002  -0.004   0.002  0.00  0.00    -0.269 OA
ATOM      7  N   UNL     1       1.143   1.901   0.001  0.00  0.00    -0.230 N 
ATOM      8  H   UNL     1       1.129   3.001   0.007  0.00  0.00    +0.173 HD
BRANCH   5  14
ATOM      9  C   UNL     1      -1.326   3.329   0.032  0.00  0.00    +0.014 A 
ATOM     10  C   UNL     1      -2.533   3.996   0.036  0.00  0.00    +0.021 A 
ATOM     11  C   UNL     1      -3.721   3.285   0.038  0.00  0.00    +0.041 A 
ATOM     12  C   UNL     1      -3.706   1.900   0.030  0.00  0.00    +0.021 A 
ATOM     13  C   UNL     1      -2.505   1.221   0.021  0.00  0.00    +0.014 A 
ATOM     14  C   UNL     1      -1.304   1.933   0.019  0.00  0.00    +0.038 A 
ATOM     15 CL   UNL     1      -5.236   4.132   0.049  0.00  0.00    -0.084 Cl
ENDBRANCH   5  14
ENDBRANCH   1   7
BRANCH   2  16
ATOM     16  C   UNL     1       4.839   1.171  -0.038  0.00  0.00    +0.173 C 
BRANCH  16  17
ATOM     17  S   UNL     1       6.202   2.369  -0.044  0.00  0.00    -0.088 S 
BRANCH  17  18
ATOM     18  C   UNL     1       7.650   1.366  -0.064  0.00  0.00    +0.160 A 
ATOM     19  N   UNL     1       7.757   0.051  -0.066  0.00  0.00    -0.133 NA
ATOM     20  N   UNL     1       9.002  -0.535  -0.087  0.00  0.00    -0.125 NA
ATOM     21  C   UNL     1      10.082   0.221  -0.093  0.00  0.00    +0.183 A 
ATOM     22  S   UNL     1       9.368   1.858  -0.077  0.00  0.00    -0.025 S 
ATOM     23  N   UNL     1      11.420  -0.156  -0.107  0.00  0.00    -0.319 N 
ATOM     24  H   UNL     1      12.208   0.612  -0.111  0.00  0.00    +0.148 HD
BRANCH  23  25
ATOM     25  C   UNL     1      11.781  -1.576  -0.119  0.00  0.00    +0.072 C 
ATOM     26  C   UNL     1      11.799  -2.109   1.315  0.00  0.00    +0.022 C 
ATOM     27  C   UNL     1      12.176  -3.592   1.304  0.00  0.00    +0.002 C 
ATOM     28  C   UNL     1      13.563  -3.760   0.680  0.00  0.00    +0.000 C 
ATOM     29  C   UNL     1      13.546  -3.227  -0.754  0.00  0.00    +0.002 C 
ATOM     30  C   UNL     1      13.168  -1.744  -0.742  0.00  0.00    +0.022 C 
ENDBRANCH  23  25
ENDBRANCH  17  18
ENDBRANCH  16  17
ENDBRANCH   2  16
TORSDOF 6
