REMARK  Name = ZINC01759093
REMARK  10 active torsions:
REMARK  status: ('A' for Active; 'I' for Inactive)
REMARK    1  A    between atoms: C_1  and  C_2
REMARK    2  A    between atoms: C_2  and  O_3
REMARK    3  A    between atoms: O_3  and  C_4
REMARK    4  A    between atoms: C_4  and  C_6
REMARK    5  A    between atoms: C_7  and  C_39
REMARK    6  A    between atoms: C_14  and  C_15
REMARK    7  A    between atoms: C_17  and  C_28
REMARK    8  A    between atoms: N_18  and  C_21
REMARK    9  A    between atoms: C_19  and  C_20
REMARK   10  A    between atoms: C_30  and  C_32
REMARK                            x       y       z     vdW  Elec       q    Type
REMARK                         _______ _______ _______ _____ _____    ______ ____
ROOT
ATOM      1  C   UNL     1       1.236  -2.358  -2.580  0.00  0.00    +0.085 C 
ATOM      2  C   UNL     1       1.623  -3.669  -2.605  0.00  0.00    +0.053 C 
ATOM      3  N   UNL     1       2.414  -4.120  -3.570  0.00  0.00    -0.228 NA
ATOM      4  C   UNL     1       2.883  -3.392  -4.553  0.00  0.00    +0.178 A 
ATOM      5  N   UNL     1       2.616  -2.053  -4.715  0.00  0.00    -0.275 N 
ATOM      6  C   UNL     1       3.154  -1.413  -5.761  0.00  0.00    +0.268 A 
ATOM      7  O   UNL     1       2.945  -0.227  -5.946  0.00  0.00    -0.266 OA
ATOM      8  C   UNL     1       4.002  -2.181  -6.679  0.00  0.00    +0.081 A 
ATOM      9  C   UNL     1       4.656  -1.771  -7.798  0.00  0.00    +0.030 C 
ATOM     10  S   UNL     1       3.943  -3.799  -5.926  0.00  0.00    -0.046 S 
ATOM     11  C   UNL     1       1.728  -1.449  -3.682  0.00  0.00    +0.162 C 
ATOM     12  C   UNL     1       1.149  -4.609  -1.527  0.00  0.00    +0.066 C 
ENDROOT
BRANCH   9  13
ATOM     13  C   UNL     1       5.457  -2.726  -8.570  0.00  0.00    -0.003 A 
ATOM     14  C   UNL     1       5.653  -4.152  -8.280  0.00  0.00    +0.031 A 
ATOM     15  C   UNL     1       6.455  -4.633  -9.245  0.00  0.00    +0.022 A 
ATOM     16  N   UNL     1       6.773  -3.623 -10.110  0.00  0.00    -0.317 N 
ATOM     17  C   UNL     1       6.176  -2.469  -9.722  0.00  0.00    +0.028 A 
ATOM     18  C   UNL     1       6.282  -1.139 -10.421  0.00  0.00    +0.064 C 
ATOM     19  C   UNL     1       6.930  -6.059  -9.356  0.00  0.00    +0.064 C 
BRANCH  16  20
ATOM     20  C   UNL     1       7.594  -3.762 -11.238  0.00  0.00    +0.047 A 
ATOM     21  C   UNL     1       8.813  -3.100 -11.297  0.00  0.00    +0.029 A 
ATOM     22  C   UNL     1       9.620  -3.238 -12.409  0.00  0.00    +0.040 A 
ATOM     23  C   UNL     1       9.213  -4.036 -13.466  0.00  0.00    +0.124 A 
ATOM     24  C   UNL     1       7.998  -4.697 -13.409  0.00  0.00    +0.040 A 
ATOM     25  C   UNL     1       7.191  -4.566 -12.296  0.00  0.00    +0.029 A 
ATOM     26  F   UNL     1      10.004  -4.169 -14.553  0.00  0.00    -0.205 F 
ENDBRANCH  16  20
ENDBRANCH   9  13
BRANCH  11  27
ATOM     27  C   UNL     1       0.524  -0.871  -4.379  0.00  0.00    -0.020 A 
ATOM     28  C   UNL     1      -0.158  -1.624  -5.317  0.00  0.00    +0.009 A 
ATOM     29  C   UNL     1      -1.263  -1.095  -5.957  0.00  0.00    +0.039 A 
ATOM     30  C   UNL     1      -1.688   0.188  -5.658  0.00  0.00    +0.123 A 
ATOM     31  C   UNL     1      -1.004   0.941  -4.719  0.00  0.00    +0.039 A 
ATOM     32  C   UNL     1       0.098   0.409  -4.076  0.00  0.00    +0.009 A 
ATOM     33  F   UNL     1      -2.767   0.706  -6.284  0.00  0.00    -0.205 F 
ENDBRANCH  11  27
BRANCH   1  34
ATOM     34  C   UNL     1       0.399  -1.872  -1.562  0.00  0.00    +0.339 C 
ATOM     35  O   UNL     1      -0.093  -2.643  -0.757  0.00  0.00    -0.245 OA
BRANCH  34  36
ATOM     36  O   UNL     1       0.139  -0.549  -1.476  0.00  0.00    -0.462 OA
BRANCH  36  38
ATOM     37  C   UNL     1      -0.896   1.394  -0.479  0.00  0.00    +0.048 C 
ATOM     38  C   UNL     1      -0.720  -0.125  -0.416  0.00  0.00    +0.229 C 
ENDBRANCH  36  38
ENDBRANCH  34  36
ENDBRANCH   1  34
TORSDOF 6
