REMARK  Name = ZINC39984370
REMARK  8 active torsions:
REMARK  status: ('A' for Active; 'I' for Inactive)
REMARK    1  A    between atoms: C_1  and  C_2
REMARK    2  A    between atoms: N_4  and  C_5
REMARK    3  A    between atoms: C_8  and  S_11
REMARK    4  A    between atoms: S_11  and  N_14
REMARK    5  A    between atoms: C_16  and  N_26
REMARK    6  A    between atoms: N_26  and  C_27
REMARK    7  A    between atoms: C_30  and  C_33
REMARK    8  A    between atoms: C_33  and  O_35
REMARK                            x       y       z     vdW  Elec       q    Type
REMARK                         _______ _______ _______ _____ _____    ______ ____
ROOT
ATOM      1  N   UNL     1      -0.950  -6.904   2.038  0.00  0.00    -0.110 NA
ATOM      2  C   UNL     1      -0.866  -8.167   2.338  0.00  0.00    +0.192 C 
ATOM      3  C   UNL     1      -0.868  -8.613   3.783  0.00  0.00    +0.237 C 
ATOM      4  N   UNL     1      -0.771 -10.056   4.057  0.00  0.00    -0.359 N 
ATOM      5  C   UNL     1      -0.689 -10.876   3.047  0.00  0.00    +0.063 A 
ATOM      6  C   UNL     1      -0.591 -12.327   3.266  0.00  0.00    +0.027 A 
ATOM      7  C   UNL     1      -0.508 -13.146   2.195  0.00  0.00    +0.002 A 
ATOM      8  C   UNL     1      -0.513 -12.647   0.882  0.00  0.00    +0.002 A 
ATOM      9  C   UNL     1      -0.601 -11.328   0.602  0.00  0.00    +0.030 A 
ATOM     10  C   UNL     1      -0.693 -10.377   1.649  0.00  0.00    +0.089 A 
ATOM     11  N   UNL     1      -0.783  -9.094   1.371  0.00  0.00    -0.226 NA
ATOM     12  H   UNL     1      -0.768 -10.388   4.968  0.00  0.00    +0.162 HD
ENDROOT
BRANCH   1  13
ATOM     13  S   UNL     1      -0.954  -6.430   0.451  0.00  0.00    +0.100 S 
ATOM     14  O   UNL     1      -2.156  -6.927  -0.119  0.00  0.00    -0.146 OA
ATOM     15  O   UNL     1       0.328  -6.752  -0.072  0.00  0.00    -0.146 OA
BRANCH  13  19
ATOM     16  C   UNL     1      -1.272  -1.912   0.406  0.00  0.00    +0.033 A 
ATOM     17  C   UNL     1      -0.024  -2.522   0.435  0.00  0.00    +0.025 A 
ATOM     18  C   UNL     1       0.070  -3.900   0.449  0.00  0.00    +0.031 A 
ATOM     19  C   UNL     1      -1.077  -4.672   0.433  0.00  0.00    +0.113 A 
ATOM     20  C   UNL     1      -2.321  -4.068   0.404  0.00  0.00    +0.031 A 
ATOM     21  C   UNL     1      -2.421  -2.691   0.396  0.00  0.00    +0.025 A 
BRANCH  16  25
ATOM     22  C   UNL     1      -2.425   1.599   1.120  0.00  0.00    +0.109 C 
ATOM     23  C   UNL     1      -2.378   0.095   1.046  0.00  0.00    +0.214 C 
ATOM     24  O   UNL     1      -3.247  -0.566   1.574  0.00  0.00    -0.276 OA
ATOM     25  N   UNL     1      -1.370  -0.516   0.392  0.00  0.00    -0.286 N 
ATOM     26  H   UNL     1      -0.713   0.011  -0.088  0.00  0.00    +0.155 HD
ENDBRANCH  16  25
ENDBRANCH  13  19
ENDBRANCH   1  13
BRANCH   3  27
ATOM     27  N   UNL     1       0.255  -7.955   4.455  0.00  0.00    -0.318 N 
ATOM     28  H   UNL     1       1.120  -7.905   4.019  0.00  0.00    +0.148 HD
BRANCH  27  29
ATOM     29  C   UNL     1       0.082  -7.403   5.719  0.00  0.00    +0.029 A 
ATOM     30  C   UNL     1       1.169  -6.852   6.392  0.00  0.00    +0.024 A 
ATOM     31  C   UNL     1       1.001  -6.306   7.638  0.00  0.00    +0.017 A 
ATOM     32  C   UNL     1      -0.264  -6.302   8.234  0.00  0.00    +0.059 A 
ATOM     33  C   UNL     1      -1.355  -6.856   7.555  0.00  0.00    +0.017 A 
ATOM     34  C   UNL     1      -1.181  -7.396   6.307  0.00  0.00    +0.024 A 
BRANCH  32  35
ATOM     35  C   UNL     1      -0.449  -5.717   9.574  0.00  0.00    +0.337 C 
ATOM     36  O   UNL     1       0.500  -5.236  10.162  0.00  0.00    -0.245 OA
BRANCH  35  37
ATOM     37  O   UNL     1      -1.669  -5.714  10.146  0.00  0.00    -0.477 OA
ATOM     38  H   UNL     1      -1.690  -5.309  11.024  0.00  0.00    +0.295 HD
ENDBRANCH  35  37
ENDBRANCH  32  35
ENDBRANCH  27  29
ENDBRANCH   3  27
TORSDOF 7
