REMARK  Name = ZINC34791503
REMARK  11 active torsions:
REMARK  status: ('A' for Active; 'I' for Inactive)
REMARK    1  A    between atoms: C_1  and  C_2
REMARK    2  A    between atoms: C_2  and  C_3
REMARK    3  A    between atoms: C_2  and  C_4
REMARK    4  A    between atoms: C_2  and  N_5
REMARK    5  A    between atoms: C_6  and  C_8
REMARK    6  A    between atoms: C_8  and  C_10
REMARK    7  A    between atoms: C_8  and  N_16
REMARK    8  A    between atoms: C_22  and  C_31
REMARK    9  A    between atoms: N_27  and  C_28
REMARK   10  A    between atoms: C_28  and  C_29
REMARK   11  A    between atoms: C_36  and  C_37
REMARK                            x       y       z     vdW  Elec       q    Type
REMARK                         _______ _______ _______ _____ _____    ______ ____
ROOT
ATOM      1  N   UNL     1       2.797   1.033  -1.976  0.00  0.00    -0.277 N 
ATOM      2  C   UNL     1       3.748  -0.034  -2.322  0.00  0.00    +0.160 C 
ATOM      3  C   UNL     1       5.017   0.688  -2.716  0.00  0.00    +0.043 C 
ATOM      4  C   UNL     1       4.758   2.006  -2.591  0.00  0.00    +0.058 C 
ATOM      5  C   UNL     1       3.432   2.205  -2.154  0.00  0.00    +0.247 C 
ATOM      6  O   UNL     1       2.929   3.297  -1.961  0.00  0.00    -0.270 OA
ATOM      7  C   UNL     1       5.871   2.978  -2.926  0.00  0.00    +0.142 C 
ATOM      8  N   UNL     1       7.152   2.399  -3.364  0.00  0.00    -0.288 N 
ATOM      9  C   UNL     1       7.258   1.057  -3.441  0.00  0.00    +0.307 C 
ATOM     10  O   UNL     1       8.311   0.570  -3.801  0.00  0.00    -0.252 OA
ATOM     11  N   UNL     1       6.239   0.244  -3.132  0.00  0.00    -0.253 N 
ATOM     12  H   UNL     1       7.902   2.969  -3.593  0.00  0.00    +0.151 HD
ENDROOT
BRANCH   7  13
ATOM     13  C   UNL     1       5.377   3.891  -4.018  0.00  0.00    -0.011 A 
ATOM     14  C   UNL     1       5.326   3.442  -5.324  0.00  0.00    +0.006 A 
ATOM     15  C   UNL     1       4.872   4.280  -6.326  0.00  0.00    +0.000 A 
ATOM     16  C   UNL     1       4.470   5.567  -6.021  0.00  0.00    +0.001 A 
ATOM     17  C   UNL     1       4.521   6.016  -4.714  0.00  0.00    +0.013 A 
ATOM     18  C   UNL     1       4.970   5.176  -3.712  0.00  0.00    +0.060 A 
BRANCH  18  19
ATOM     19  C   UNL     1       5.020   5.664  -2.287  0.00  0.00    +0.418 C 
ATOM     20  F   UNL     1       4.595   6.995  -2.234  0.00  0.00    -0.166 F 
ATOM     21  F   UNL     1       4.180   4.874  -1.494  0.00  0.00    -0.166 F 
ATOM     22  F   UNL     1       6.332   5.574  -1.809  0.00  0.00    -0.166 F 
ENDBRANCH  18  19
ENDBRANCH   7  13
BRANCH   1  23
ATOM     23  C   UNL     1       1.414   0.853  -1.528  0.00  0.00    +0.193 C 
BRANCH  23  24
ATOM     24  C   UNL     1       1.406   0.167  -0.186  0.00  0.00    -0.018 A 
ATOM     25  C   UNL     1       2.150  -0.982   0.007  0.00  0.00    +0.006 A 
ATOM     26  C   UNL     1       2.143  -1.610   1.239  0.00  0.00    +0.000 A 
ATOM     27  C   UNL     1       1.392  -1.090   2.276  0.00  0.00    +0.000 A 
ATOM     28  C   UNL     1       0.648   0.059   2.082  0.00  0.00    +0.000 A 
ATOM     29  C   UNL     1       0.659   0.690   0.853  0.00  0.00    +0.006 A 
ENDBRANCH  23  24
BRANCH  23  31
ATOM     30  N   UNL     1      -0.630  -0.291  -2.323  0.00  0.00    -0.309 N 
ATOM     31  C   UNL     1       0.668   0.007  -2.529  0.00  0.00    +0.239 C 
ATOM     32  O   UNL     1       1.236  -0.404  -3.518  0.00  0.00    -0.273 OA
ATOM     33  H   UNL     1      -1.084   0.038  -1.532  0.00  0.00    +0.149 HD
BRANCH  30  35
ATOM     34  C   UNL     1      -0.676  -2.479  -3.416  0.00  0.00    +0.031 C 
ATOM     35  C   UNL     1      -1.355  -1.113  -3.295  0.00  0.00    +0.026 C 
ATOM     36  C   UNL     1      -1.347  -0.417  -4.658  0.00  0.00    +0.031 C 
ATOM     37  C   UNL     1      -2.800  -1.301  -2.827  0.00  0.00    +0.031 C 
ENDBRANCH  30  35
ENDBRANCH  23  31
ENDBRANCH   1  23
BRANCH  11  38
ATOM     38  C   UNL     1       6.449  -1.202  -3.245  0.00  0.00    +0.141 C 
BRANCH  38  39
ATOM     39  C   UNL     1       6.078  -1.656  -4.633  0.00  0.00    -0.015 C 
ATOM     40  C   UNL     1       6.945  -2.317  -5.360  0.00  0.00    +0.005 C 
ENDBRANCH  38  39
ENDBRANCH  11  38
TORSDOF 8
