REMARK  Name = ZINC63139288
REMARK  6 active torsions:
REMARK  status: ('A' for Active; 'I' for Inactive)
REMARK    1  A    between atoms: C_1  and  O_2
REMARK    2  A    between atoms: O_2  and  C_3
REMARK    3  A    between atoms: C_6  and  C_9
REMARK    4  A    between atoms: C_9  and  N_10
REMARK    5  A    between atoms: C_30  and  C_32
REMARK    6  A    between atoms: C_36  and  N_38
REMARK                            x       y       z     vdW  Elec       q    Type
REMARK                         _______ _______ _______ _____ _____    ______ ____
ROOT
ATOM      1  N   UNL     1      -5.423  -2.855  -1.343  0.00  0.00    -0.287 N 
ATOM      2  C   UNL     1      -6.237  -1.861  -2.068  0.00  0.00    +0.204 C 
ATOM      3  C   UNL     1      -5.657  -1.686  -3.456  0.00  0.00    +0.234 C 
ATOM      4  O   UNL     1      -5.519  -0.588  -3.952  0.00  0.00    -0.274 OA
ATOM      5  N   UNL     1      -5.296  -2.829  -4.127  0.00  0.00    -0.279 N 
ATOM      6  C   UNL     1      -5.593  -4.071  -3.445  0.00  0.00    +0.167 C 
ATOM      7  C   UNL     1      -5.098  -3.995  -2.023  0.00  0.00    +0.237 C 
ATOM      8  O   UNL     1      -4.455  -4.888  -1.514  0.00  0.00    -0.274 OA
ATOM      9  C   UNL     1      -5.210  -5.364  -4.116  0.00  0.00    +0.065 C 
ATOM     10  C   UNL     1      -4.357  -5.083  -5.322  0.00  0.00    -0.034 C 
ATOM     11  C   UNL     1      -3.276  -5.678  -5.806  0.00  0.00    -0.001 A 
ATOM     12  C   UNL     1      -2.533  -6.870  -5.365  0.00  0.00    +0.010 A 
ATOM     13  C   UNL     1      -1.441  -7.204  -6.103  0.00  0.00    +0.001 A 
ATOM     14  C   UNL     1      -1.019  -6.480  -7.223  0.00  0.00    +0.002 A 
ATOM     15  C   UNL     1      -1.645  -5.376  -7.702  0.00  0.00    +0.026 A 
ATOM     16  C   UNL     1      -2.809  -4.928  -7.012  0.00  0.00    +0.043 A 
ATOM     17  N   UNL     1      -3.595  -3.923  -7.254  0.00  0.00    -0.375 N 
ATOM     18  C   UNL     1      -4.674  -3.918  -6.258  0.00  0.00    +0.131 C 
ATOM     19  C   UNL     1      -4.621  -2.659  -5.406  0.00  0.00    +0.133 C 
ATOM     20  H   UNL     1      -3.487  -3.282  -7.974  0.00  0.00    +0.160 HD
ENDROOT
BRANCH  19  21
ATOM     21  C   UNL     1      -5.252  -1.506  -6.144  0.00  0.00    -0.023 A 
ATOM     22  C   UNL     1      -6.622  -1.330  -6.109  0.00  0.00    +0.005 A 
ATOM     23  C   UNL     1      -7.201  -0.273  -6.786  0.00  0.00    +0.003 A 
ATOM     24  C   UNL     1      -6.409   0.609  -7.497  0.00  0.00    +0.033 A 
ATOM     25  C   UNL     1      -5.038   0.433  -7.532  0.00  0.00    +0.127 A 
ATOM     26  C   UNL     1      -4.459  -0.622  -6.851  0.00  0.00    +0.038 A 
BRANCH  25  27
ATOM     27  N   UNL     1      -4.190   1.377  -8.294  0.00  0.00    +0.056 N 
ATOM     28  O   UNL     1      -4.696   2.301  -8.887  0.00  0.00    -0.126 OA
ATOM     29  O   UNL     1      -2.991   1.223  -8.324  0.00  0.00    -0.126 OA
ENDBRANCH  25  27
ENDBRANCH  19  21
BRANCH   1  30
ATOM     30  C   UNL     1      -4.981  -2.629   0.035  0.00  0.00    +0.143 C 
BRANCH  30  34
ATOM     31  C   UNL     1      -1.200  -0.637   0.010  0.00  0.00    +0.120 A 
ATOM     32  C   UNL     1      -2.375   0.101   0.019  0.00  0.00    +0.046 A 
ATOM     33  C   UNL     1      -3.596  -0.545   0.027  0.00  0.00    +0.009 A 
ATOM     34  C   UNL     1      -3.648  -1.927   0.026  0.00  0.00    -0.030 A 
ATOM     35  C   UNL     1      -2.479  -2.665   0.017  0.00  0.00    +0.009 A 
ATOM     36  C   UNL     1      -1.255  -2.024   0.003  0.00  0.00    +0.046 A 
BRANCH  31  38
ATOM     37  C   UNL     1      -0.017   1.425   0.010  0.00  0.00    +0.277 C 
ATOM     38  O   UNL     1       0.002  -0.004   0.002  0.00  0.00    -0.495 OA
ENDBRANCH  31  38
ENDBRANCH  30  34
ENDBRANCH   1  30
TORSDOF 5
