REMARK  Name = ZINC19125579
REMARK  6 active torsions:
REMARK  status: ('A' for Active; 'I' for Inactive)
REMARK    1  A    between atoms: C_1  and  C_2
REMARK    2  A    between atoms: C_7  and  C_8
REMARK    3  A    between atoms: C_8  and  N_53
REMARK    4  A    between atoms: C_12  and  C_15
REMARK    5  A    between atoms: C_17  and  N_25
REMARK    6  A    between atoms: C_22  and  C_24
REMARK                            x       y       z     vdW  Elec       q    Type
REMARK                         _______ _______ _______ _____ _____    ______ ____
ROOT
ATOM      1  C   UNL     1      -1.248  -2.713   2.853  0.00  0.00    -0.078 C 
ATOM      2  C   UNL     1      -0.876  -3.288   4.222  0.00  0.00    -0.018 C 
ATOM      3  C   UNL     1      -2.034  -4.143   4.743  0.00  0.00    +0.006 C 
ATOM      4  C   UNL     1      -2.338  -5.250   3.730  0.00  0.00    +0.021 C 
ATOM      5  C   UNL     1      -2.667  -4.618   2.375  0.00  0.00    -0.069 C 
ATOM      6  N   UNL     1      -1.504  -3.829   1.918  0.00  0.00    +0.383 N 
ATOM      7  H   UNL     1      -0.677  -4.438   1.892  0.00  0.00    -0.081 HD
ENDROOT
BRANCH   4   8
ATOM      8  C   UNL     1      -3.515  -6.061   4.206  0.00  0.00    +0.048 A 
ATOM      9  C   UNL     1      -4.549  -5.438   4.904  0.00  0.00    +0.067 A 
ATOM     10  C   UNL     1      -5.617  -6.182   5.328  0.00  0.00    +0.122 A 
ATOM     11  N   UNL     1      -5.635  -7.526   5.064  0.00  0.00    -0.201 N 
ATOM     12  C   UNL     1      -4.594  -8.098   4.380  0.00  0.00    +0.158 A 
ATOM     13  N   UNL     1      -3.558  -7.354   3.967  0.00  0.00    -0.232 NA
ATOM     14  C   UNL     1      -4.884  -9.450   4.262  0.00  0.00    +0.073 A 
ATOM     15  C   UNL     1      -6.105  -9.674   4.882  0.00  0.00    +0.063 A 
ATOM     16  N   UNL     1      -6.556  -8.537   5.360  0.00  0.00    -0.169 NA
ATOM     17  C   UNL     1      -6.801 -11.007   4.990  0.00  0.00    +0.067 C 
BRANCH  10  18
ATOM     18  N   UNL     1      -6.655  -5.590   6.015  0.00  0.00    -0.343 N 
ATOM     19  H   UNL     1      -7.405  -6.125   6.316  0.00  0.00    +0.144 HD
ATOM     20  H   UNL     1      -6.634  -4.637   6.198  0.00  0.00    +0.144 HD
ENDBRANCH  10  18
ENDBRANCH   4   8
BRANCH   6  21
ATOM     21  C   UNL     1      -1.754  -3.302   0.560  0.00  0.00    -0.043 C 
BRANCH  21  28
ATOM     22  C   UNL     1       0.862  -4.184  -0.280  0.00  0.00    +0.044 C 
ATOM     23  C   UNL     1       0.561  -2.711  -0.181  0.00  0.00    -0.045 A 
ATOM     24  C   UNL     1       1.539  -1.784  -0.494  0.00  0.00    +0.053 A 
ATOM     25  C   UNL     1       1.265  -0.430  -0.404  0.00  0.00    +0.166 A 
ATOM     26  C   UNL     1       0.002  -0.004   0.002  0.00  0.00    +0.166 A 
ATOM     27  C   UNL     1      -0.972  -0.938   0.314  0.00  0.00    +0.051 A 
ATOM     28  C   UNL     1      -0.692  -2.288   0.221  0.00  0.00    -0.057 A 
ATOM     29  O   UNL     1      -0.016   1.361   0.009  0.00  0.00    -0.453 OA
ATOM     30  C   UNL     1       1.366   1.764  -0.002  0.00  0.00    +0.466 C 
ATOM     31  O   UNL     1       2.037   0.668  -0.651  0.00  0.00    -0.453 OA
ENDBRANCH  21  28
ENDBRANCH   6  21
TORSDOF 4
