REMARK  Name = ZINC64605326
REMARK  10 active torsions:
REMARK  status: ('A' for Active; 'I' for Inactive)
REMARK    1  A    between atoms: C_1  and  C_2
REMARK    2  A    between atoms: C_5  and  C_8
REMARK    3  A    between atoms: C_10  and  N_27
REMARK    4  A    between atoms: N_13  and  C_15
REMARK    5  A    between atoms: C_15  and  C_16
REMARK    6  A    between atoms: N_18  and  C_19
REMARK    7  A    between atoms: C_24  and  C_25
REMARK    8  A    between atoms: C_28  and  C_30
REMARK    9  A    between atoms: C_30  and  C_31
REMARK   10  A    between atoms: C_30  and  C_32
REMARK                            x       y       z     vdW  Elec       q    Type
REMARK                         _______ _______ _______ _____ _____    ______ ____
ROOT
ATOM      1  C   UNL     1       0.483  -4.128   0.146  0.00  0.00    +0.093 A 
ATOM      2  C   UNL     1       0.530  -4.847   1.357  0.00  0.00    +0.059 A 
ATOM      3  C   UNL     1       0.301  -6.193   1.353  0.00  0.00    +0.102 A 
ATOM      4  C   UNL     1       0.021  -6.842   0.125  0.00  0.00    +0.289 A 
ATOM      5  O   UNL     1      -0.187  -8.045   0.100  0.00  0.00    -0.264 OA
ATOM      6  N   UNL     1      -0.016  -6.122  -1.014  0.00  0.00    -0.218 N 
ATOM      7  N   UNL     1       0.217  -4.743  -0.985  0.00  0.00    -0.168 NA
ENDROOT
BRANCH   1  12
ATOM      8  C   UNL     1       1.445   1.550   0.153  0.00  0.00    +0.044 C 
ATOM      9  C   UNL     1       1.193   0.065   0.151  0.00  0.00    -0.050 A 
ATOM     10  C   UNL     1       0.913  -0.585  -1.037  0.00  0.00    +0.004 A 
ATOM     11  C   UNL     1       0.682  -1.946  -1.045  0.00  0.00    +0.010 A 
ATOM     12  C   UNL     1       0.731  -2.665   0.147  0.00  0.00    +0.002 A 
ATOM     13  C   UNL     1       1.014  -2.005   1.342  0.00  0.00    +0.010 A 
ATOM     14  C   UNL     1       1.249  -0.645   1.337  0.00  0.00    +0.004 A 
ENDBRANCH   1  12
BRANCH   3  15
ATOM     15  N   UNL     1       0.344  -6.921   2.545  0.00  0.00    -0.281 N 
ATOM     16  C   UNL     1       1.211  -7.943   2.679  0.00  0.00    +0.220 C 
ATOM     17  O   UNL     1       1.894  -8.287   1.738  0.00  0.00    -0.275 OA
ATOM     18  H   UNL     1      -0.252  -6.691   3.276  0.00  0.00    +0.155 HD
BRANCH  16  19
ATOM     19  C   UNL     1       1.334  -8.659   4.000  0.00  0.00    +0.069 C 
ATOM     20  C   UNL     1       2.380  -9.770   3.883  0.00  0.00    +0.017 C 
ATOM     21  C   UNL     1       1.763  -7.665   5.081  0.00  0.00    +0.017 C 
ENDBRANCH  16  19
ENDBRANCH   3  15
BRANCH   6  22
ATOM     22  C   UNL     1      -0.305  -6.787  -2.287  0.00  0.00    +0.243 C 
BRANCH  22  23
ATOM     23  C   UNL     1      -1.792  -6.779  -2.531  0.00  0.00    +0.239 C 
ATOM     24  O   UNL     1      -2.537  -6.269  -1.721  0.00  0.00    -0.273 OA
ATOM     25  N   UNL     1      -2.294  -7.339  -3.650  0.00  0.00    -0.284 N 
ATOM     26  H   UNL     1      -1.706  -7.805  -4.265  0.00  0.00    +0.155 HD
BRANCH  25  27
ATOM     27  C   UNL     1      -3.664  -7.249  -3.923  0.00  0.00    +0.037 A 
ATOM     28  C   UNL     1      -4.575  -7.124  -2.882  0.00  0.00    +0.026 A 
ATOM     29  C   UNL     1      -5.926  -7.035  -3.154  0.00  0.00    +0.040 A 
ATOM     30  C   UNL     1      -6.373  -7.071  -4.464  0.00  0.00    +0.124 A 
ATOM     31  C   UNL     1      -5.467  -7.196  -5.504  0.00  0.00    +0.043 A 
ATOM     32  C   UNL     1      -4.114  -7.279  -5.236  0.00  0.00    -0.027 A 
ATOM     33  C   UNL     1      -3.128  -7.409  -6.369  0.00  0.00    +0.046 C 
ATOM     34  F   UNL     1      -7.695  -6.985  -4.728  0.00  0.00    -0.205 F 
ENDBRANCH  25  27
ENDBRANCH  22  23
ENDBRANCH   6  22
TORSDOF 6
