REMARK  Name = ZINC09253612
REMARK  9 active torsions:
REMARK  status: ('A' for Active; 'I' for Inactive)
REMARK    1  A    between atoms: C_1  and  C_2
REMARK    2  A    between atoms: C_3  and  C_36
REMARK    3  A    between atoms: N_4  and  C_29
REMARK    4  A    between atoms: C_5  and  N_9
REMARK    5  A    between atoms: C_6  and  C_7
REMARK    6  A    between atoms: C_10  and  C_12
REMARK    7  A    between atoms: C_12  and  N_67
REMARK    8  A    between atoms: C_15  and  N_18
REMARK    9  A    between atoms: C_29  and  C_30
REMARK                            x       y       z     vdW  Elec       q    Type
REMARK                         _______ _______ _______ _____ _____    ______ ____
ROOT
ATOM      1  N   UNL     1      -6.169  -6.086  -1.765  0.00  0.00    -0.272 N 
ATOM      2  C   UNL     1      -5.905  -4.792  -1.496  0.00  0.00    +0.202 C 
ATOM      3  O   UNL     1      -6.170  -3.936  -2.313  0.00  0.00    -0.278 OA
ATOM      4  H   UNL     1      -5.972  -6.769  -1.105  0.00  0.00    +0.156 HD
ENDROOT
BRANCH   1   9
ATOM      5  C   UNL     1      -7.210  -6.411  -6.700  0.00  0.00    +0.047 C 
ATOM      6  C   UNL     1      -7.218  -6.612  -5.206  0.00  0.00    -0.011 A 
ATOM      7  C   UNL     1      -8.016  -7.440  -4.513  0.00  0.00    +0.022 A 
ATOM      8  N   UNL     1      -7.722  -7.340  -3.179  0.00  0.00    -0.329 N 
ATOM      9  C   UNL     1      -6.723  -6.441  -2.986  0.00  0.00    +0.123 A 
ATOM     10  C   UNL     1      -6.359  -5.936  -4.226  0.00  0.00    +0.095 A 
ATOM     11  C   UNL     1      -9.069  -8.337  -5.109  0.00  0.00    +0.064 C 
BRANCH  10  12
ATOM     12  C   UNL     1      -5.349  -4.956  -4.495  0.00  0.00    +0.103 C 
ATOM     13  N   UNL     1      -4.548  -4.180  -4.709  0.00  0.00    -0.191 NA
ENDBRANCH  10  12
BRANCH   8  14
ATOM     14  C   UNL     1      -8.390  -8.094  -2.115  0.00  0.00    +0.154 C 
BRANCH  14  15
ATOM     15  C   UNL     1      -9.622  -7.322  -1.639  0.00  0.00    +0.138 C 
ATOM     16  C   UNL     1     -10.263  -8.049  -0.437  0.00  0.00    +0.035 C 
ATOM     17  C   UNL     1     -11.781  -7.880  -0.723  0.00  0.00    +0.031 C 
ATOM     18  C   UNL     1     -11.799  -7.940  -2.271  0.00  0.00    +0.160 C 
ATOM     19  O   UNL     1     -10.597  -7.270  -2.686  0.00  0.00    -0.375 OA
ENDBRANCH  14  15
ENDBRANCH   8  14
ENDBRANCH   1   9
BRANCH   2  20
ATOM     20  C   UNL     1      -5.280  -4.409  -0.179  0.00  0.00    +0.019 C 
BRANCH  20  26
ATOM     21  C   UNL     1      -4.302  -2.577   1.064  0.00  0.00    -0.076 C 
ATOM     22  C   UNL     1      -4.093  -1.060   1.068  0.00  0.00    +0.006 C 
ATOM     23  C   UNL     1      -3.211  -0.668  -0.120  0.00  0.00    +0.089 C 
ATOM     24  C   UNL     1      -3.871  -1.143  -1.417  0.00  0.00    +0.006 C 
ATOM     25  C   UNL     1      -4.088  -2.657  -1.349  0.00  0.00    -0.076 C 
ATOM     26  N   UNL     1      -4.964  -2.966  -0.199  0.00  0.00    +0.386 N 
ATOM     27  H   UNL     1      -5.838  -2.435  -0.294  0.00  0.00    -0.081 HD
BRANCH  23  28
ATOM     28  N   UNL     1      -3.055   0.788  -0.154  0.00  0.00    -0.289 N 
ATOM     29  C   UNL     1      -1.850   1.482  -0.070  0.00  0.00    +0.070 A 
ATOM     30  C   UNL     1      -0.529   1.081   0.061  0.00  0.00    +0.028 A 
ATOM     31  C   UNL     1       0.474   2.029   0.119  0.00  0.00    +0.002 A 
ATOM     32  C   UNL     1       0.166   3.377   0.048  0.00  0.00    +0.002 A 
ATOM     33  C   UNL     1      -1.147   3.785  -0.083  0.00  0.00    +0.028 A 
ATOM     34  C   UNL     1      -2.161   2.841  -0.142  0.00  0.00    +0.067 A 
ATOM     35  N   UNL     1      -3.546   2.932  -0.263  0.00  0.00    -0.306 N 
ATOM     36  H   UNL     1      -4.057   3.753  -0.334  0.00  0.00    +0.170 HD
ATOM     37  C   UNL     1      -4.053   1.684  -0.273  0.00  0.00    +0.328 A 
ATOM     38  O   UNL     1      -5.234   1.409  -0.369  0.00  0.00    -0.247 OA
ENDBRANCH  23  28
ENDBRANCH  20  26
ENDBRANCH   2  20
TORSDOF 7
