REMARK  Name = ZINC09608186
REMARK  8 active torsions:
REMARK  status: ('A' for Active; 'I' for Inactive)
REMARK    1  A    between atoms: C_4  and  C_7
REMARK    2  A    between atoms: C_7  and  C_8
REMARK    3  A    between atoms: C_7  and  N_14
REMARK    4  A    between atoms: C_15  and  C_17
REMARK    5  A    between atoms: C_20  and  C_23
REMARK    6  A    between atoms: C_23  and  N_24
REMARK    7  A    between atoms: N_24  and  S_25
REMARK    8  A    between atoms: S_25  and  C_28
REMARK                            x       y       z     vdW  Elec       q    Type
REMARK                         _______ _______ _______ _____ _____    ______ ____
ROOT
ATOM      1  C   UNL     1       1.280   1.980   0.001  0.00  0.00    +0.075 C 
ATOM      2  C   UNL     1       1.337   2.867  -1.245  0.00  0.00    +0.013 C 
ATOM      3  C   UNL     1       2.652   3.650  -1.253  0.00  0.00    +0.005 C 
ATOM      4  C   UNL     1       3.828   2.672  -1.270  0.00  0.00    +0.005 C 
ATOM      5  C   UNL     1       3.771   1.784  -0.024  0.00  0.00    +0.005 C 
ATOM      6  C   UNL     1       2.457   1.002  -0.016  0.00  0.00    +0.013 C 
ENDROOT
BRANCH   1   8
ATOM      7  N   UNL     1      -1.191   1.867   0.018  0.00  0.00    -0.304 N 
ATOM      8  C   UNL     1      -0.014   1.209   0.009  0.00  0.00    +0.217 C 
ATOM      9  O   UNL     1       0.002  -0.004   0.002  0.00  0.00    -0.275 OA
ATOM     10  H   UNL     1      -1.204   2.837   0.023  0.00  0.00    +0.150 HD
BRANCH   7  11
ATOM     11  C   UNL     1      -2.449   1.117   0.020  0.00  0.00    +0.134 C 
BRANCH  11  15
ATOM     12  C   UNL     1      -3.474   0.065   4.031  0.00  0.00    +0.000 A 
ATOM     13  C   UNL     1      -3.674  -0.841   3.006  0.00  0.00    +0.000 A 
ATOM     14  C   UNL     1      -3.342  -0.501   1.708  0.00  0.00    +0.006 A 
ATOM     15  C   UNL     1      -2.811   0.746   1.435  0.00  0.00    -0.023 A 
ATOM     16  C   UNL     1      -2.605   1.650   2.460  0.00  0.00    +0.006 A 
ATOM     17  C   UNL     1      -2.942   1.311   3.758  0.00  0.00    +0.000 A 
ENDBRANCH  11  15
BRANCH  11  18
ATOM     18  C   UNL     1      -3.543   1.969  -0.571  0.00  0.00    -0.023 A 
ATOM     19  C   UNL     1      -3.610   3.316  -0.266  0.00  0.00    +0.006 A 
ATOM     20  C   UNL     1      -4.610   4.099  -0.812  0.00  0.00    +0.000 A 
ATOM     21  C   UNL     1      -5.549   3.533  -1.654  0.00  0.00    +0.000 A 
ATOM     22  C   UNL     1      -5.484   2.186  -1.955  0.00  0.00    +0.000 A 
ATOM     23  C   UNL     1      -4.481   1.404  -1.413  0.00  0.00    +0.006 A 
ENDBRANCH  11  18
ENDBRANCH   7  11
ENDBRANCH   1   8
BRANCH   4  24
ATOM     24  C   UNL     1       5.143   3.455  -1.278  0.00  0.00    +0.109 C 
BRANCH  24  25
ATOM     25  N   UNL     1       5.252   4.213  -2.527  0.00  0.00    -0.190 NA
ATOM     26  H   UNL     1       4.670   4.003  -3.274  0.00  0.00    +0.148 HD
BRANCH  25  27
ATOM     27  S   UNL     1       6.368   5.428  -2.663  0.00  0.00    +0.061 S 
ATOM     28  O   UNL     1       6.247   5.945  -3.981  0.00  0.00    -0.153 OA
ATOM     29  O   UNL     1       6.224   6.244  -1.508  0.00  0.00    -0.153 OA
BRANCH  27  30
ATOM     30  C   UNL     1       7.963   4.685  -2.558  0.00  0.00    +0.133 A 
ATOM     31  C   UNL     1       8.796   4.717  -3.625  0.00  0.00    +0.031 A 
ATOM     32  C   UNL     1      10.065   4.139  -3.578  0.00  0.00    +0.004 A 
ATOM     33  C   UNL     1      10.520   3.520  -2.462  0.00  0.00    +0.031 A 
ATOM     34  C   UNL     1       9.701   3.448  -1.306  0.00  0.00    +0.102 A 
ATOM     35  C   UNL     1       8.375   4.057  -1.354  0.00  0.00    +0.126 A 
ATOM     36  N   UNL     1       7.716   3.912  -0.206  0.00  0.00    -0.189 NA
ATOM     37  S   UNL     1       8.676   3.128   0.754  0.00  0.00    +0.117 S 
ATOM     38  N   UNL     1       9.953   2.893  -0.122  0.00  0.00    -0.191 NA
ENDBRANCH  27  30
ENDBRANCH  25  27
ENDBRANCH  24  25
ENDBRANCH   4  24
TORSDOF 8
