REMARK  Name = ZINC09325754
REMARK  9 active torsions:
REMARK  status: ('A' for Active; 'I' for Inactive)
REMARK    1  A    between atoms: C_1  and  O_2
REMARK    2  A    between atoms: O_2  and  C_3
REMARK    3  A    between atoms: N_9  and  C_31
REMARK    4  A    between atoms: N_11  and  C_12
REMARK    5  A    between atoms: C_12  and  C_14
REMARK    6  A    between atoms: C_19  and  N_20
REMARK    7  A    between atoms: N_20  and  S_21
REMARK    8  A    between atoms: S_21  and  C_24
REMARK    9  A    between atoms: C_31  and  C_32
REMARK                            x       y       z     vdW  Elec       q    Type
REMARK                         _______ _______ _______ _____ _____    ______ ____
ROOT
ATOM      1  C   UNL     1       2.579   1.184  -0.209  0.00  0.00    +0.271 C 
ATOM      2  O   UNL     1       2.510  -0.025  -0.067  0.00  0.00    -0.268 OA
ENDROOT
BRANCH   1  11
ATOM      3  C   UNL     1       8.594   0.801  -0.338  0.00  0.00    +0.145 A 
ATOM      4  C   UNL     1       9.495  -0.239  -0.245  0.00  0.00    +0.049 A 
ATOM      5  C   UNL     1       9.067  -1.546  -0.082  0.00  0.00    +0.025 A 
ATOM      6  C   UNL     1       7.709  -1.810  -0.012  0.00  0.00    +0.057 A 
ATOM      7  C   UNL     1       6.808  -0.773  -0.105  0.00  0.00    +0.061 A 
ATOM      8  C   UNL     1       7.209   0.559  -0.270  0.00  0.00    +0.101 A 
ATOM      9  N   UNL     1       6.173   1.474  -0.352  0.00  0.00    -0.314 N 
ATOM     10  C   UNL     1       4.883   1.052  -0.260  0.00  0.00    +0.167 A 
ATOM     11  N   UNL     1       3.772   1.778  -0.312  0.00  0.00    -0.152 NA
ATOM     12  S   UNL     1       5.037  -0.665  -0.067  0.00  0.00    -0.050 S 
ATOM     13 CL   UNL     1       7.147  -3.439   0.193  0.00  0.00    -0.082 Cl
BRANCH   3  15
ATOM     14  C   UNL     1      10.465   2.252  -0.559  0.00  0.00    +0.277 C 
ATOM     15  O   UNL     1       9.049   2.072  -0.498  0.00  0.00    -0.493 OA
ENDBRANCH   3  15
BRANCH   9  16
ATOM     16  C   UNL     1       6.466   2.898  -0.533  0.00  0.00    +0.151 C 
BRANCH  16  17
ATOM     17  C   UNL     1       6.612   3.555   0.816  0.00  0.00    -0.013 C 
ATOM     18  C   UNL     1       7.701   4.224   1.104  0.00  0.00    +0.005 C 
ENDBRANCH  16  17
ENDBRANCH   9  16
ENDBRANCH   1  11
BRANCH   1  19
ATOM     19  C   UNL     1       1.343   1.993  -0.267  0.00  0.00    +0.061 A 
ATOM     20  C   UNL     1       1.417   3.377  -0.429  0.00  0.00    +0.015 A 
ATOM     21  C   UNL     1       0.261   4.126  -0.482  0.00  0.00    +0.001 A 
ATOM     22  C   UNL     1      -0.976   3.512  -0.375  0.00  0.00    +0.002 A 
ATOM     23  C   UNL     1      -1.065   2.144  -0.220  0.00  0.00    +0.025 A 
ATOM     24  C   UNL     1       0.089   1.374  -0.159  0.00  0.00    +0.060 A 
BRANCH  24  25
ATOM     25  N   UNL     1       0.002  -0.004   0.002  0.00  0.00    -0.216 N 
ATOM     26  H   UNL     1       0.664  -0.473   0.534  0.00  0.00    +0.174 HD
BRANCH  25  27
ATOM     27  S   UNL     1      -1.232  -0.845  -0.714  0.00  0.00    +0.072 S 
ATOM     28  O   UNL     1      -0.974  -2.223  -0.479  0.00  0.00    -0.150 OA
ATOM     29  O   UNL     1      -2.440  -0.216  -0.309  0.00  0.00    -0.150 OA
BRANCH  27  30
ATOM     30  C   UNL     1      -1.093  -0.595  -2.453  0.00  0.00    +0.108 A 
ATOM     31  C   UNL     1      -1.747   0.464  -3.053  0.00  0.00    +0.029 A 
ATOM     32  C   UNL     1      -1.634   0.662  -4.417  0.00  0.00    +0.002 A 
ATOM     33  C   UNL     1      -0.874  -0.204  -5.181  0.00  0.00    +0.000 A 
ATOM     34  C   UNL     1      -0.224  -1.266  -4.580  0.00  0.00    +0.002 A 
ATOM     35  C   UNL     1      -0.333  -1.462  -3.216  0.00  0.00    +0.029 A 
ENDBRANCH  27  30
ENDBRANCH  25  27
ENDBRANCH  24  25
ENDBRANCH   1  19
TORSDOF 8
