REMARK  Name = ZINC16856580
REMARK  8 active torsions:
REMARK  status: ('A' for Active; 'I' for Inactive)
REMARK    1  A    between atoms: C_1  and  C_2
REMARK    2  A    between atoms: N_5  and  C_7
REMARK    3  A    between atoms: C_10  and  C_13
REMARK    4  A    between atoms: C_13  and  O_15
REMARK    5  A    between atoms: O_15  and  C_16
REMARK    6  A    between atoms: C_18  and  N_31
REMARK    7  A    between atoms: C_19  and  C_29
REMARK    8  A    between atoms: C_20  and  C_22
REMARK                            x       y       z     vdW  Elec       q    Type
REMARK                         _______ _______ _______ _____ _____    ______ ____
ROOT
ATOM      1  C   UNL     1      -4.672   6.581   1.015  0.00  0.00    +0.068 C 
ATOM      2  C   UNL     1      -3.974   5.353   0.488  0.00  0.00    +0.068 A 
ATOM      3  C   UNL     1      -4.547   4.370  -0.308  0.00  0.00    +0.050 A 
ATOM      4  C   UNL     1      -3.592   3.429  -0.573  0.00  0.00    +0.230 A 
ATOM      5  N   UNL     1      -2.455   3.819   0.045  0.00  0.00    -0.200 N 
ATOM      6  N   UNL     1      -2.723   5.027   0.709  0.00  0.00    -0.168 NA
ATOM      7  O   UNL     1      -3.834   2.332  -1.333  0.00  0.00    -0.423 OA
ATOM      8  C   UNL     1      -4.971   2.314  -2.058  0.00  0.00    +0.200 C 
ATOM      9  C   UNL     1      -5.991   3.183  -1.880  0.00  0.00    +0.098 C 
ATOM     10  C   UNL     1      -5.955   4.269  -0.834  0.00  0.00    +0.104 C 
ENDROOT
BRANCH  10  11
ATOM     11  C   UNL     1      -6.895   3.922   0.291  0.00  0.00    +0.001 A 
ATOM     12  C   UNL     1      -6.707   2.760   1.016  0.00  0.00    +0.007 A 
ATOM     13  C   UNL     1      -7.568   2.441   2.049  0.00  0.00    +0.000 A 
ATOM     14  C   UNL     1      -8.619   3.284   2.359  0.00  0.00    +0.003 A 
ATOM     15  C   UNL     1      -8.810   4.446   1.636  0.00  0.00    +0.038 A 
ATOM     16  C   UNL     1      -7.944   4.769   0.604  0.00  0.00    +0.127 A 
ATOM     17  F   UNL     1      -8.126   5.908  -0.100  0.00  0.00    -0.205 F 
ENDBRANCH  10  11
BRANCH   5  18
ATOM     18  C   UNL     1      -1.234   3.139   0.030  0.00  0.00    +0.069 A 
ATOM     19  C   UNL     1      -1.214   1.749   0.017  0.00  0.00    +0.029 A 
ATOM     20  C   UNL     1      -0.013   1.076   0.008  0.00  0.00    +0.017 A 
ATOM     21  C   UNL     1       1.188   1.792   0.000  0.00  0.00    +0.059 A 
ATOM     22  C   UNL     1       1.164   3.189   0.008  0.00  0.00    +0.017 A 
ATOM     23  C   UNL     1      -0.041   3.856   0.023  0.00  0.00    +0.029 A 
BRANCH  21  24
ATOM     24  C   UNL     1       2.477   1.075  -0.015  0.00  0.00    +0.339 C 
ATOM     25  O   UNL     1       2.496  -0.140  -0.022  0.00  0.00    -0.245 OA
BRANCH  24  26
ATOM     26  O   UNL     1       3.633   1.767  -0.023  0.00  0.00    -0.464 OA
ATOM     27  C   UNL     1       4.863   0.995  -0.038  0.00  0.00    +0.280 C 
ENDBRANCH  24  26
ENDBRANCH  21  24
ENDBRANCH   5  18
BRANCH   8  28
ATOM     28  N   UNL     1      -5.099   1.358  -3.035  0.00  0.00    -0.328 N 
ATOM     29  H   UNL     1      -4.384   0.720  -3.186  0.00  0.00    +0.145 HD
ATOM     30  H   UNL     1      -5.905   1.319  -3.573  0.00  0.00    +0.145 HD
ENDBRANCH   8  28
BRANCH   9  31
ATOM     31  C   UNL     1      -7.148   3.068  -2.716  0.00  0.00    +0.101 C 
ATOM     32  N   UNL     1      -8.066   2.977  -3.379  0.00  0.00    -0.191 NA
ENDBRANCH   9  31
TORSDOF 6
