REMARK  Name = ZINC33265256
REMARK  11 active torsions:
REMARK  status: ('A' for Active; 'I' for Inactive)
REMARK    1  A    between atoms: C_1  and  C_2
REMARK    2  A    between atoms: C_2  and  C_3
REMARK    3  A    between atoms: C_3  and  N_4
REMARK    4  A    between atoms: N_10  and  C_12
REMARK    5  A    between atoms: C_14  and  S_15
REMARK    6  A    between atoms: S_15  and  C_16
REMARK    7  A    between atoms: C_16  and  C_17
REMARK    8  A    between atoms: N_19  and  C_20
REMARK    9  A    between atoms: C_21  and  C_28
REMARK   10  A    between atoms: C_23  and  C_27
REMARK   11  A    between atoms: C_25  and  C_26
REMARK                            x       y       z     vdW  Elec       q    Type
REMARK                         _______ _______ _______ _____ _____    ______ ____
ROOT
ATOM      1  S   UNL     1      -6.202   2.142  -0.435  0.00  0.00    -0.078 S 
ENDROOT
BRANCH   1  12
ATOM      2  N   UNL     1      -8.767   1.409  -0.794  0.00  0.00    -0.286 N 
ATOM      3  C   UNL     1      -9.794   0.569  -1.058  0.00  0.00    +0.283 A 
ATOM      4  O   UNL     1     -10.946   0.961  -1.058  0.00  0.00    -0.265 OA
ATOM      5  C   UNL     1      -9.468  -0.835  -1.342  0.00  0.00    +0.175 A 
ATOM      6  C   UNL     1      -8.046  -1.216  -1.317  0.00  0.00    +0.117 A 
ATOM      7  C   UNL     1      -8.043  -2.546  -1.610  0.00  0.00    +0.136 A 
ATOM      8  N   UNL     1      -9.329  -2.916  -1.790  0.00  0.00    -0.272 N 
ATOM      9  N   UNL     1     -10.135  -1.926  -1.633  0.00  0.00    -0.164 NA
ATOM     10  C   UNL     1      -9.755  -4.278  -2.122  0.00  0.00    +0.172 C 
ATOM     11  N   UNL     1      -7.119  -0.262  -1.041  0.00  0.00    -0.220 NA
ATOM     12  C   UNL     1      -7.471   0.972  -0.790  0.00  0.00    +0.173 A 
BRANCH   2  13
ATOM     13  C   UNL     1      -9.049   2.817  -0.505  0.00  0.00    +0.127 C 
BRANCH  13  15
ATOM     14  C   UNL     1      -9.334   5.088  -1.507  0.00  0.00    +0.005 C 
ATOM     15  C   UNL     1      -9.039   3.617  -1.809  0.00  0.00    +0.018 C 
ENDBRANCH  13  15
ENDBRANCH   2  13
ENDBRANCH   1  12
BRANCH   1  16
ATOM     16  C   UNL     1      -4.746   1.073  -0.559  0.00  0.00    +0.173 C 
BRANCH  16  17
ATOM     17  C   UNL     1      -3.504   1.882  -0.285  0.00  0.00    +0.228 C 
ATOM     18  O   UNL     1      -3.595   3.064  -0.031  0.00  0.00    -0.275 OA
ATOM     19  N   UNL     1      -2.294   1.291  -0.322  0.00  0.00    -0.284 N 
ATOM     20  H   UNL     1      -2.217   0.203  -0.461  0.00  0.00    +0.155 HD
BRANCH  19  21
ATOM     21  C   UNL     1      -1.134   2.062  -0.184  0.00  0.00    +0.039 A 
ATOM     22  C   UNL     1      -0.958   2.859   0.940  0.00  0.00    -0.029 A 
ATOM     23  C   UNL     1       0.190   3.615   1.076  0.00  0.00    +0.008 A 
ATOM     24  C   UNL     1       1.161   3.583   0.092  0.00  0.00    -0.050 A 
ATOM     25  C   UNL     1       0.986   2.795  -1.031  0.00  0.00    +0.008 A 
ATOM     26  C   UNL     1      -0.160   2.038  -1.173  0.00  0.00    -0.029 A 
ATOM     27  C   UNL     1      -0.350   1.180  -2.398  0.00  0.00    +0.045 C 
ATOM     28  C   UNL     1       2.413   4.408   0.244  0.00  0.00    +0.044 C 
ATOM     29  C   UNL     1      -2.016   2.893   2.013  0.00  0.00    +0.045 C 
ENDBRANCH  19  21
ENDBRANCH  16  17
ENDBRANCH   1  16
TORSDOF 6
