REMARK  Name = ZINC23858086
REMARK  8 active torsions:
REMARK  status: ('A' for Active; 'I' for Inactive)
REMARK    1  A    between atoms: C_1  and  N_2
REMARK    2  A    between atoms: C_9  and  C_11
REMARK    3  A    between atoms: C_11  and  C_13
REMARK    4  A    between atoms: C_11  and  N_29
REMARK    5  A    between atoms: C_13  and  N_14
REMARK    6  A    between atoms: C_15  and  C_17
REMARK    7  A    between atoms: N_19  and  C_20
REMARK    8  A    between atoms: C_25  and  N_26
REMARK                            x       y       z     vdW  Elec       q    Type
REMARK                         _______ _______ _______ _____ _____    ______ ____
ROOT
ATOM      1  C   UNL     1       0.497   0.924  -0.380  0.00  0.00    -0.020 C 
ENDROOT
BRANCH   1  10
ATOM      2  C   UNL     1      -1.493   2.715  -6.264  0.00  0.00    +0.129 C 
ATOM      3  N   UNL     1      -1.816   1.486  -5.526  0.00  0.00    -0.332 N 
ATOM      4  C   UNL     1      -1.272   0.296  -6.215  0.00  0.00    +0.109 C 
ATOM      5  C   UNL     1      -0.977  -0.668  -5.043  0.00  0.00    +0.056 C 
ATOM      6  C   UNL     1      -0.769   0.276  -3.876  0.00  0.00    -0.025 A 
ATOM      7  C   UNL     1      -1.276   1.519  -4.235  0.00  0.00    +0.033 A 
ATOM      8  C   UNL     1      -1.195   2.572  -3.326  0.00  0.00    +0.023 A 
ATOM      9  C   UNL     1      -0.627   2.375  -2.084  0.00  0.00    +0.004 A 
ATOM     10  C   UNL     1      -0.124   1.134  -1.737  0.00  0.00    -0.059 A 
ATOM     11  C   UNL     1      -0.199   0.085  -2.635  0.00  0.00    +0.007 A 
ENDBRANCH   1  10
BRANCH   1  12
ATOM     12  N   UNL     1      -0.539   1.030   0.655  0.00  0.00    +0.385 N 
ATOM     13  C   UNL     1      -1.789   0.398   0.215  0.00  0.00    -0.078 C 
ATOM     14  C   UNL     1      -2.796   0.398   1.367  0.00  0.00    -0.019 C 
ATOM     15  C   UNL     1      -3.060   1.840   1.808  0.00  0.00    -0.004 C 
ATOM     16  C   UNL     1      -1.735   2.491   2.216  0.00  0.00    -0.019 C 
ATOM     17  C   UNL     1      -0.759   2.431   1.039  0.00  0.00    -0.078 C 
ATOM     18  H   UNL     1      -0.186   0.490   1.546  0.00  0.00    -0.081 HD
ENDBRANCH   1  12
BRANCH   1  19
ATOM     19  C   UNL     1       1.569   1.990  -0.140  0.00  0.00    +0.094 C 
BRANCH  19  20
ATOM     20  N   UNL     1       2.217   1.748   1.152  0.00  0.00    -0.309 N 
ATOM     21  C   UNL     1       3.257   2.514   1.537  0.00  0.00    +0.299 C 
ATOM     22  O   UNL     1       3.657   3.403   0.815  0.00  0.00    -0.265 OA
ATOM     23  H   UNL     1       1.854   0.942   1.807  0.00  0.00    +0.149 HD
BRANCH  21  24
ATOM     24  C   UNL     1       3.917   2.267   2.854  0.00  0.00    +0.303 C 
ATOM     25  O   UNL     1       3.517   1.378   3.577  0.00  0.00    -0.265 OA
ATOM     26  N   UNL     1       4.958   3.032   3.240  0.00  0.00    -0.276 N 
ATOM     27  H   UNL     1       5.263   3.894   2.628  0.00  0.00    +0.155 HD
BRANCH  26  28
ATOM     28  C   UNL     1       5.649   2.731   4.416  0.00  0.00    +0.064 A 
ATOM     29  C   UNL     1       5.695   1.422   4.880  0.00  0.00    +0.025 A 
ATOM     30  C   UNL     1       6.382   1.127   6.041  0.00  0.00    +0.002 A 
ATOM     31  C   UNL     1       7.016   2.133   6.747  0.00  0.00    +0.002 A 
ATOM     32  C   UNL     1       6.968   3.438   6.290  0.00  0.00    +0.034 A 
ATOM     33  C   UNL     1       6.286   3.739   5.127  0.00  0.00    +0.147 A 
BRANCH  33  34
ATOM     34  N   UNL     1       6.234   5.136   4.640  0.00  0.00    +0.058 N 
ATOM     35  O   UNL     1       6.874   6.003   5.207  0.00  0.00    -0.126 OA
ATOM     36  O   UNL     1       5.552   5.418   3.671  0.00  0.00    -0.126 OA
ENDBRANCH  33  34
ENDBRANCH  26  28
ENDBRANCH  21  24
ENDBRANCH  19  20
ENDBRANCH   1  19
TORSDOF 7
