REMARK  Name = ZINC01198851
REMARK  11 active torsions:
REMARK  status: ('A' for Active; 'I' for Inactive)
REMARK    1  A    between atoms: C_1  and  C_2
REMARK    2  A    between atoms: C_5  and  S_8
REMARK    3  A    between atoms: S_8  and  N_11
REMARK    4  A    between atoms: N_11  and  C_12
REMARK    5  A    between atoms: C_17  and  C_18
REMARK    6  A    between atoms: C_18  and  C_20
REMARK    7  A    between atoms: C_18  and  N_53
REMARK    8  A    between atoms: C_26  and  C_27
REMARK    9  A    between atoms: C_26  and  N_53
REMARK   10  A    between atoms: C_27  and  O_29
REMARK   11  A    between atoms: O_29  and  C_30
REMARK                            x       y       z     vdW  Elec       q    Type
REMARK                         _______ _______ _______ _____ _____    ______ ____
ROOT
ATOM      1  C   UNL     1      -1.274  -1.817  -1.423  0.00  0.00    +0.050 A 
ATOM      2  C   UNL     1      -2.360  -2.142  -2.226  0.00  0.00    +0.026 A 
ATOM      3  C   UNL     1      -3.402  -1.248  -2.372  0.00  0.00    +0.017 A 
ATOM      4  C   UNL     1      -3.365  -0.028  -1.719  0.00  0.00    +0.018 A 
ATOM      5  C   UNL     1      -2.287   0.297  -0.915  0.00  0.00    +0.019 A 
ATOM      6  C   UNL     1      -1.239  -0.592  -0.770  0.00  0.00    -0.034 A 
ATOM      7 BR   UNL     1      -4.793   1.195  -1.921  0.00  0.00    -0.050 Br
ENDROOT
BRANCH   1   8
ATOM      8  N   UNL     1      -0.219  -2.720  -1.274  0.00  0.00    -0.216 N 
ATOM      9  H   UNL     1       0.241  -2.792  -0.423  0.00  0.00    +0.174 HD
BRANCH   8  10
ATOM     10  S   UNL     1       0.247  -3.668  -2.549  0.00  0.00    +0.072 S 
ATOM     11  O   UNL     1       1.410  -4.369  -2.131  0.00  0.00    -0.150 OA
ATOM     12  O   UNL     1      -0.922  -4.335  -3.007  0.00  0.00    -0.150 OA
BRANCH  10  17
ATOM     13  C   UNL     1       1.970   0.034  -6.991  0.00  0.00    +0.044 C 
ATOM     14  C   UNL     1       1.540  -0.891  -5.881  0.00  0.00    -0.050 A 
ATOM     15  C   UNL     1       2.462  -1.331  -4.951  0.00  0.00    +0.005 A 
ATOM     16  C   UNL     1       2.068  -2.179  -3.934  0.00  0.00    +0.029 A 
ATOM     17  C   UNL     1       0.750  -2.587  -3.846  0.00  0.00    +0.109 A 
ATOM     18  C   UNL     1      -0.172  -2.151  -4.779  0.00  0.00    +0.029 A 
ATOM     19  C   UNL     1       0.222  -1.299  -5.794  0.00  0.00    +0.005 A 
ENDBRANCH  10  17
ENDBRANCH   8  10
ENDBRANCH   1   8
BRANCH   6  20
ATOM     20  C   UNL     1      -0.063  -0.235   0.102  0.00  0.00    -0.007 C 
BRANCH  20  21
ATOM     21  C   UNL     1      -0.291  -0.762   1.495  0.00  0.00    -0.057 A 
ATOM     22  C   UNL     1      -1.202  -0.140   2.328  0.00  0.00    +0.002 A 
ATOM     23  C   UNL     1      -1.415  -0.626   3.605  0.00  0.00    +0.000 A 
ATOM     24  C   UNL     1      -0.710  -1.728   4.051  0.00  0.00    +0.000 A 
ATOM     25  C   UNL     1       0.204  -2.347   3.219  0.00  0.00    +0.000 A 
ATOM     26  C   UNL     1       0.414  -1.864   1.941  0.00  0.00    +0.002 A 
ENDBRANCH  20  21
BRANCH  20  27
ATOM     27  N   UNL     1       0.078   1.233   0.147  0.00  0.00    +0.393 N 
ATOM     28  H   UNL     1      -0.539   1.610   0.876  0.00  0.00    -0.084 HD
ATOM     29  H   UNL     1      -0.186   1.627  -0.763  0.00  0.00    -0.084 HD
BRANCH  27  30
ATOM     30  C   UNL     1       1.473   1.604   0.451  0.00  0.00    +0.041 C 
BRANCH  30  31
ATOM     31  C   UNL     1       1.587   3.106   0.491  0.00  0.00    +0.290 C 
ATOM     32  O   UNL     1       0.613   3.792   0.289  0.00  0.00    -0.253 OA
BRANCH  31  33
ATOM     33  O   UNL     1       2.771   3.683   0.752  0.00  0.00    -0.469 OA
ATOM     34  C   UNL     1       2.806   5.134   0.775  0.00  0.00    +0.280 C 
ENDBRANCH  31  33
ENDBRANCH  30  31
ENDBRANCH  27  30
ENDBRANCH  20  27
ENDBRANCH   6  20
TORSDOF 9
