REMARK  Name = ZINC06088454
REMARK  3 active torsions:
REMARK  status: ('A' for Active; 'I' for Inactive)
REMARK    1  A    between atoms: C_1  and  O_2
REMARK    2  A    between atoms: O_2  and  C_3
REMARK    3  A    between atoms: C_3  and  C_5
REMARK                            x       y       z     vdW  Elec       q    Type
REMARK                         _______ _______ _______ _____ _____    ______ ____
ROOT
ATOM      1  C   UNL     1      -3.743   3.186   0.056  0.00  0.00    +0.131 A 
ATOM      2  C   UNL     1      -2.546   3.867  -0.168  0.00  0.00    +0.012 A 
ATOM      3  C   UNL     1      -2.560   5.333  -0.150  0.00  0.00    +0.018 A 
ATOM      4  C   UNL     1      -1.371   6.058  -0.372  0.00  0.00    +0.032 A 
ATOM      5  C   UNL     1      -1.404   7.447  -0.351  0.00  0.00    +0.012 A 
ATOM      6  C   UNL     1      -2.600   8.110  -0.113  0.00  0.00    +0.003 A 
ATOM      7  C   UNL     1      -3.766   7.410   0.105  0.00  0.00    +0.026 A 
ATOM      8  C   UNL     1      -3.763   6.013   0.090  0.00  0.00    +0.050 A 
ATOM      9  N   UNL     1      -4.928   5.311   0.308  0.00  0.00    -0.321 N 
ATOM     10  H   UNL     1      -5.868   5.850   0.495  0.00  0.00    +0.169 HD
ATOM     11  C   UNL     1      -4.961   3.967   0.300  0.00  0.00    +0.264 A 
ATOM     12  O   UNL     1      -6.015   3.391   0.498  0.00  0.00    -0.267 OA
ATOM     13  C   UNL     1      -0.109   5.337  -0.624  0.00  0.00    +0.194 C 
ATOM     14  O   UNL     1       0.919   5.957  -0.816  0.00  0.00    -0.287 OA
ATOM     15  C   UNL     1      -0.098   3.860  -0.641  0.00  0.00    +0.030 A 
ATOM     16  C   UNL     1      -1.289   3.143  -0.419  0.00  0.00    -0.005 A 
ATOM     17  C   UNL     1      -1.269   1.750  -0.443  0.00  0.00    +0.009 A 
ATOM     18  C   UNL     1      -0.081   1.081  -0.673  0.00  0.00    +0.001 A 
ATOM     19  C   UNL     1       1.090   1.787  -0.891  0.00  0.00    +0.001 A 
ATOM     20  C   UNL     1       1.088   3.169  -0.877  0.00  0.00    +0.012 A 
ENDROOT
BRANCH   1  21
ATOM     21  C   UNL     1      -3.783   1.716   0.048  0.00  0.00    +0.345 C 
ATOM     22  O   UNL     1      -4.082   1.121  -0.969  0.00  0.00    -0.245 OA
BRANCH  21  24
ATOM     23  C   UNL     1      -3.547  -0.421   1.088  0.00  0.00    +0.280 C 
ATOM     24  O   UNL     1      -3.487   1.027   1.169  0.00  0.00    -0.464 OA
ENDBRANCH  21  24
ENDBRANCH   1  21
TORSDOF 2
