REMARK  Name = ZINC09019670
REMARK  5 active torsions:
REMARK  status: ('A' for Active; 'I' for Inactive)
REMARK    1  A    between atoms: C_1  and  C_2
REMARK    2  A    between atoms: C_2  and  C_31
REMARK    3  A    between atoms: C_6  and  N_23
REMARK    4  A    between atoms: N_14  and  C_17
REMARK    5  A    between atoms: C_17  and  C_18
REMARK                            x       y       z     vdW  Elec       q    Type
REMARK                         _______ _______ _______ _____ _____    ______ ____
ROOT
ATOM      1  C   UNL     1      -5.979  -0.805  -5.494  0.00  0.00    +0.041 C 
ATOM      2  C   UNL     1      -5.628   0.674  -5.661  0.00  0.00    +0.068 C 
ATOM      3  C   UNL     1      -4.288   0.966  -4.980  0.00  0.00    +0.070 C 
ATOM      4  C   UNL     1      -3.802   2.333  -5.381  0.00  0.00    -0.024 A 
ATOM      5  C   UNL     1      -4.305   2.989  -6.460  0.00  0.00    +0.020 A 
ATOM      6  C   UNL     1      -3.815   4.256  -6.798  0.00  0.00    +0.105 A 
ATOM      7  C   UNL     1      -2.360   4.220  -5.017  0.00  0.00    +0.089 A 
ATOM      8  C   UNL     1      -2.787   2.945  -4.602  0.00  0.00    +0.036 A 
ATOM      9  C   UNL     1      -2.124   2.401  -3.406  0.00  0.00    +0.094 A 
ATOM     10  C   UNL     1      -1.153   3.212  -2.822  0.00  0.00    +0.105 A 
ATOM     11  S   UNL     1      -1.113   4.667  -3.834  0.00  0.00    -0.064 S 
ATOM     12  C   UNL     1      -0.455   2.803  -1.679  0.00  0.00    +0.269 A 
ATOM     13  O   UNL     1       0.393   3.518  -1.171  0.00  0.00    -0.266 OA
ATOM     14  N   UNL     1      -0.750   1.590  -1.154  0.00  0.00    -0.291 N 
ATOM     15  C   UNL     1      -1.697   0.821  -1.750  0.00  0.00    +0.203 A 
ATOM     16  N   UNL     1      -2.349   1.197  -2.805  0.00  0.00    -0.236 NA
ATOM     17  C   UNL     1      -5.395   2.386  -7.309  0.00  0.00    +0.199 C 
ATOM     18  O   UNL     1      -5.504   0.986  -7.054  0.00  0.00    -0.369 OA
ATOM     19  C   UNL     1      -6.723   1.539  -5.035  0.00  0.00    +0.041 C 
ATOM     20  N   UNL     1      -2.840   4.893  -6.091  0.00  0.00    -0.337 N 
ATOM     21  H   UNL     1      -2.492   5.823  -6.354  0.00  0.00    +0.168 HD
ENDROOT
BRANCH   6  22
ATOM     22  N   UNL     1      -4.327   4.920  -7.903  0.00  0.00    -0.312 N 
ATOM     23  C   UNL     1      -3.279   5.162  -8.905  0.00  0.00    +0.134 C 
ATOM     24  C   UNL     1      -3.898   5.841 -10.130  0.00  0.00    +0.178 C 
ATOM     25  O   UNL     1      -4.546   7.049  -9.722  0.00  0.00    -0.377 OA
ATOM     26  C   UNL     1      -5.574   6.850  -8.747  0.00  0.00    +0.178 C 
ATOM     27  C   UNL     1      -4.972   6.181  -7.508  0.00  0.00    +0.134 C 
ENDBRANCH   6  22
BRANCH  14  28
ATOM     28  C   UNL     1      -0.051   1.111   0.041  0.00  0.00    +0.200 C 
BRANCH  28  29
ATOM     29  C   UNL     1      -0.805   1.544   1.272  0.00  0.00    +0.125 A 
ATOM     30  C   UNL     1      -1.783   0.849   1.880  0.00  0.00    +0.046 A 
ATOM     31  C   UNL     1      -2.205   1.619   2.988  0.00  0.00    +0.041 A 
ATOM     32  C   UNL     1      -1.466   2.743   2.985  0.00  0.00    +0.195 A 
ATOM     33  O   UNL     1      -0.620   2.692   1.944  0.00  0.00    -0.466 OA
ENDBRANCH  28  29
ENDBRANCH  14  28
TORSDOF 3
