REMARK  Name = ZINC35447772
REMARK  7 active torsions:
REMARK  status: ('A' for Active; 'I' for Inactive)
REMARK    1  A    between atoms: C_4  and  C_7
REMARK    2  A    between atoms: C_7  and  C_8
REMARK    3  A    between atoms: C_8  and  N_9
REMARK    4  A    between atoms: C_10  and  C_21
REMARK    5  A    between atoms: N_14  and  C_15
REMARK    6  A    between atoms: C_25  and  S_27
REMARK    7  A    between atoms: S_27  and  N_30
REMARK                            x       y       z     vdW  Elec       q    Type
REMARK                         _______ _______ _______ _____ _____    ______ ____
ROOT
ATOM      1  N   UNL     1       5.439  -1.774   1.237  0.00  0.00    -0.322 N 
ATOM      2  C   UNL     1       5.294  -3.097   1.203  0.00  0.00    +0.058 A 
ATOM      3  C   UNL     1       6.377  -3.894   1.444  0.00  0.00    +0.074 A 
ATOM      4  S   UNL     1       7.642  -2.663   1.728  0.00  0.00    -0.062 S 
ATOM      5  C   UNL     1       6.611  -1.222   1.494  0.00  0.00    +0.143 A 
ATOM      6  N   UNL     1       6.950   0.120   1.565  0.00  0.00    -0.295 N 
ATOM      7  H   UNL     1       6.260   0.799   1.506  0.00  0.00    +0.154 HD
ENDROOT
BRANCH   6   8
ATOM      8  C   UNL     1       8.287   0.495   1.721  0.00  0.00    +0.033 A 
ATOM      9  C   UNL     1       9.292  -0.230   1.093  0.00  0.00    +0.023 A 
ATOM     10  C   UNL     1      10.612   0.144   1.250  0.00  0.00    +0.002 A 
ATOM     11  C   UNL     1      10.935   1.238   2.030  0.00  0.00    +0.000 A 
ATOM     12  C   UNL     1       9.937   1.963   2.657  0.00  0.00    +0.002 A 
ATOM     13  C   UNL     1       8.615   1.598   2.501  0.00  0.00    +0.023 A 
ENDBRANCH   6   8
BRANCH   2  14
ATOM     14  C   UNL     1       3.971  -3.699   0.907  0.00  0.00    +0.001 A 
ATOM     15  C   UNL     1       3.117  -3.092  -0.012  0.00  0.00    +0.010 A 
ATOM     16  C   UNL     1       1.887  -3.657  -0.283  0.00  0.00    +0.003 A 
ATOM     17  C   UNL     1       1.502  -4.822   0.356  0.00  0.00    +0.028 A 
ATOM     18  C   UNL     1       2.345  -5.427   1.270  0.00  0.00    +0.106 A 
ATOM     19  C   UNL     1       3.581  -4.875   1.544  0.00  0.00    +0.038 A 
BRANCH  18  20
ATOM     20  S   UNL     1       1.846  -6.910   2.079  0.00  0.00    +0.061 S 
ATOM     21  O   UNL     1       2.585  -6.980   3.291  0.00  0.00    -0.153 OA
ATOM     22  O   UNL     1       0.425  -6.929   2.052  0.00  0.00    -0.153 OA
BRANCH  20  23
ATOM     23  N   UNL     1       2.354  -8.176   1.141  0.00  0.00    -0.177 NA
ATOM     24  C   UNL     1       1.469  -8.676   0.113  0.00  0.00    +0.109 C 
ATOM     25  C   UNL     1       0.560  -9.783   0.703  0.00  0.00    +0.017 C 
ATOM     26  C   UNL     1       1.343 -11.000   0.966  0.00  0.00    +0.001 C 
ATOM     27  C   UNL     1       2.448 -10.824   2.004  0.00  0.00    +0.001 C 
ATOM     28  C   UNL     1       3.686 -10.286   1.331  0.00  0.00    +0.017 C 
ATOM     29  C   UNL     1       3.695  -8.744   1.384  0.00  0.00    +0.109 C 
ENDBRANCH  20  23
ENDBRANCH  18  20
ENDBRANCH   2  14
BRANCH   1  30
ATOM     30  C   UNL     1       4.280  -0.916   0.978  0.00  0.00    +0.129 C 
BRANCH  30  31
ATOM     31  C   UNL     1       4.340  -0.398  -0.460  0.00  0.00    +0.057 C 
BRANCH  31  35
ATOM     32  C   UNL     1       0.774   1.784  -1.339  0.00  0.00    +0.000 A 
ATOM     33  C   UNL     1       1.872   2.438  -0.810  0.00  0.00    +0.000 A 
ATOM     34  C   UNL     1       3.026   1.732  -0.526  0.00  0.00    +0.004 A 
ATOM     35  C   UNL     1       3.082   0.372  -0.769  0.00  0.00    -0.046 A 
ATOM     36  C   UNL     1       1.984  -0.282  -1.296  0.00  0.00    +0.004 A 
ATOM     37  C   UNL     1       0.830   0.425  -1.582  0.00  0.00    +0.000 A 
ENDBRANCH  31  35
ENDBRANCH  30  31
ENDBRANCH   1  30
TORSDOF 7
