REMARK  Name = ZINC05224817
REMARK  4 active torsions:
REMARK  status: ('A' for Active; 'I' for Inactive)
REMARK    1  A    between atoms: C_7  and  C_12
REMARK    2  A    between atoms: C_12  and  N_22
REMARK    3  A    between atoms: C_13  and  N_14
REMARK    4  A    between atoms: N_14  and  C_15
REMARK                            x       y       z     vdW  Elec       q    Type
REMARK                         _______ _______ _______ _____ _____    ______ ____
ROOT
ATOM      1  C   UNL     1       1.605  -2.646  -1.243  0.00  0.00    +0.162 C 
ATOM      2  C   UNL     1       2.378  -3.709  -1.119  0.00  0.00    +0.104 C 
ENDROOT
BRANCH   1   9
ATOM      3  C   UNL     1       2.712   1.072   1.019  0.00  0.00    +0.000 A 
ATOM      4  C   UNL     1       1.638   1.936   0.894  0.00  0.00    +0.001 A 
ATOM      5  C   UNL     1       0.407   1.464   0.487  0.00  0.00    +0.015 A 
ATOM      6  C   UNL     1       0.246   0.107   0.198  0.00  0.00    +0.066 A 
ATOM      7  C   UNL     1       1.337  -0.756   0.327  0.00  0.00    +0.013 A 
ATOM      8  C   UNL     1       2.559  -0.275   0.734  0.00  0.00    +0.008 A 
ATOM      9  C   UNL     1       0.838  -2.128  -0.053  0.00  0.00    +0.262 C 
ATOM     10  O   UNL     1      -0.567  -1.975  -0.393  0.00  0.00    -0.446 OA
ATOM     11  C   UNL     1      -0.914  -0.685  -0.249  0.00  0.00    +0.341 C 
ATOM     12  O   UNL     1      -2.023  -0.237  -0.457  0.00  0.00    -0.245 OA
ENDBRANCH   1   9
BRANCH   1  13
ATOM     13  N   UNL     1       1.491  -1.962  -2.551  0.00  0.00    +0.058 N 
ATOM     14  O   UNL     1       2.195  -2.308  -3.482  0.00  0.00    -0.126 OA
ATOM     15  O   UNL     1       0.693  -1.054  -2.696  0.00  0.00    -0.126 OA
ENDBRANCH   1  13
BRANCH   2  16
ATOM     16  N   UNL     1       2.954  -4.284  -2.244  0.00  0.00    -0.319 N 
ATOM     17  H   UNL     1       2.700  -3.907  -3.246  0.00  0.00    +0.152 HD
BRANCH  16  18
ATOM     18  C   UNL     1       3.857  -5.343  -2.104  0.00  0.00    +0.031 A 
ATOM     19  C   UNL     1       4.182  -5.816  -0.840  0.00  0.00    +0.026 A 
ATOM     20  C   UNL     1       5.071  -6.865  -0.704  0.00  0.00    +0.040 A 
ATOM     21  C   UNL     1       5.644  -7.438  -1.826  0.00  0.00    +0.124 A 
ATOM     22  C   UNL     1       5.325  -6.964  -3.088  0.00  0.00    +0.040 A 
ATOM     23  C   UNL     1       4.433  -5.919  -3.229  0.00  0.00    +0.026 A 
ATOM     24  F   UNL     1       6.516  -8.461  -1.691  0.00  0.00    -0.205 F 
ENDBRANCH  16  18
ENDBRANCH   2  16
TORSDOF 4
