REMARK  Name = ZINC63150488
REMARK  6 active torsions:
REMARK  status: ('A' for Active; 'I' for Inactive)
REMARK    1  A    between atoms: C_4  and  C_7
REMARK    2  A    between atoms: C_17  and  C_19
REMARK    3  A    between atoms: C_25  and  C_27
REMARK    4  A    between atoms: C_27  and  S_28
REMARK    5  A    between atoms: S_28  and  C_29
REMARK    6  A    between atoms: C_33  and  C_35
REMARK                            x       y       z     vdW  Elec       q    Type
REMARK                         _______ _______ _______ _____ _____    ______ ____
ROOT
ATOM      1  C   UNL     1       3.692  -0.680  -0.037  0.00  0.00    +0.013 C 
ATOM      2  C   UNL     1       3.717  -2.025   0.057  0.00  0.00    -0.024 C 
ATOM      3  C   UNL     1       2.428  -2.790   0.059  0.00  0.00    +0.037 C 
ATOM      4  C   UNL     1       2.585  -4.273   0.328  0.00  0.00    +0.005 C 
ATOM      5  C   UNL     1       3.889  -4.854  -0.213  0.00  0.00    +0.012 C 
ATOM      6  C   UNL     1       5.051  -4.174   0.512  0.00  0.00    +0.066 C 
ATOM      7  C   UNL     1       4.960  -2.694   0.147  0.00  0.00    +0.068 C 
ATOM      8  N   UNL     1       6.154  -2.256  -0.057  0.00  0.00    -0.181 NA
ATOM      9  N   UNL     1       7.120  -3.269  -0.106  0.00  0.00    -0.184 N 
ATOM     10  C   UNL     1       6.413  -4.580  -0.079  0.00  0.00    +0.140 C 
ATOM     11  C   UNL     1       8.455  -3.092  -0.152  0.00  0.00    +0.245 C 
ATOM     12  O   UNL     1       9.193  -4.054  -0.193  0.00  0.00    -0.273 OA
ENDROOT
BRANCH   1  16
ATOM     13  C   UNL     1       0.027   1.326  -0.776  0.00  0.00    +0.000 A 
ATOM     14  C   UNL     1       0.909   1.827   0.165  0.00  0.00    +0.001 A 
ATOM     15  C   UNL     1       2.102   1.181   0.411  0.00  0.00    +0.008 A 
ATOM     16  C   UNL     1       2.420   0.016  -0.293  0.00  0.00    -0.025 A 
ATOM     17  C   UNL     1       1.524  -0.484  -1.243  0.00  0.00    +0.008 A 
ATOM     18  C   UNL     1       0.335   0.173  -1.478  0.00  0.00    +0.001 A 
ENDBRANCH   1  16
BRANCH  10  19
ATOM     19  C   UNL     1       7.112  -5.577   0.808  0.00  0.00    -0.024 A 
ATOM     20  C   UNL     1       7.785  -5.146   1.936  0.00  0.00    +0.005 A 
ATOM     21  C   UNL     1       8.426  -6.060   2.750  0.00  0.00    +0.000 A 
ATOM     22  C   UNL     1       8.394  -7.406   2.437  0.00  0.00    +0.000 A 
ATOM     23  C   UNL     1       7.720  -7.838   1.310  0.00  0.00    +0.000 A 
ATOM     24  C   UNL     1       7.075  -6.923   0.498  0.00  0.00    +0.005 A 
ENDBRANCH  10  19
BRANCH  11  25
ATOM     25  C   UNL     1       9.032  -1.700  -0.151  0.00  0.00    +0.172 C 
BRANCH  25  26
ATOM     26  S   UNL     1      10.842  -1.794  -0.218  0.00  0.00    -0.087 S 
BRANCH  26  27
ATOM     27  C   UNL     1      11.373  -0.060  -0.210  0.00  0.00    +0.339 C 
ATOM     28  N   UNL     1      10.871   0.627   0.993  0.00  0.00    -0.219 N 
ATOM     29  N   UNL     1      10.044   1.655   0.519  0.00  0.00    -0.144 NA
ATOM     30  C   UNL     1      10.010   1.643  -0.779  0.00  0.00    +0.254 C 
ATOM     31  O   UNL     1      10.776   0.652  -1.304  0.00  0.00    -0.442 OA
ATOM     32  H   UNL     1      11.071   0.412   1.917  0.00  0.00    +0.173 HD
BRANCH  30  33
ATOM     33  C   UNL     1       9.260   2.559  -1.558  0.00  0.00    +0.108 C 
ATOM     34  N   UNL     1       9.178   2.598  -2.863  0.00  0.00    -0.255 NA
ATOM     35  C   UNL     1       8.384   3.586  -3.316  0.00  0.00    +0.107 C 
ATOM     36  C   UNL     1       7.856   4.309  -2.328  0.00  0.00    -0.001 C 
ATOM     37  C   UNL     1       8.386   3.688  -1.049  0.00  0.00    +0.089 C 
ENDBRANCH  30  33
ENDBRANCH  26  27
ENDBRANCH  25  26
ENDBRANCH  11  25
TORSDOF 6
