REMARK  Name = ZINC06348545
REMARK  5 active torsions:
REMARK  status: ('A' for Active; 'I' for Inactive)
REMARK    1  A    between atoms: C_3  and  S_24
REMARK    2  A    between atoms: C_6  and  N_7
REMARK    3  A    between atoms: C_8  and  C_10
REMARK    4  A    between atoms: C_11  and  N_23
REMARK    5  A    between atoms: S_24  and  N_27
REMARK                            x       y       z     vdW  Elec       q    Type
REMARK                         _______ _______ _______ _____ _____    ______ ____
ROOT
ATOM      1  N   UNL     1      -1.236   2.069   0.019  0.00  0.00    -0.281 N 
ATOM      2  C   UNL     1      -1.254   3.412   0.128  0.00  0.00    +0.257 C 
ATOM      3  O   UNL     1      -0.209   4.037   0.127  0.00  0.00    -0.269 OA
ATOM      4  H   UNL     1      -2.069   1.576  -0.047  0.00  0.00    +0.155 HD
ENDROOT
BRANCH   2   5
ATOM      5  C   UNL     1      -2.490   4.097   0.245  0.00  0.00    +0.097 A 
ATOM      6  C   UNL     1      -2.707   5.451   0.370  0.00  0.00    +0.053 A 
ATOM      7  C   UNL     1      -4.079   5.924   0.471  0.00  0.00    +0.029 A 
ATOM      8  C   UNL     1      -4.553   7.250   0.602  0.00  0.00    +0.017 A 
ATOM      9  C   UNL     1      -5.913   7.484   0.690  0.00  0.00    -0.025 A 
ATOM     10  C   UNL     1      -6.800   6.425   0.643  0.00  0.00    +0.046 A 
ATOM     11  N   UNL     1      -6.347   5.184   0.522  0.00  0.00    -0.244 NA
ATOM     12  C   UNL     1      -5.066   4.914   0.438  0.00  0.00    +0.111 A 
ATOM     13  S   UNL     1      -4.134   3.411   0.272  0.00  0.00    -0.062 S 
ATOM     14  C   UNL     1      -8.293   6.615   0.719  0.00  0.00    +0.056 C 
ATOM     15  C   UNL     1      -8.630   7.995   1.281  0.00  0.00    +0.006 C 
ATOM     16  C   UNL     1      -7.847   9.046   0.486  0.00  0.00    +0.005 C 
ATOM     17  C   UNL     1      -6.367   8.913   0.838  0.00  0.00    +0.037 C 
BRANCH   6  18
ATOM     18  N   UNL     1      -1.643   6.343   0.396  0.00  0.00    -0.356 N 
ATOM     19  H   UNL     1      -0.733   6.014   0.325  0.00  0.00    +0.142 HD
ATOM     20  H   UNL     1      -1.810   7.294   0.485  0.00  0.00    +0.142 HD
ENDBRANCH   6  18
ENDBRANCH   2   5
BRANCH   1  26
ATOM     21  C   UNL     1       1.091   1.953  -0.615  0.00  0.00    +0.025 A 
ATOM     22  C   UNL     1       2.292   1.273  -0.636  0.00  0.00    +0.030 A 
ATOM     23  C   UNL     1       2.394   0.028  -0.042  0.00  0.00    +0.109 A 
ATOM     24  C   UNL     1       1.294  -0.540   0.573  0.00  0.00    +0.030 A 
ATOM     25  C   UNL     1       0.089   0.135   0.597  0.00  0.00    +0.025 A 
ATOM     26  C   UNL     1      -0.017   1.385   0.002  0.00  0.00    +0.034 A 
BRANCH  23  27
ATOM     27  S   UNL     1       3.929  -0.837  -0.070  0.00  0.00    +0.074 S 
ATOM     28  O   UNL     1       4.945   0.144  -0.229  0.00  0.00    -0.150 OA
ATOM     29  O   UNL     1       3.907  -1.740   1.026  0.00  0.00    -0.150 OA
BRANCH  27  30
ATOM     30  N   UNL     1       3.946  -1.761  -1.444  0.00  0.00    -0.194 N 
ATOM     31  C   UNL     1       3.945  -1.152  -2.689  0.00  0.00    +0.177 A 
ATOM     32  N   UNL     1       3.926   0.134  -2.983  0.00  0.00    -0.232 NA
ATOM     33  C   UNL     1       3.933   0.549  -4.236  0.00  0.00    +0.120 A 
ATOM     34  C   UNL     1       3.947  -0.379  -5.223  0.00  0.00    +0.068 A 
ATOM     35  S   UNL     1       3.960  -1.886  -4.263  0.00  0.00    -0.059 S 
ATOM     36  H   UNL     1       3.956  -2.729  -1.378  0.00  0.00    +0.176 HD
ENDBRANCH  27  30
ENDBRANCH  23  27
ENDBRANCH   1  26
TORSDOF 5
