REMARK  Name = ZINC35913029
REMARK  11 active torsions:
REMARK  status: ('A' for Active; 'I' for Inactive)
REMARK    1  A    between atoms: C_1  and  C_2
REMARK    2  A    between atoms: C_7  and  C_17
REMARK    3  A    between atoms: C_20  and  O_25
REMARK    4  A    between atoms: C_21  and  O_23
REMARK    5  A    between atoms: O_23  and  C_24
REMARK    6  A    between atoms: O_25  and  C_26
REMARK    7  A    between atoms: C_26  and  C_27
REMARK    8  A    between atoms: C_26  and  C_28
REMARK    9  A    between atoms: C_31  and  C_33
REMARK   10  A    between atoms: C_33  and  O_35
REMARK   11  A    between atoms: O_35  and  C_36
REMARK                            x       y       z     vdW  Elec       q    Type
REMARK                         _______ _______ _______ _____ _____    ______ ____
ROOT
ATOM      1  C   UNL     1       1.637   0.991   0.274  0.00  0.00    +0.009 C 
ATOM      2  C   UNL     1       1.747  -0.526   0.441  0.00  0.00    +0.013 C 
ATOM      3  C   UNL     1       0.398  -1.179   0.142  0.00  0.00    +0.055 C 
ATOM      4  C   UNL     1      -0.658  -0.641   1.094  0.00  0.00    +0.017 C 
ATOM      5  C   UNL     1      -0.329  -0.297   2.350  0.00  0.00    +0.037 C 
ATOM      6  C   UNL     1      -1.276   0.226   3.403  0.00  0.00    +0.136 C 
ATOM      7  N   UNL     1      -2.582   0.599   2.902  0.00  0.00    -0.331 N 
ATOM      8  C   UNL     1      -3.443  -0.354   2.360  0.00  0.00    +0.049 A 
ATOM      9  C   UNL     1      -4.649  -0.668   2.966  0.00  0.00    +0.025 A 
ATOM     10  C   UNL     1      -5.451  -1.653   2.416  0.00  0.00    +0.002 A 
ATOM     11  C   UNL     1      -5.053  -2.322   1.273  0.00  0.00    +0.002 A 
ATOM     12  C   UNL     1      -3.856  -2.000   0.656  0.00  0.00    +0.025 A 
ATOM     13  C   UNL     1      -3.064  -1.000   1.193  0.00  0.00    +0.052 A 
ATOM     14  N   UNL     1      -1.905  -0.554   0.566  0.00  0.00    -0.316 N 
ATOM     15  C   UNL     1       1.013  -0.400   2.788  0.00  0.00    +0.177 C 
ATOM     16  O   UNL     1       1.278  -0.100   3.936  0.00  0.00    -0.291 OA
ATOM     17  C   UNL     1       2.120  -0.864   1.889  0.00  0.00    +0.171 C 
ATOM     18  H   UNL     1      -2.862   1.526   2.944  0.00  0.00    +0.147 HD
ATOM     19  H   UNL     1      -1.995  -0.151  -0.312  0.00  0.00    +0.152 HD
ENDROOT
BRANCH   6  20
ATOM     20  C   UNL     1      -1.457  -0.839   4.455  0.00  0.00    -0.019 A 
ATOM     21  C   UNL     1      -2.056  -2.040   4.124  0.00  0.00    +0.009 A 
ATOM     22  C   UNL     1      -2.224  -3.019   5.085  0.00  0.00    +0.050 A 
ATOM     23  C   UNL     1      -1.792  -2.799   6.383  0.00  0.00    +0.162 A 
ATOM     24  C   UNL     1      -1.188  -1.589   6.715  0.00  0.00    +0.162 A 
ATOM     25  C   UNL     1      -1.019  -0.614   5.746  0.00  0.00    +0.055 A 
BRANCH  24  26
ATOM     26  O   UNL     1      -0.762  -1.368   7.988  0.00  0.00    -0.491 OA
ATOM     27  C   UNL     1      -0.152  -0.104   8.257  0.00  0.00    +0.277 C 
ENDBRANCH  24  26
BRANCH  23  28
ATOM     28  O   UNL     1      -1.957  -3.761   7.329  0.00  0.00    -0.486 OA
BRANCH  28  29
ATOM     29  C   UNL     1      -2.692  -4.926   6.948  0.00  0.00    +0.167 C 
ATOM     30  C   UNL     1      -1.753  -5.920   6.263  0.00  0.00    +0.051 C 
ATOM     31  C   UNL     1      -3.301  -5.574   8.193  0.00  0.00    +0.051 C 
ENDBRANCH  28  29
ENDBRANCH  23  28
ENDBRANCH   6  20
BRANCH  17  32
ATOM     32  C   UNL     1       3.402  -0.162   2.258  0.00  0.00    +0.318 C 
ATOM     33  O   UNL     1       3.962   0.538   1.448  0.00  0.00    -0.250 OA
BRANCH  32  34
ATOM     34  O   UNL     1       3.921  -0.315   3.486  0.00  0.00    -0.467 OA
ATOM     35  C   UNL     1       5.138   0.380   3.767  0.00  0.00    +0.280 C 
ENDBRANCH  32  34
ENDBRANCH  17  32
TORSDOF 6
