REMARK  Name = ZINC12949933
REMARK  9 active torsions:
REMARK  status: ('A' for Active; 'I' for Inactive)
REMARK    1  A    between atoms: C_1  and  C_2
REMARK    2  A    between atoms: C_2  and  C_3
REMARK    3  A    between atoms: C_12  and  O_14
REMARK    4  A    between atoms: O_14  and  C_15
REMARK    5  A    between atoms: C_15  and  C_17
REMARK    6  A    between atoms: C_17  and  N_18
REMARK    7  A    between atoms: C_23  and  C_30
REMARK    8  A    between atoms: C_26  and  C_28
REMARK    9  A    between atoms: C_26  and  C_29
REMARK                            x       y       z     vdW  Elec       q    Type
REMARK                         _______ _______ _______ _____ _____    ______ ____
ROOT
ATOM      1  C   UNL     1      -0.666  -2.030   3.058  0.00  0.00    +0.238 C 
ENDROOT
BRANCH   1   2
ATOM      2  N   UNL     1      -0.716  -1.298   1.790  0.00  0.00    -0.213 N 
ATOM      3  C   UNL     1       0.304  -0.561   1.299  0.00  0.00    +0.247 C 
ATOM      4  O   UNL     1       1.362  -0.355   1.854  0.00  0.00    -0.273 OA
ATOM      5  C   UNL     1      -0.164  -0.044  -0.039  0.00  0.00    +0.113 C 
ATOM      6  C   UNL     1      -0.195   1.478  -0.045  0.00  0.00    +0.038 C 
ATOM      7  C   UNL     1       1.231   2.026  -0.112  0.00  0.00    -0.011 C 
ATOM      8  C   UNL     1       1.862   1.575  -1.428  0.00  0.00    +0.009 C 
ATOM      9  C   UNL     1       1.952   0.056  -1.497  0.00  0.00    -0.032 C 
ATOM     10  C   UNL     1       0.633  -0.629  -1.187  0.00  0.00    +0.041 C 
ATOM     11  C   UNL     1       3.057  -0.447  -0.562  0.00  0.00    +0.011 C 
ATOM     12  C   UNL     1       2.360  -0.326  -2.937  0.00  0.00    +0.011 C 
ATOM     13  C   UNL     1       1.188   3.557  -0.068  0.00  0.00    +0.007 C 
ATOM     14  N   UNL     1      -1.555  -0.543  -0.130  0.00  0.00    -0.285 N 
ATOM     15  C   UNL     1      -1.776  -1.275   0.974  0.00  0.00    +0.310 C 
ATOM     16  O   UNL     1      -2.821  -1.851   1.208  0.00  0.00    -0.252 OA
ATOM     17  H   UNL     1      -2.174  -0.367  -0.855  0.00  0.00    +0.151 HD
ENDBRANCH   1   2
BRANCH   1  18
ATOM     18  C   UNL     1      -0.149  -3.424   2.812  0.00  0.00    +0.330 C 
ATOM     19  O   UNL     1       0.147  -3.771   1.693  0.00  0.00    -0.249 OA
BRANCH  18  20
ATOM     20  O   UNL     1      -0.018  -4.282   3.837  0.00  0.00    -0.425 OA
BRANCH  20  30
ATOM     21  C   UNL     1       1.525  -9.506   2.589  0.00  0.00    -0.030 A 
ATOM     22  C   UNL     1       0.564 -10.466   2.598  0.00  0.00    +0.096 A 
ATOM     23  C   UNL     1      -0.767 -10.123   2.916  0.00  0.00    +0.337 A 
ATOM     24  O   UNL     1      -1.619 -10.993   2.921  0.00  0.00    -0.245 OA
ATOM     25  O   UNL     1      -1.118  -8.862   3.213  0.00  0.00    -0.422 OA
ATOM     26  C   UNL     1      -0.212  -7.861   3.223  0.00  0.00    +0.143 A 
ATOM     27  C   UNL     1       1.134  -8.133   2.915  0.00  0.00    +0.021 A 
ATOM     28  C   UNL     1       2.077  -7.098   2.923  0.00  0.00    +0.015 A 
ATOM     29  C   UNL     1       1.686  -5.827   3.229  0.00  0.00    +0.047 A 
ATOM     30  C   UNL     1       0.355  -5.552   3.535  0.00  0.00    +0.135 A 
ATOM     31  C   UNL     1      -0.590  -6.565   3.537  0.00  0.00    +0.093 A 
BRANCH  21  33
ATOM     32  C   UNL     1       3.737 -10.094   3.543  0.00  0.00    +0.009 C 
ATOM     33  C   UNL     1       2.954  -9.846   2.252  0.00  0.00    +0.033 C 
ENDBRANCH  21  33
ENDBRANCH  20  30
ENDBRANCH  18  20
ENDBRANCH   1  18
TORSDOF 5
