REMARK  Name = ZINC65397284
REMARK  6 active torsions:
REMARK  status: ('A' for Active; 'I' for Inactive)
REMARK    1  A    between atoms: C_1  and  C_2
REMARK    2  A    between atoms: C_4  and  C_25
REMARK    3  A    between atoms: C_8  and  C_10
REMARK    4  A    between atoms: C_10  and  C_11
REMARK    5  A    between atoms: C_14  and  C_24
REMARK    6  A    between atoms: N_16  and  C_17
REMARK                            x       y       z     vdW  Elec       q    Type
REMARK                         _______ _______ _______ _____ _____    ______ ____
ROOT
ATOM      1  C   UNL     1      -1.215  -1.204   3.425  0.00  0.00    +0.183 C 
ATOM      2  N   UNL     1      -1.210  -2.652   3.160  0.00  0.00    -0.312 N 
ATOM      3  C   UNL     1      -2.378  -3.158   3.707  0.00  0.00    +0.112 C 
ATOM      4  N   UNL     1      -3.086  -2.241   4.260  0.00  0.00    -0.168 NA
ATOM      5  N   UNL     1      -2.475  -0.982   4.157  0.00  0.00    -0.203 N 
ATOM      6  C   UNL     1      -2.771  -4.612   3.658  0.00  0.00    +0.084 C 
ATOM      7  H   UNL     1      -0.524  -3.154   2.693  0.00  0.00    +0.149 HD
ENDROOT
BRANCH   5   8
ATOM      8  C   UNL     1      -2.960   0.232   4.644  0.00  0.00    +0.054 A 
ATOM      9  C   UNL     1      -2.232   1.400   4.452  0.00  0.00    +0.028 A 
ATOM     10  C   UNL     1      -2.714   2.601   4.936  0.00  0.00    +0.040 A 
ATOM     11  C   UNL     1      -3.922   2.641   5.612  0.00  0.00    +0.124 A 
ATOM     12  C   UNL     1      -4.649   1.479   5.805  0.00  0.00    +0.040 A 
ATOM     13  C   UNL     1      -4.175   0.277   5.318  0.00  0.00    +0.028 A 
ATOM     14  F   UNL     1      -4.391   3.817   6.083  0.00  0.00    -0.205 F 
ENDBRANCH   5   8
BRANCH   1  15
ATOM     15  C   UNL     1      -1.210  -0.417   2.113  0.00  0.00    +0.062 C 
BRANCH  15  23
ATOM     16  C   UNL     1      -0.653  -2.675   0.084  0.00  0.00    +0.061 C 
ATOM     17  C   UNL     1       0.326  -2.010   1.018  0.00  0.00    +0.030 C 
ATOM     18  N   UNL     1       1.352  -2.655   1.492  0.00  0.00    -0.243 NA
ATOM     19  C   UNL     1       2.234  -2.093   2.320  0.00  0.00    +0.119 C 
ATOM     20  N   UNL     1       2.189  -0.863   2.752  0.00  0.00    -0.165 NA
ATOM     21  C   UNL     1       1.210  -0.020   2.387  0.00  0.00    +0.246 C 
ATOM     22  O   UNL     1       1.172   1.124   2.792  0.00  0.00    -0.273 OA
ATOM     23  C   UNL     1       0.155  -0.562   1.437  0.00  0.00    +0.124 C 
ATOM     24  C   UNL     1       3.378  -2.951   2.796  0.00  0.00    +0.085 C 
ENDBRANCH  15  23
ENDBRANCH   1  15
TORSDOF 3
