REMARK  Name = ZINC21360626
REMARK  4 active torsions:
REMARK  status: ('A' for Active; 'I' for Inactive)
REMARK    1  A    between atoms: N_9  and  C_23
REMARK    2  A    between atoms: C_10  and  C_13
REMARK    3  A    between atoms: C_15  and  N_20
REMARK    4  A    between atoms: C_23  and  C_24
REMARK                            x       y       z     vdW  Elec       q    Type
REMARK                         _______ _______ _______ _____ _____    ______ ____
ROOT
ATOM      1  C   UNL     1      -3.949   1.423  -4.926  0.00  0.00    +0.001 A 
ATOM      2  C   UNL     1      -3.837   2.796  -5.077  0.00  0.00    +0.002 A 
ATOM      3  C   UNL     1      -3.055   3.537  -4.212  0.00  0.00    +0.024 A 
ATOM      4  C   UNL     1      -2.377   2.901  -3.187  0.00  0.00    +0.041 A 
ATOM      5  C   UNL     1      -2.491   1.508  -3.029  0.00  0.00    +0.058 A 
ATOM      6  C   UNL     1      -3.282   0.774  -3.908  0.00  0.00    +0.015 A 
ATOM      7  C   UNL     1      -1.759   0.864  -1.922  0.00  0.00    +0.250 C 
ATOM      8  O   UNL     1      -2.014  -0.280  -1.599  0.00  0.00    -0.270 OA
ATOM      9  N   UNL     1      -0.806   1.561  -1.269  0.00  0.00    -0.271 N 
ATOM     10  C   UNL     1      -0.424   2.906  -1.697  0.00  0.00    +0.194 C 
ATOM     11  N   UNL     1      -1.574   3.598  -2.291  0.00  0.00    -0.321 N 
ATOM     12  H   UNL     1      -1.785   4.644  -2.025  0.00  0.00    +0.148 HD
ENDROOT
BRANCH  10  13
ATOM     13  C   UNL     1       0.679   2.811  -2.719  0.00  0.00    +0.011 A 
ATOM     14  C   UNL     1       0.821   1.664  -3.478  0.00  0.00    +0.041 A 
ATOM     15  C   UNL     1       1.833   1.577  -4.416  0.00  0.00    +0.127 A 
ATOM     16  C   UNL     1       2.703   2.636  -4.596  0.00  0.00    +0.034 A 
ATOM     17  C   UNL     1       2.562   3.782  -3.837  0.00  0.00    +0.022 A 
ATOM     18  C   UNL     1       1.547   3.873  -2.902  0.00  0.00    +0.048 A 
ATOM     19 CL   UNL     1       1.365   5.316  -1.954  0.00  0.00    -0.083 Cl
BRANCH  15  20
ATOM     20  N   UNL     1       1.984   0.348  -5.228  0.00  0.00    +0.056 N 
ATOM     21  O   UNL     1       1.218  -0.585  -5.069  0.00  0.00    -0.126 OA
ATOM     22  O   UNL     1       2.875   0.271  -6.054  0.00  0.00    -0.126 OA
ENDBRANCH  15  20
ENDBRANCH  10  13
BRANCH   9  23
ATOM     23  C   UNL     1      -0.137   0.956  -0.114  0.00  0.00    +0.145 C 
BRANCH  23  24
ATOM     24  C   UNL     1      -0.864   1.345   1.147  0.00  0.00    -0.026 A 
ATOM     25  C   UNL     1      -0.495   2.489   1.831  0.00  0.00    +0.009 A 
ATOM     26  C   UNL     1      -1.162   2.853   2.986  0.00  0.00    +0.050 A 
ATOM     27  C   UNL     1      -2.195   2.065   3.467  0.00  0.00    +0.166 A 
ATOM     28  C   UNL     1      -2.563   0.910   2.781  0.00  0.00    +0.167 A 
ATOM     29  C   UNL     1      -1.894   0.555   1.621  0.00  0.00    +0.054 A 
ATOM     30  O   UNL     1      -3.595   0.316   3.450  0.00  0.00    -0.453 OA
ATOM     31  C   UNL     1      -3.583   0.896   4.768  0.00  0.00    +0.466 C 
ATOM     32  O   UNL     1      -2.996   2.195   4.565  0.00  0.00    -0.453 OA
ENDBRANCH  23  24
ENDBRANCH   9  23
TORSDOF 4
