REMARK  Name = ZINC38586321
REMARK  2 active torsions:
REMARK  status: ('A' for Active; 'I' for Inactive)
REMARK    1  A    between atoms: C_1  and  C_2
REMARK    2  A    between atoms: C_4  and  C_24
REMARK                            x       y       z     vdW  Elec       q    Type
REMARK                         _______ _______ _______ _____ _____    ______ ____
ROOT
ATOM      1  C   UNL     1      -0.198   1.546  -0.526  0.00  0.00    +0.062 C 
ATOM      2  C   UNL     1      -0.142   0.040  -0.514  0.00  0.00    +0.022 C 
ATOM      3  C   UNL     1      -1.142  -0.729  -0.189  0.00  0.00    -0.004 C 
ATOM      4  C   UNL     1      -2.496  -0.389   0.386  0.00  0.00    +0.061 C 
ATOM      5  C   UNL     1      -2.569  -1.082   1.754  0.00  0.00    +0.108 C 
ATOM      6  C   UNL     1      -1.922  -2.429   1.730  0.00  0.00    +0.216 C 
ATOM      7  O   UNL     1      -2.246  -3.196   2.611  0.00  0.00    -0.276 OA
ATOM      8  N   UNL     1      -1.030  -2.884   0.850  0.00  0.00    -0.292 N 
ATOM      9  C   UNL     1      -0.702  -2.171  -0.378  0.00  0.00    +0.210 C 
ATOM     10  N   UNL     1       0.739  -2.070  -0.622  0.00  0.00    -0.213 N 
ATOM     11  N   UNL     1       0.979  -0.703  -0.854  0.00  0.00    -0.265 N 
ATOM     12  C   UNL     1       1.640  -3.073  -0.628  0.00  0.00    +0.150 C 
ATOM     13  N   UNL     1       1.277  -4.323  -0.404  0.00  0.00    -0.221 NA
ATOM     14  C   UNL     1       2.129  -5.340  -0.334  0.00  0.00    +0.225 C 
ATOM     15  N   UNL     1       3.435  -5.165  -0.165  0.00  0.00    -0.218 NA
ATOM     16  C   UNL     1       3.855  -3.904  -0.138  0.00  0.00    +0.164 C 
ATOM     17  N   UNL     1       4.819  -3.280   0.470  0.00  0.00    -0.219 NA
ATOM     18  C   UNL     1       4.620  -1.956   0.467  0.00  0.00    +0.218 C 
ATOM     19  N   UNL     1       3.612  -1.590  -0.275  0.00  0.00    -0.253 NA
ATOM     20  C   UNL     1       3.098  -2.812  -0.896  0.00  0.00    +0.239 C 
ATOM     21  H   UNL     1      -0.581  -3.723   1.034  0.00  0.00    +0.151 HD
ATOM     22  H   UNL     1       1.807  -0.334  -1.199  0.00  0.00    +0.170 HD
ENDROOT
BRANCH   4  23
ATOM     23  C   UNL     1      -2.629   1.103   0.551  0.00  0.00    -0.003 A 
ATOM     24  C   UNL     1      -3.538   1.806  -0.219  0.00  0.00    +0.046 A 
ATOM     25  C   UNL     1      -3.659   3.176  -0.067  0.00  0.00    +0.020 A 
ATOM     26  C   UNL     1      -2.872   3.842   0.853  0.00  0.00    +0.003 A 
ATOM     27  C   UNL     1      -1.964   3.140   1.623  0.00  0.00    +0.020 A 
ATOM     28  C   UNL     1      -1.846   1.770   1.476  0.00  0.00    +0.046 A 
ATOM     29 CL   UNL     1      -0.710   0.887   2.448  0.00  0.00    -0.083 Cl
ATOM     30 CL   UNL     1      -4.526   0.970  -1.376  0.00  0.00    -0.083 Cl
ENDBRANCH   4  23
TORSDOF 1
