REMARK  Name = ZINC16484659
REMARK  13 active torsions:
REMARK  status: ('A' for Active; 'I' for Inactive)
REMARK    1  A    between atoms: C_1  and  C_2
REMARK    2  A    between atoms: C_2  and  O_3
REMARK    3  A    between atoms: O_3  and  C_4
REMARK    4  A    between atoms: C_4  and  C_6
REMARK    5  A    between atoms: C_7  and  C_33
REMARK    6  A    between atoms: C_8  and  C_22
REMARK    7  A    between atoms: C_10  and  N_11
REMARK    8  A    between atoms: C_12  and  C_14
REMARK    9  A    between atoms: C_14  and  N_66
REMARK   10  A    between atoms: C_19  and  C_21
REMARK   11  A    between atoms: N_24  and  C_25
REMARK   12  A    between atoms: C_28  and  C_32
REMARK   13  A    between atoms: C_30  and  C_31
REMARK                            x       y       z     vdW  Elec       q    Type
REMARK                         _______ _______ _______ _____ _____    ______ ____
ROOT
ATOM      1  C   UNL     1       0.856  -0.374  -0.195  0.00  0.00    +0.091 A 
ATOM      2  C   UNL     1       1.967   0.455  -0.226  0.00  0.00    -0.015 A 
ATOM      3  C   UNL     1       1.753   1.807  -0.199  0.00  0.00    +0.080 A 
ATOM      4  S   UNL     1      -0.025   1.921  -0.128  0.00  0.00    -0.068 S 
ATOM      5  C   UNL     1      -0.405   0.230  -0.137  0.00  0.00    +0.087 A 
ATOM      6  C   UNL     1       3.362  -0.112  -0.288  0.00  0.00    +0.046 C 
ENDROOT
BRANCH   5   7
ATOM      7  N   UNL     1      -1.647  -0.373  -0.097  0.00  0.00    -0.281 N 
ATOM      8  C   UNL     1      -2.761   0.383  -0.043  0.00  0.00    +0.201 C 
ATOM      9  O   UNL     1      -2.674   1.592  -0.029  0.00  0.00    -0.278 OA
ATOM     10  H   UNL     1      -1.717  -1.341  -0.107  0.00  0.00    +0.155 HD
BRANCH   8  11
ATOM     11  C   UNL     1      -4.117  -0.275   0.001  0.00  0.00    +0.019 C 
BRANCH  11  18
ATOM     12  C   UNL     1      -5.070   1.651   1.115  0.00  0.00    -0.078 C 
ATOM     13  C   UNL     1      -6.257   2.617   1.111  0.00  0.00    -0.019 C 
ATOM     14  C   UNL     1      -6.245   3.429  -0.188  0.00  0.00    -0.003 C 
ATOM     15  C   UNL     1      -6.293   2.469  -1.380  0.00  0.00    -0.016 C 
ATOM     16  C   UNL     1      -5.105   1.508  -1.304  0.00  0.00    -0.071 C 
ATOM     17  C   UNL     1      -5.161   0.534  -2.483  0.00  0.00    -0.013 C 
ATOM     18  N   UNL     1      -5.189   0.740  -0.043  0.00  0.00    +0.387 N 
ATOM     19  H   UNL     1      -6.099   0.266  -0.002  0.00  0.00    -0.081 HD
ENDBRANCH  11  18
ENDBRANCH   8  11
ENDBRANCH   5   7
BRANCH   3  20
ATOM     20  C   UNL     1       2.739   2.889  -0.222  0.00  0.00    +0.255 C 
ATOM     21  O   UNL     1       3.927   2.629  -0.273  0.00  0.00    -0.269 OA
ATOM     22  N   UNL     1       2.330   4.173  -0.188  0.00  0.00    -0.281 N 
ATOM     23  H   UNL     1       1.384   4.382  -0.227  0.00  0.00    +0.155 HD
BRANCH  22  24
ATOM     24  C   UNL     1       3.271   5.204  -0.097  0.00  0.00    +0.037 A 
ATOM     25  C   UNL     1       4.521   4.958   0.458  0.00  0.00    +0.024 A 
ATOM     26  C   UNL     1       5.447   5.978   0.547  0.00  0.00    +0.005 A 
ATOM     27  C   UNL     1       5.133   7.243   0.084  0.00  0.00    -0.050 A 
ATOM     28  C   UNL     1       3.889   7.490  -0.468  0.00  0.00    +0.008 A 
ATOM     29  C   UNL     1       2.960   6.473  -0.565  0.00  0.00    -0.029 A 
ATOM     30  C   UNL     1       1.607   6.743  -1.172  0.00  0.00    +0.045 C 
ATOM     31  C   UNL     1       6.147   8.353   0.182  0.00  0.00    +0.044 C 
ENDBRANCH  22  24
ENDBRANCH   3  20
BRANCH   1  32
ATOM     32  C   UNL     1       0.997  -1.834  -0.221  0.00  0.00    +0.342 C 
ATOM     33  O   UNL     1       1.015  -2.424  -1.284  0.00  0.00    -0.245 OA
BRANCH  32  34
ATOM     34  O   UNL     1       1.108  -2.522   0.933  0.00  0.00    -0.461 OA
BRANCH  34  36
ATOM     35  C   UNL     1       1.357  -4.566   2.233  0.00  0.00    +0.048 C 
ATOM     36  C   UNL     1       1.245  -3.963   0.831  0.00  0.00    +0.229 C 
ENDBRANCH  34  36
ENDBRANCH  32  34
ENDBRANCH   1  32
TORSDOF 8
