REMARK  Name = ZINC10798155
REMARK  10 active torsions:
REMARK  status: ('A' for Active; 'I' for Inactive)
REMARK    1  A    between atoms: C_1  and  C_2
REMARK    2  A    between atoms: C_2  and  C_4
REMARK    3  A    between atoms: C_2  and  S_16
REMARK    4  A    between atoms: C_4  and  C_6
REMARK    5  A    between atoms: S_16  and  C_17
REMARK    6  A    between atoms: C_20  and  S_22
REMARK    7  A    between atoms: S_22  and  C_23
REMARK    8  A    between atoms: C_23  and  C_25
REMARK    9  A    between atoms: C_23  and  C_26
REMARK   10  A    between atoms: C_26  and  C_28
REMARK                            x       y       z     vdW  Elec       q    Type
REMARK                         _______ _______ _______ _____ _____    ______ ____
ROOT
ATOM      1  C   UNL     1      -1.753   3.813  -0.112  0.00  0.00    +0.160 A 
ATOM      2  N   UNL     1      -2.353   3.022  -0.981  0.00  0.00    -0.134 NA
ATOM      3  N   UNL     1      -3.098   3.566  -2.001  0.00  0.00    -0.134 NA
ATOM      4  C   UNL     1      -3.200   4.876  -2.113  0.00  0.00    +0.160 A 
ATOM      5  S   UNL     1      -2.219   5.425  -0.725  0.00  0.00    -0.033 S 
ENDROOT
BRANCH   1   6
ATOM      6  S   UNL     1      -0.753   3.393   1.277  0.00  0.00    -0.086 S 
BRANCH   6   8
ATOM      7  C   UNL     1      -0.013   1.086   0.008  0.00  0.00    +0.028 C 
ATOM      8  C   UNL     1      -0.729   1.579   1.267  0.00  0.00    +0.121 C 
BRANCH   8   9
ATOM      9  C   UNL     1       0.000   1.080   2.488  0.00  0.00    +0.178 C 
ATOM     10  O   UNL     1       0.826   1.784   3.032  0.00  0.00    -0.291 OA
BRANCH   9  11
ATOM     11  C   UNL     1      -0.278  -0.212   3.000  0.00  0.00    +0.043 A 
ATOM     12  C   UNL     1      -1.181  -1.125   2.498  0.00  0.00    +0.095 A 
ATOM     13  N   UNL     1      -1.165  -2.239   3.254  0.00  0.00    -0.360 N 
ATOM     14  H   UNL     1      -1.716  -3.021   3.096  0.00  0.00    +0.165 HD
ATOM     15  C   UNL     1      -0.256  -2.116   4.286  0.00  0.00    +0.047 A 
ATOM     16  C   UNL     1       0.345  -0.852   4.175  0.00  0.00    +0.010 A 
ATOM     17  C   UNL     1       1.306  -0.452   5.098  0.00  0.00    +0.011 A 
ATOM     18  C   UNL     1       1.675  -1.307   6.114  0.00  0.00    +0.001 A 
ATOM     19  C   UNL     1       1.087  -2.559   6.222  0.00  0.00    +0.002 A 
ATOM     20  C   UNL     1       0.130  -2.965   5.318  0.00  0.00    +0.026 A 
ENDBRANCH   9  11
ENDBRANCH   8   9
ENDBRANCH   6   8
ENDBRANCH   1   6
BRANCH   4  21
ATOM     21  S   UNL     1      -4.072   5.830  -3.311  0.00  0.00    -0.086 S 
BRANCH  21  22
ATOM     22  C   UNL     1      -4.826   4.588  -4.397  0.00  0.00    +0.121 C 
ATOM     23  C   UNL     1      -5.854   3.776  -3.606  0.00  0.00    +0.028 C 
BRANCH  22  24
ATOM     24  C   UNL     1      -5.509   5.277  -5.550  0.00  0.00    +0.178 C 
ATOM     25  O   UNL     1      -5.892   6.423  -5.431  0.00  0.00    -0.291 OA
BRANCH  24  26
ATOM     26  C   UNL     1      -5.703   4.588  -6.773  0.00  0.00    +0.043 A 
ATOM     27  C   UNL     1      -5.327   3.293  -7.062  0.00  0.00    +0.095 A 
ATOM     28  N   UNL     1      -5.681   2.991  -8.326  0.00  0.00    -0.360 N 
ATOM     29  H   UNL     1      -5.520   2.136  -8.754  0.00  0.00    +0.165 HD
ATOM     30  C   UNL     1      -6.304   4.066  -8.928  0.00  0.00    +0.047 A 
ATOM     31  C   UNL     1      -6.354   5.109  -7.991  0.00  0.00    +0.010 A 
ATOM     32  C   UNL     1      -6.928   6.330  -8.333  0.00  0.00    +0.011 A 
ATOM     33  C   UNL     1      -7.458   6.505  -9.593  0.00  0.00    +0.001 A 
ATOM     34  C   UNL     1      -7.415   5.474 -10.519  0.00  0.00    +0.002 A 
ATOM     35  C   UNL     1      -6.844   4.262 -10.195  0.00  0.00    +0.026 A 
ENDBRANCH  24  26
ENDBRANCH  22  24
ENDBRANCH  21  22
ENDBRANCH   4  21
TORSDOF 8
