REMARK  Name = ZINC03007067
REMARK  9 active torsions:
REMARK  status: ('A' for Active; 'I' for Inactive)
REMARK    1  A    between atoms: C_1  and  C_2
REMARK    2  A    between atoms: C_2  and  N_3
REMARK    3  A    between atoms: C_9  and  N_14
REMARK    4  A    between atoms: C_10  and  C_11
REMARK    5  A    between atoms: C_15  and  C_17
REMARK    6  A    between atoms: C_20  and  S_23
REMARK    7  A    between atoms: S_23  and  N_26
REMARK    8  A    between atoms: N_26  and  C_27
REMARK    9  A    between atoms: N_26  and  C_28
REMARK                            x       y       z     vdW  Elec       q    Type
REMARK                         _______ _______ _______ _____ _____    ______ ____
ROOT
ATOM      1  N   UNL     1      -7.077  -2.013  -2.250  0.00  0.00    -0.275 N 
ATOM      2  C   UNL     1      -7.639  -1.254  -3.212  0.00  0.00    +0.249 C 
ATOM      3  O   UNL     1      -7.018  -0.328  -3.695  0.00  0.00    -0.270 OA
ATOM      4  H   UNL     1      -7.573  -2.752  -1.864  0.00  0.00    +0.156 HD
ENDROOT
BRANCH   1  11
ATOM      5  N   UNL     1      -1.376  -0.512   0.012  0.00  0.00    +0.383 N 
ATOM      6  C   UNL     1      -1.356  -1.976   0.129  0.00  0.00    -0.074 C 
ATOM      7  C   UNL     1      -2.759  -2.500   0.455  0.00  0.00    +0.018 C 
ATOM      8  C   UNL     1      -3.725  -1.914  -0.566  0.00  0.00    -0.027 A 
ATOM      9  C   UNL     1      -3.362  -0.844  -1.309  0.00  0.00    -0.021 A 
ATOM     10  S   UNL     1      -4.762  -0.518  -2.336  0.00  0.00    -0.079 S 
ATOM     11  C   UNL     1      -5.792  -1.738  -1.812  0.00  0.00    +0.085 A 
ATOM     12  C   UNL     1      -5.060  -2.405  -0.841  0.00  0.00    +0.068 A 
ATOM     13  C   UNL     1      -2.052  -0.124  -1.239  0.00  0.00    -0.035 C 
ATOM     14  H   UNL     1      -1.873  -0.120   0.798  0.00  0.00    -0.081 HD
BRANCH  12  15
ATOM     15  C   UNL     1      -5.614  -3.558  -0.124  0.00  0.00    +0.244 C 
ATOM     16  O   UNL     1      -6.233  -3.392   0.911  0.00  0.00    -0.270 OA
ATOM     17  N   UNL     1      -5.438  -4.803  -0.611  0.00  0.00    -0.325 N 
ATOM     18  H   UNL     1      -4.944  -4.936  -1.435  0.00  0.00    +0.145 HD
ATOM     19  H   UNL     1      -5.804  -5.566  -0.137  0.00  0.00    +0.145 HD
ENDBRANCH  12  15
BRANCH   5  21
ATOM     20  C   UNL     1      -0.019   1.526   0.010  0.00  0.00    -0.017 C 
ATOM     21  C   UNL     1       0.002  -0.004   0.002  0.00  0.00    -0.082 C 
ENDBRANCH   5  21
ENDBRANCH   1  11
BRANCH   2  22
ATOM     22  C   UNL     1      -9.010  -1.547  -3.678  0.00  0.00    +0.037 A 
ATOM     23  C   UNL     1      -9.729  -2.607  -3.121  0.00  0.00    +0.015 A 
ATOM     24  C   UNL     1     -11.008  -2.875  -3.561  0.00  0.00    +0.029 A 
ATOM     25  C   UNL     1     -11.580  -2.097  -4.552  0.00  0.00    +0.106 A 
ATOM     26  C   UNL     1     -10.873  -1.046  -5.109  0.00  0.00    +0.029 A 
ATOM     27  C   UNL     1      -9.595  -0.763  -4.674  0.00  0.00    +0.015 A 
BRANCH  25  28
ATOM     28  S   UNL     1     -13.214  -2.447  -5.109  0.00  0.00    +0.061 S 
ATOM     29  O   UNL     1     -13.318  -1.919  -6.423  0.00  0.00    -0.153 OA
ATOM     30  O   UNL     1     -13.458  -3.817  -4.817  0.00  0.00    -0.153 OA
BRANCH  28  31
ATOM     31  N   UNL     1     -14.252  -1.570  -4.162  0.00  0.00    -0.177 NA
ATOM     32  C   UNL     1     -14.640  -0.215  -4.562  0.00  0.00    +0.132 C 
BRANCH  31  33
ATOM     33  C   UNL     1     -14.783  -2.149  -2.925  0.00  0.00    +0.080 C 
ATOM     34  C   UNL     1     -16.309  -2.209  -3.004  0.00  0.00    +0.020 C 
ATOM     35  C   UNL     1     -16.863  -2.813  -1.712  0.00  0.00    +0.002 C 
ATOM     36  C   UNL     1     -16.448  -1.944  -0.524  0.00  0.00    +0.000 C 
ATOM     37  C   UNL     1     -14.921  -1.884  -0.445  0.00  0.00    +0.002 C 
ATOM     38  C   UNL     1     -14.367  -1.280  -1.737  0.00  0.00    +0.020 C 
ENDBRANCH  31  33
ENDBRANCH  28  31
ENDBRANCH  25  28
ENDBRANCH   2  22
TORSDOF 7
