REMARK  Name = ZINC39967368
REMARK  17 active torsions:
REMARK  status: ('A' for Active; 'I' for Inactive)
REMARK    1  A    between atoms: C_1  and  C_2
REMARK    2  A    between atoms: C_2  and  N_3
REMARK    3  A    between atoms: C_4  and  C_26
REMARK    4  A    between atoms: C_7  and  S_8
REMARK    5  A    between atoms: S_8  and  C_9
REMARK    6  A    between atoms: C_9  and  C_10
REMARK    7  A    between atoms: N_12  and  C_13
REMARK    8  A    between atoms: C_14  and  C_24
REMARK    9  A    between atoms: C_15  and  C_23
REMARK   10  A    between atoms: C_16  and  C_18
REMARK   11  A    between atoms: N_20  and  C_21
REMARK   12  A    between atoms: N_20  and  C_22
REMARK   13  A    between atoms: C_26  and  C_28
REMARK   14  A    between atoms: C_26  and  O_29
REMARK   15  A    between atoms: O_29  and  C_30
REMARK   16  A    between atoms: C_34  and  C_37
REMARK   17  A    between atoms: C_35  and  C_36
REMARK                            x       y       z     vdW  Elec       q    Type
REMARK                         _______ _______ _______ _____ _____    ______ ____
ROOT
ATOM      1  S   UNL     1      -0.823  -2.973  -2.876  0.00  0.00    -0.077 S 
ENDROOT
BRANCH   1   6
ATOM      2  N   UNL     1      -0.391  -2.968  -0.111  0.00  0.00    -0.303 N 
ATOM      3  C   UNL     1      -1.054  -3.434   0.991  0.00  0.00    +0.175 A 
ATOM      4  N   UNL     1      -2.141  -4.018   0.572  0.00  0.00    -0.130 NA
ATOM      5  N   UNL     1      -2.211  -3.953  -0.710  0.00  0.00    -0.122 NA
ATOM      6  C   UNL     1      -1.165  -3.315  -1.182  0.00  0.00    +0.192 A 
BRANCH   2   8
ATOM      7  C   UNL     1       0.613  -0.740  -0.038  0.00  0.00    +0.027 C 
ATOM      8  C   UNL     1       0.881  -2.243  -0.137  0.00  0.00    +0.122 C 
ENDBRANCH   2   8
BRANCH   3   9
ATOM      9  C   UNL     1      -0.609  -3.299   2.424  0.00  0.00    +0.238 C 
ATOM     10  C   UNL     1      -0.077  -4.644   2.923  0.00  0.00    +0.060 C 
BRANCH   9  11
ATOM     11  O   UNL     1      -1.717  -2.896   3.231  0.00  0.00    -0.481 OA
BRANCH  11  12
ATOM     12  C   UNL     1      -1.432  -2.260   4.397  0.00  0.00    +0.125 A 
ATOM     13  C   UNL     1      -0.117  -1.953   4.719  0.00  0.00    +0.046 A 
ATOM     14  C   UNL     1       0.170  -1.306   5.905  0.00  0.00    +0.004 A 
ATOM     15  C   UNL     1      -0.852  -0.964   6.772  0.00  0.00    +0.004 A 
ATOM     16  C   UNL     1      -2.162  -1.268   6.454  0.00  0.00    -0.044 A 
ATOM     17  C   UNL     1      -2.455  -1.910   5.266  0.00  0.00    -0.006 A 
ATOM     18  C   UNL     1      -3.885  -2.236   4.918  0.00  0.00    +0.048 C 
ATOM     19  C   UNL     1      -3.273  -0.894   7.401  0.00  0.00    +0.044 C 
ENDBRANCH  11  12
ENDBRANCH   9  11
ENDBRANCH   3   9
ENDBRANCH   1   6
BRANCH   1  20
ATOM     20  C   UNL     1      -2.230  -3.695  -3.763  0.00  0.00    +0.173 C 
BRANCH  20  21
ATOM     21  C   UNL     1      -2.061  -3.470  -5.243  0.00  0.00    +0.228 C 
ATOM     22  O   UNL     1      -1.087  -2.880  -5.659  0.00  0.00    -0.275 OA
ATOM     23  N   UNL     1      -2.992  -3.924  -6.105  0.00  0.00    -0.278 N 
ATOM     24  H   UNL     1      -3.772  -4.396  -5.772  0.00  0.00    +0.155 HD
BRANCH  23  25
ATOM     25  C   UNL     1      -2.837  -3.717  -7.463  0.00  0.00    +0.090 A 
ATOM     26  C   UNL     1      -3.691  -4.106  -8.495  0.00  0.00    +0.084 A 
ATOM     27  C   UNL     1      -3.320  -3.784  -9.793  0.00  0.00    -0.012 A 
ATOM     28  C   UNL     1      -2.138  -3.107  -9.937  0.00  0.00    +0.080 A 
ATOM     29  S   UNL     1      -1.580  -2.933  -8.254  0.00  0.00    -0.067 S 
ATOM     30  C   UNL     1      -4.172  -4.159 -10.979  0.00  0.00    +0.046 C 
BRANCH  28  31
ATOM     31  C   UNL     1      -1.496  -2.639 -11.166  0.00  0.00    +0.253 C 
ATOM     32  O   UNL     1      -1.946  -2.964 -12.250  0.00  0.00    -0.269 OA
ATOM     33  N   UNL     1      -0.407  -1.847 -11.098  0.00  0.00    -0.303 N 
ATOM     34  C   UNL     1       0.215  -1.351 -12.328  0.00  0.00    +0.132 C 
ATOM     35  C   UNL     1       0.153  -1.483  -9.795  0.00  0.00    +0.132 C 
ENDBRANCH  28  31
BRANCH  26  36
ATOM     36  C   UNL     1      -4.906  -4.813  -8.225  0.00  0.00    +0.102 C 
ATOM     37  N   UNL     1      -5.870  -5.374  -8.011  0.00  0.00    -0.191 NA
ENDBRANCH  26  36
ENDBRANCH  23  25
ENDBRANCH  20  21
ENDBRANCH   1  20
TORSDOF 10
