REMARK  Name = ZINC06446533
REMARK  8 active torsions:
REMARK  status: ('A' for Active; 'I' for Inactive)
REMARK    1  A    between atoms: C_4  and  C_7
REMARK    2  A    between atoms: C_7  and  N_67
REMARK    3  A    between atoms: C_8  and  C_9
REMARK    4  A    between atoms: C_8  and  N_67
REMARK    5  A    between atoms: C_14  and  C_16
REMARK    6  A    between atoms: C_14  and  C_31
REMARK    7  A    between atoms: C_14  and  N_67
REMARK    8  A    between atoms: N_35  and  C_36
REMARK                            x       y       z     vdW  Elec       q    Type
REMARK                         _______ _______ _______ _____ _____    ______ ____
ROOT
ATOM      1  C   UNL     1      -0.336  -1.755   0.910  0.00  0.00    +0.040 C 
ENDROOT
BRANCH   1   2
ATOM      2  C   UNL     1      -1.603  -1.469   0.146  0.00  0.00    +0.011 A 
ATOM      3  C   UNL     1      -2.791  -1.934   0.609  0.00  0.00    +0.017 A 
ATOM      4  C   UNL     1      -4.003  -1.639  -0.155  0.00  0.00    +0.002 A 
ATOM      5  C   UNL     1      -5.256  -2.092   0.276  0.00  0.00    +0.059 A 
ATOM      6  C   UNL     1      -6.380  -1.798  -0.464  0.00  0.00    +0.167 A 
ATOM      7  C   UNL     1      -6.272  -1.049  -1.643  0.00  0.00    +0.168 A 
ATOM      8  C   UNL     1      -5.039  -0.598  -2.076  0.00  0.00    +0.075 A 
ATOM      9  C   UNL     1      -3.896  -0.886  -1.340  0.00  0.00    +0.053 A 
ATOM     10  N   UNL     1      -2.657  -0.443  -1.756  0.00  0.00    -0.322 N 
ATOM     11  H   UNL     1      -2.584   0.076  -2.573  0.00  0.00    +0.169 HD
ATOM     12  C   UNL     1      -1.550  -0.714  -1.043  0.00  0.00    +0.251 A 
ATOM     13  O   UNL     1      -0.473  -0.301  -1.438  0.00  0.00    -0.268 OA
ATOM     14  O   UNL     1      -7.519  -0.901  -2.176  0.00  0.00    -0.453 OA
ATOM     15  C   UNL     1      -8.435  -1.207  -1.109  0.00  0.00    +0.466 C 
ATOM     16  O   UNL     1      -7.695  -2.112  -0.269  0.00  0.00    -0.453 OA
ENDBRANCH   1   2
BRANCH   1  17
ATOM     17  C   UNL     1       0.575  -2.614   0.070  0.00  0.00    +0.143 A 
ATOM     18  N   UNL     1       1.288  -2.224  -0.959  0.00  0.00    -0.115 NA
ATOM     19  N   UNL     1       1.931  -3.247  -1.407  0.00  0.00    -0.023 NA
ATOM     20  N   UNL     1       1.646  -4.278  -0.691  0.00  0.00    -0.044 NA
ATOM     21  N   UNL     1       0.817  -3.927   0.233  0.00  0.00    -0.227 N 
BRANCH  21  22
ATOM     22  C   UNL     1       0.244  -4.796   1.264  0.00  0.00    +0.111 C 
ATOM     23  C   UNL     1       1.371  -5.441   2.098  0.00  0.00    +0.027 C 
ATOM     24  C   UNL     1       0.856  -6.873   2.388  0.00  0.00    +0.002 C 
ATOM     25  C   UNL     1       0.147  -7.257   1.065  0.00  0.00    +0.002 C 
ATOM     26  C   UNL     1      -0.534  -5.950   0.608  0.00  0.00    +0.027 C 
ENDBRANCH  21  22
ENDBRANCH   1  17
BRANCH   1  27
ATOM     27  N   UNL     1       0.352  -0.480   1.205  0.00  0.00    +0.397 N 
ATOM     28  H   UNL     1       0.777  -0.123   0.341  0.00  0.00    -0.079 HD
BRANCH  27  29
ATOM     29  C   UNL     1      -0.619   0.513   1.709  0.00  0.00    -0.041 C 
BRANCH  29  33
ATOM     30  C   UNL     1       1.149   4.395   1.486  0.00  0.00    +0.000 A 
ATOM     31  C   UNL     1       0.430   3.901   0.414  0.00  0.00    +0.000 A 
ATOM     32  C   UNL     1      -0.142   2.644   0.486  0.00  0.00    +0.002 A 
ATOM     33  C   UNL     1       0.005   1.882   1.631  0.00  0.00    -0.064 A 
ATOM     34  C   UNL     1       0.719   2.379   2.705  0.00  0.00    +0.002 A 
ATOM     35  C   UNL     1       1.296   3.633   2.631  0.00  0.00    +0.000 A 
ENDBRANCH  29  33
ENDBRANCH  27  29
BRANCH  27  36
ATOM     36  C   UNL     1       1.416  -0.701   2.207  0.00  0.00    -0.001 C 
BRANCH  36  37
ATOM     37  C   UNL     1       2.618  -1.288   1.513  0.00  0.00    +0.089 A 
ATOM     38  C   UNL     1       3.557  -0.595   0.844  0.00  0.00    +0.042 A 
ATOM     39  C   UNL     1       4.493  -1.537   0.357  0.00  0.00    +0.041 A 
ATOM     40  C   UNL     1       4.069  -2.749   0.757  0.00  0.00    +0.195 A 
ATOM     41  O   UNL     1       2.937  -2.592   1.462  0.00  0.00    -0.470 OA
ENDBRANCH  36  37
ENDBRANCH  27  36
ENDBRANCH   1  27
TORSDOF 8
