REMARK  Name = ZINC41257345
REMARK  4 active torsions:
REMARK  status: ('A' for Active; 'I' for Inactive)
REMARK    1  A    between atoms: C_3  and  C_6
REMARK    2  A    between atoms: C_6  and  C_8
REMARK    3  A    between atoms: C_6  and  N_10
REMARK    4  A    between atoms: N_18  and  C_19
REMARK                            x       y       z     vdW  Elec       q    Type
REMARK                         _______ _______ _______ _____ _____    ______ ____
ROOT
ATOM      1  N   UNL     1       4.586   1.009   0.856  0.00  0.00    -0.280 NA
ATOM      2  C   UNL     1       4.028   0.951   2.214  0.00  0.00    +0.105 C 
ATOM      3  C   UNL     1       4.815  -0.069   3.043  0.00  0.00    +0.124 C 
ATOM      4  N   UNL     1       6.244   0.274   2.972  0.00  0.00    -0.283 N 
ATOM      5  C   UNL     1       6.844   0.483   1.645  0.00  0.00    +0.124 C 
ATOM      6  C   UNL     1       5.976   1.482   0.871  0.00  0.00    +0.105 C 
ATOM      7  C   UNL     1       6.984   0.392   4.092  0.00  0.00    +0.302 C 
ATOM      8  O   UNL     1       6.453   0.309   5.183  0.00  0.00    -0.253 OA
ATOM      9  N   UNL     1       8.312   0.602   4.003  0.00  0.00    -0.296 N 
ATOM     10  H   UNL     1       8.724   0.740   3.136  0.00  0.00    +0.151 HD
ENDROOT
BRANCH   9  11
ATOM     11  C   UNL     1       9.133   0.622   5.216  0.00  0.00    +0.074 C 
ATOM     12  C   UNL     1       9.101   2.023   5.831  0.00  0.00    +0.022 C 
ATOM     13  C   UNL     1       9.959   2.044   7.097  0.00  0.00    +0.002 C 
ATOM     14  C   UNL     1      11.401   1.675   6.743  0.00  0.00    +0.000 C 
ATOM     15  C   UNL     1      11.433   0.275   6.128  0.00  0.00    +0.002 C 
ATOM     16  C   UNL     1      10.576   0.254   4.862  0.00  0.00    +0.022 C 
ENDBRANCH   9  11
BRANCH   1  17
ATOM     17  C   UNL     1       3.754   1.846  -0.019  0.00  0.00    +0.198 C 
BRANCH  17  20
ATOM     18  C   UNL     1      -0.021   1.340   0.015  0.00  0.00    +0.008 A 
ATOM     19  C   UNL     1       1.176   2.030   0.009  0.00  0.00    +0.014 A 
ATOM     20  C   UNL     1       2.338   1.332  -0.009  0.00  0.00    +0.021 A 
ATOM     21  S   UNL     1       1.754  -0.355  -0.016  0.00  0.00    -0.099 S 
ATOM     22  C   UNL     1       0.002  -0.016   0.004  0.00  0.00    +0.045 A 
ENDBRANCH  17  20
BRANCH  17  23
ATOM     23  C   UNL     1       4.284   1.797  -1.392  0.00  0.00    +0.087 C 
ATOM     24  N   UNL     1       4.692   1.760  -2.451  0.00  0.00    -0.195 NA
ENDBRANCH  17  23
ENDBRANCH   1  17
TORSDOF 4
