REMARK  Name = ZINC11184509
REMARK  12 active torsions:
REMARK  status: ('A' for Active; 'I' for Inactive)
REMARK    1  A    between atoms: C_1  and  C_2
REMARK    2  A    between atoms: C_5  and  C_36
REMARK    3  A    between atoms: C_6  and  N_8
REMARK    4  A    between atoms: C_14  and  C_19
REMARK    5  A    between atoms: C_19  and  O_21
REMARK    6  A    between atoms: O_21  and  C_22
REMARK    7  A    between atoms: C_22  and  C_23
REMARK    8  A    between atoms: C_23  and  C_25
REMARK    9  A    between atoms: C_26  and  C_35
REMARK   10  A    between atoms: C_27  and  C_32
REMARK   11  A    between atoms: C_28  and  C_31
REMARK   12  A    between atoms: C_32  and  C_34
REMARK                            x       y       z     vdW  Elec       q    Type
REMARK                         _______ _______ _______ _____ _____    ______ ____
ROOT
ATOM      1  N   UNL     1     -14.174   6.335   3.387  0.00  0.00    -0.202 N 
ATOM      2  C   UNL     1     -13.294   6.314   4.404  0.00  0.00    +0.258 C 
ATOM      3  O   UNL     1     -13.507   6.702   5.534  0.00  0.00    -0.269 OA
ATOM      4  C   UNL     1     -12.022   5.737   3.913  0.00  0.00    +0.050 A 
ATOM      5  C   UNL     1     -10.793   5.475   4.497  0.00  0.00    +0.014 A 
ATOM      6  C   UNL     1      -9.777   4.909   3.745  0.00  0.00    +0.016 A 
ATOM      7  C   UNL     1      -9.982   4.610   2.398  0.00  0.00    +0.060 A 
ATOM      8  C   UNL     1     -11.219   4.872   1.801  0.00  0.00    +0.028 A 
ATOM      9  C   UNL     1     -12.237   5.433   2.553  0.00  0.00    +0.051 A 
ATOM     10  C   UNL     1     -13.630   5.834   2.264  0.00  0.00    +0.258 C 
ATOM     11  O   UNL     1     -14.190   5.729   1.191  0.00  0.00    -0.269 OA
ENDROOT
BRANCH   1  17
ATOM     12  C   UNL     1     -18.930   5.501   4.322  0.00  0.00    +0.044 C 
ATOM     13  C   UNL     1     -17.811   6.433   3.936  0.00  0.00    -0.049 A 
ATOM     14  C   UNL     1     -18.079   7.765   3.679  0.00  0.00    +0.004 A 
ATOM     15  C   UNL     1     -17.054   8.624   3.326  0.00  0.00    +0.005 A 
ATOM     16  C   UNL     1     -15.758   8.154   3.234  0.00  0.00    -0.029 A 
ATOM     17  C   UNL     1     -15.487   6.816   3.485  0.00  0.00    +0.048 A 
ATOM     18  C   UNL     1     -16.518   5.956   3.840  0.00  0.00    +0.027 A 
ATOM     19  C   UNL     1     -14.641   9.092   2.854  0.00  0.00    +0.045 C 
ENDBRANCH   1  17
BRANCH   7  20
ATOM     20  C   UNL     1      -8.890   4.010   1.601  0.00  0.00    +0.340 C 
ATOM     21  O   UNL     1      -9.069   3.745   0.429  0.00  0.00    -0.245 OA
BRANCH  20  22
ATOM     22  O   UNL     1      -7.698   3.758   2.174  0.00  0.00    -0.453 OA
BRANCH  22  23
ATOM     23  C   UNL     1      -6.673   3.168   1.332  0.00  0.00    +0.313 C 
BRANCH  23  24
ATOM     24  C   UNL     1      -5.418   2.959   2.140  0.00  0.00    +0.217 C 
ATOM     25  O   UNL     1      -5.390   3.277   3.311  0.00  0.00    -0.287 OA
BRANCH  24  26
ATOM     26  C   UNL     1      -4.271   2.393   1.532  0.00  0.00    +0.090 A 
ATOM     27  C   UNL     1      -3.066   2.149   2.152  0.00  0.00    -0.012 A 
ATOM     28  C   UNL     1      -2.213   1.582   1.177  0.00  0.00    +0.041 A 
ATOM     29  C   UNL     1      -2.936   1.508  -0.004  0.00  0.00    +0.024 A 
ATOM     30  N   UNL     1      -4.167   1.990   0.216  0.00  0.00    -0.355 N 
ATOM     31  H   UNL     1      -4.873   2.049  -0.446  0.00  0.00    +0.166 HD
ATOM     32  C   UNL     1      -2.424   0.972  -1.316  0.00  0.00    +0.064 C 
ATOM     33  C   UNL     1      -2.721   2.433   3.591  0.00  0.00    +0.047 C 
BRANCH  28  34
ATOM     34  C   UNL     1      -0.824   1.157   1.376  0.00  0.00    +0.162 C 
ATOM     35  O   UNL     1       0.085   1.932   1.159  0.00  0.00    -0.292 OA
ATOM     36  C   UNL     1      -0.523  -0.241   1.851  0.00  0.00    +0.091 C 
ENDBRANCH  28  34
ENDBRANCH  24  26
ENDBRANCH  23  24
ENDBRANCH  22  23
ENDBRANCH  20  22
ENDBRANCH   7  20
TORSDOF 7
