REMARK  Name = ZINC04212436
REMARK  10 active torsions:
REMARK  status: ('A' for Active; 'I' for Inactive)
REMARK    1  A    between atoms: C_1  and  C_2
REMARK    2  A    between atoms: C_6  and  C_15
REMARK    3  A    between atoms: C_13  and  C_14
REMARK    4  A    between atoms: C_15  and  C_17
REMARK    5  A    between atoms: C_15  and  N_62
REMARK    6  A    between atoms: N_21  and  C_22
REMARK    7  A    between atoms: C_22  and  C_23
REMARK    8  A    between atoms: C_22  and  C_24
REMARK    9  A    between atoms: C_22  and  C_25
REMARK   10  A    between atoms: C_29  and  C_32
REMARK                            x       y       z     vdW  Elec       q    Type
REMARK                         _______ _______ _______ _____ _____    ______ ____
ROOT
ATOM      1  C   UNL     1       0.053   1.060   4.806  0.00  0.00    +0.039 C 
ENDROOT
BRANCH   1   7
ATOM      2  C   UNL     1      -1.265   6.106  10.138  0.00  0.00    +0.044 C 
ATOM      3  C   UNL     1      -1.749   5.040   9.189  0.00  0.00    -0.047 A 
ATOM      4  C   UNL     1      -0.859   4.416   8.361  0.00  0.00    +0.013 A 
ATOM      5  C   UNL     1      -1.307   3.427   7.480  0.00  0.00    -0.001 A 
ATOM      6  C   UNL     1      -0.381   2.739   6.579  0.00  0.00    +0.017 A 
ATOM      7  C   UNL     1      -0.873   1.788   5.746  0.00  0.00    +0.011 A 
ATOM      8  C   UNL     1      -2.251   1.481   5.753  0.00  0.00    +0.251 A 
ATOM      9  O   UNL     1      -2.673   0.626   4.994  0.00  0.00    -0.268 OA
ATOM     10  N   UNL     1      -3.108   2.103   6.582  0.00  0.00    -0.322 N 
ATOM     11  H   UNL     1      -4.076   1.854   6.566  0.00  0.00    +0.169 HD
ATOM     12  C   UNL     1      -2.671   3.079   7.452  0.00  0.00    +0.049 A 
ATOM     13  C   UNL     1      -3.558   3.728   8.304  0.00  0.00    +0.030 A 
ATOM     14  C   UNL     1      -3.094   4.700   9.164  0.00  0.00    -0.046 A 
ATOM     15  C   UNL     1      -4.058   5.401  10.087  0.00  0.00    +0.044 C 
ENDBRANCH   1   7
BRANCH   1  22
ATOM     16  C   UNL     1       0.431   0.486   2.485  0.00  0.00    -0.077 C 
ATOM     17  C   UNL     1      -0.189   0.526   1.087  0.00  0.00    -0.018 C 
ATOM     18  C   UNL     1      -0.363   1.984   0.652  0.00  0.00    -0.001 C 
ATOM     19  C   UNL     1      -1.235   2.714   1.678  0.00  0.00    -0.031 C 
ATOM     20  C   UNL     1      -0.584   2.610   3.059  0.00  0.00    -0.074 C 
ATOM     21  C   UNL     1      -1.364   4.186   1.283  0.00  0.00    +0.005 C 
ATOM     22  N   UNL     1      -0.468   1.184   3.429  0.00  0.00    +0.389 N 
ATOM     23  H   UNL     1      -1.398   0.751   3.385  0.00  0.00    -0.080 HD
ENDBRANCH   1  22
BRANCH   1  24
ATOM     24  C   UNL     1       0.104  -0.399   5.180  0.00  0.00    +0.143 A 
ATOM     25  N   UNL     1      -0.863  -1.274   5.049  0.00  0.00    -0.115 NA
ATOM     26  N   UNL     1      -0.432  -2.410   5.478  0.00  0.00    -0.023 NA
ATOM     27  N   UNL     1       0.784  -2.282   5.880  0.00  0.00    -0.043 NA
ATOM     28  N   UNL     1       1.153  -1.057   5.707  0.00  0.00    -0.225 N 
BRANCH  28  29
ATOM     29  C   UNL     1       2.465  -0.490   6.028  0.00  0.00    +0.059 C 
ATOM     30  C   UNL     1       2.292   0.669   7.011  0.00  0.00    +0.036 C 
ATOM     31  C   UNL     1       3.346  -1.568   6.660  0.00  0.00    +0.036 C 
ATOM     32  C   UNL     1       3.126   0.023   4.747  0.00  0.00    +0.036 C 
ENDBRANCH  28  29
ENDBRANCH   1  24
TORSDOF 4
