REMARK  Name = ZINC09136728
REMARK  4 active torsions:
REMARK  status: ('A' for Active; 'I' for Inactive)
REMARK    1  A    between atoms: C_5  and  C_7
REMARK    2  A    between atoms: C_13  and  C_14
REMARK    3  A    between atoms: C_17  and  C_19
REMARK    4  A    between atoms: C_23  and  N_25
REMARK                            x       y       z     vdW  Elec       q    Type
REMARK                         _______ _______ _______ _____ _____    ______ ____
ROOT
ATOM      1  C   UNL     1       1.148  -2.144  -0.145  0.00  0.00    +0.131 C 
ATOM      2  N   UNL     1       0.165  -3.012  -0.139  0.00  0.00    -0.164 NA
ATOM      3  N   UNL     1       0.414  -4.368  -0.113  0.00  0.00    -0.152 N 
ATOM      4  C   UNL     1      -0.563  -5.383  -0.185  0.00  0.00    +0.153 C 
ATOM      5  N   UNL     1      -1.764  -5.190  -0.665  0.00  0.00    -0.283 NA
ATOM      6  C   UNL     1      -0.097  -6.695   0.339  0.00  0.00    +0.084 C 
ATOM      7  C   UNL     1      -0.961  -7.579   0.967  0.00  0.00    +0.063 C 
ATOM      8  C   UNL     1       1.339  -7.007   0.152  0.00  0.00    +0.273 C 
ATOM      9  O   UNL     1       1.729  -8.162   0.088  0.00  0.00    -0.268 OA
ATOM     10  N   UNL     1       2.202  -5.976   0.057  0.00  0.00    -0.152 NA
ATOM     11  C   UNL     1       1.734  -4.756  -0.027  0.00  0.00    +0.181 C 
ATOM     12  S   UNL     1       2.587  -3.202  -0.074  0.00  0.00    -0.033 S 
ATOM     13  H   UNL     1      -2.485  -6.020  -0.696  0.00  0.00    +0.188 HD
ENDROOT
BRANCH   1  18
ATOM     14  C   UNL     1       2.189   1.464  -0.229  0.00  0.00    +0.001 A 
ATOM     15  C   UNL     1       0.961   2.099  -0.281  0.00  0.00    +0.001 A 
ATOM     16  C   UNL     1      -0.207   1.359  -0.288  0.00  0.00    +0.020 A 
ATOM     17  C   UNL     1      -0.154  -0.021  -0.244  0.00  0.00    +0.051 A 
ATOM     18  C   UNL     1       1.083  -0.667  -0.192  0.00  0.00    +0.027 A 
ATOM     19  C   UNL     1       2.256   0.087  -0.185  0.00  0.00    +0.012 A 
ATOM     20 CL   UNL     1      -1.621  -0.950  -0.252  0.00  0.00    -0.083 Cl
ENDBRANCH   1  18
BRANCH   7  21
ATOM     21  C   UNL     1      -2.271  -7.180   1.278  0.00  0.00    +0.129 A 
ATOM     22  C   UNL     1      -3.363  -8.021   1.435  0.00  0.00    +0.050 A 
ATOM     23  C   UNL     1      -4.456  -7.211   1.740  0.00  0.00    +0.050 A 
ATOM     24  C   UNL     1      -4.002  -5.908   1.750  0.00  0.00    +0.136 A 
ATOM     25  O   UNL     1      -2.688  -5.910   1.470  0.00  0.00    -0.455 OA
BRANCH  24  26
ATOM     26  C   UNL     1      -4.824  -4.713   2.021  0.00  0.00    +0.019 A 
ATOM     27  C   UNL     1      -6.187  -4.846   2.299  0.00  0.00    +0.012 A 
ATOM     28  C   UNL     1      -6.948  -3.724   2.552  0.00  0.00    +0.003 A 
ATOM     29  C   UNL     1      -6.365  -2.469   2.530  0.00  0.00    +0.033 A 
ATOM     30  C   UNL     1      -5.016  -2.330   2.256  0.00  0.00    +0.127 A 
ATOM     31  C   UNL     1      -4.241  -3.443   2.006  0.00  0.00    +0.044 A 
BRANCH  30  32
ATOM     32  N   UNL     1      -4.402  -0.983   2.235  0.00  0.00    +0.056 N 
ATOM     33  O   UNL     1      -5.084   0.001   2.459  0.00  0.00    -0.126 OA
ATOM     34  O   UNL     1      -3.215  -0.859   1.993  0.00  0.00    -0.126 OA
ENDBRANCH  30  32
ENDBRANCH  24  26
ENDBRANCH   7  21
TORSDOF 4
