REMARK  Name = ZINC06301110
REMARK  7 active torsions:
REMARK  status: ('A' for Active; 'I' for Inactive)
REMARK    1  A    between atoms: C_1  and  C_2
REMARK    2  A    between atoms: C_4  and  C_37
REMARK    3  A    between atoms: C_9  and  C_14
REMARK    4  A    between atoms: C_14  and  C_16
REMARK    5  A    between atoms: C_14  and  N_65
REMARK    6  A    between atoms: N_20  and  C_21
REMARK    7  A    between atoms: C_21  and  C_22
REMARK                            x       y       z     vdW  Elec       q    Type
REMARK                         _______ _______ _______ _____ _____    ______ ____
ROOT
ATOM      1  C   UNL     1       2.849   4.724   1.887  0.00  0.00    +0.039 C 
ENDROOT
BRANCH   1  10
ATOM      2  C   UNL     1       7.454   8.943  -2.190  0.00  0.00    +0.044 C 
ATOM      3  C   UNL     1       6.391   8.803  -1.131  0.00  0.00    -0.050 A 
ATOM      4  C   UNL     1       5.912   9.934  -0.483  0.00  0.00    +0.008 A 
ATOM      5  C   UNL     1       4.940   9.830   0.488  0.00  0.00    -0.026 A 
ATOM      6  C   UNL     1       4.432   8.579   0.825  0.00  0.00    +0.052 A 
ATOM      7  C   UNL     1       4.920   7.435   0.167  0.00  0.00    -0.001 A 
ATOM      8  C   UNL     1       5.907   7.565  -0.816  0.00  0.00    +0.013 A 
ATOM      9  C   UNL     1       4.384   6.123   0.532  0.00  0.00    +0.017 A 
ATOM     10  C   UNL     1       3.425   6.059   1.490  0.00  0.00    +0.011 A 
ATOM     11  C   UNL     1       2.970   7.237   2.120  0.00  0.00    +0.251 A 
ATOM     12  O   UNL     1       2.111   7.156   2.981  0.00  0.00    -0.268 OA
ATOM     13  N   UNL     1       3.460   8.445   1.794  0.00  0.00    -0.322 N 
ATOM     14  H   UNL     1       3.125   9.235   2.247  0.00  0.00    +0.169 HD
ATOM     15  C   UNL     1       4.429  11.066   1.183  0.00  0.00    +0.046 C 
ENDBRANCH   1  10
BRANCH   1  25
ATOM     16  C   UNL     1       4.373   4.581   3.765  0.00  0.00    -0.072 C 
ATOM     17  C   UNL     1       4.420   4.771   5.282  0.00  0.00    +0.017 C 
ATOM     18  C   UNL     1       3.514   3.771   5.953  0.00  0.00    -0.048 A 
ATOM     19  C   UNL     1       3.675   3.539   7.310  0.00  0.00    +0.004 A 
ATOM     20  C   UNL     1       2.864   2.635   7.965  0.00  0.00    +0.000 A 
ATOM     21  C   UNL     1       1.883   1.957   7.264  0.00  0.00    +0.000 A 
ATOM     22  C   UNL     1       1.722   2.186   5.912  0.00  0.00    +0.002 A 
ATOM     23  C   UNL     1       2.538   3.094   5.252  0.00  0.00    -0.061 A 
ATOM     24  C   UNL     1       2.327   3.307   3.776  0.00  0.00    -0.041 C 
ATOM     25  N   UNL     1       2.954   4.571   3.355  0.00  0.00    +0.392 N 
ATOM     26  H   UNL     1       2.469   5.354   3.809  0.00  0.00    -0.080 HD
ENDBRANCH   1  25
BRANCH   1  27
ATOM     27  C   UNL     1       1.397   4.666   1.488  0.00  0.00    +0.143 A 
ATOM     28  N   UNL     1       0.391   5.232   2.109  0.00  0.00    -0.115 NA
ATOM     29  N   UNL     1      -0.686   4.950   1.462  0.00  0.00    -0.023 NA
ATOM     30  N   UNL     1      -0.394   4.223   0.440  0.00  0.00    -0.044 NA
ATOM     31  N   UNL     1       0.880   4.021   0.425  0.00  0.00    -0.228 N 
BRANCH  31  32
ATOM     32  C   UNL     1       1.626   3.243  -0.567  0.00  0.00    +0.178 C 
BRANCH  32  33
ATOM     33  C   UNL     1       1.714   1.785  -0.110  0.00  0.00    +0.140 C 
ATOM     34  C   UNL     1       2.510   0.938  -1.135  0.00  0.00    +0.035 C 
ATOM     35  C   UNL     1       1.963  -0.486  -0.874  0.00  0.00    +0.031 C 
ATOM     36  C   UNL     1       0.609  -0.249  -0.178  0.00  0.00    +0.160 C 
ATOM     37  O   UNL     1       0.406   1.173  -0.111  0.00  0.00    -0.375 OA
ENDBRANCH  32  33
ENDBRANCH  31  32
ENDBRANCH   1  27
TORSDOF 5
