REMARK  Name = ZINC30830646
REMARK  7 active torsions:
REMARK  status: ('A' for Active; 'I' for Inactive)
REMARK    1  A    between atoms: C_4  and  C_7
REMARK    2  A    between atoms: C_8  and  C_9
REMARK    3  A    between atoms: N_14  and  C_17
REMARK    4  A    between atoms: C_22  and  N_23
REMARK    5  A    between atoms: C_24  and  C_26
REMARK    6  A    between atoms: C_27  and  C_28
REMARK    7  A    between atoms: C_32  and  N_34
REMARK                            x       y       z     vdW  Elec       q    Type
REMARK                         _______ _______ _______ _____ _____    ______ ____
ROOT
ATOM      1  C   UNL     1      -3.599  10.216   0.288  0.00  0.00    +0.051 A 
ATOM      2  C   UNL     1      -3.561  11.598   0.392  0.00  0.00    +0.026 A 
ATOM      3  C   UNL     1      -2.347  12.259   0.379  0.00  0.00    +0.022 A 
ATOM      4  C   UNL     1      -1.167  11.545   0.263  0.00  0.00    +0.043 A 
ATOM      5  C   UNL     1      -1.196  10.166   0.166  0.00  0.00    +0.045 A 
ATOM      6  C   UNL     1      -2.410   9.496   0.172  0.00  0.00    +0.056 A 
ATOM      7 CL   UNL     1       0.353  12.383   0.247  0.00  0.00    -0.083 Cl
ENDROOT
BRANCH   1  13
ATOM      8  C   UNL     1      -8.898   9.412   0.432  0.00  0.00    +0.240 C 
ATOM      9  O   UNL     1      -9.436   9.588   1.509  0.00  0.00    -0.271 OA
ATOM     10  N   UNL     1      -7.582   9.127   0.376  0.00  0.00    -0.295 N 
ATOM     11  C   UNL     1      -6.802   8.912   1.604  0.00  0.00    +0.127 C 
ATOM     12  C   UNL     1      -5.555   9.802   1.551  0.00  0.00    +0.124 C 
ATOM     13  N   UNL     1      -4.827   9.545   0.301  0.00  0.00    -0.325 N 
ATOM     14  C   UNL     1      -5.637   9.906  -0.871  0.00  0.00    +0.124 C 
ATOM     15  C   UNL     1      -6.887   9.021  -0.917  0.00  0.00    +0.127 C 
BRANCH   8  17
ATOM     16  C   UNL     1     -11.013   9.695  -0.742  0.00  0.00    +0.013 C 
ATOM     17  C   UNL     1      -9.679   9.510  -0.802  0.00  0.00    +0.068 C 
BRANCH  16  21
ATOM     18  C   UNL     1     -13.278   9.979  -4.318  0.00  0.00    +0.000 A 
ATOM     19  C   UNL     1     -13.912  10.077  -3.092  0.00  0.00    +0.001 A 
ATOM     20  C   UNL     1     -13.183   9.985  -1.925  0.00  0.00    +0.008 A 
ATOM     21  C   UNL     1     -11.799   9.793  -1.983  0.00  0.00    -0.025 A 
ATOM     22  C   UNL     1     -11.165   9.701  -3.226  0.00  0.00    +0.008 A 
ATOM     23  C   UNL     1     -11.909   9.789  -4.383  0.00  0.00    +0.001 A 
ENDBRANCH  16  21
ENDBRANCH   8  17
ENDBRANCH   1  13
BRANCH   6  24
ATOM     24  N   UNL     1      -2.442   8.099   0.067  0.00  0.00    -0.280 N 
ATOM     25  C   UNL     1      -1.423   7.444  -0.523  0.00  0.00    +0.241 C 
ATOM     26  O   UNL     1      -0.523   8.070  -1.053  0.00  0.00    -0.270 OA
ATOM     27  H   UNL     1      -3.300   7.537   0.466  0.00  0.00    +0.155 HD
BRANCH  25  28
ATOM     28  C   UNL     1      -1.397   5.981  -0.525  0.00  0.00    +0.068 C 
ATOM     29  C   UNL     1      -0.377   5.325  -1.115  0.00  0.00    +0.013 C 
BRANCH  29  30
ATOM     30  C   UNL     1      -0.351   3.853  -1.117  0.00  0.00    -0.023 A 
ATOM     31  C   UNL     1      -1.382   3.131  -0.508  0.00  0.00    +0.008 A 
ATOM     32  C   UNL     1      -1.353   1.753  -0.518  0.00  0.00    +0.003 A 
ATOM     33  C   UNL     1      -0.302   1.084  -1.120  0.00  0.00    +0.033 A 
ATOM     34  C   UNL     1       0.722   1.791  -1.725  0.00  0.00    +0.127 A 
ATOM     35  C   UNL     1       0.705   3.170  -1.728  0.00  0.00    +0.040 A 
BRANCH  34  36
ATOM     36  N   UNL     1       1.839   1.066  -2.371  0.00  0.00    +0.056 N 
ATOM     37  O   UNL     1       1.856  -0.152  -2.369  0.00  0.00    -0.126 OA
ATOM     38  O   UNL     1       2.741   1.687  -2.904  0.00  0.00    -0.126 OA
ENDBRANCH  34  36
ENDBRANCH  29  30
ENDBRANCH  25  28
ENDBRANCH   6  24
TORSDOF 7
