REMARK  Name = ZINC02613993
REMARK  6 active torsions:
REMARK  status: ('A' for Active; 'I' for Inactive)
REMARK    1  A    between atoms: C_4  and  C_7
REMARK    2  A    between atoms: C_16  and  S_18
REMARK    3  A    between atoms: S_18  and  C_19
REMARK    4  A    between atoms: C_19  and  C_20
REMARK    5  A    between atoms: N_22  and  C_23
REMARK    6  A    between atoms: C_28  and  C_29
REMARK                            x       y       z     vdW  Elec       q    Type
REMARK                         _______ _______ _______ _____ _____    ______ ____
ROOT
ATOM      1  C   UNL     1       2.612   1.493   0.112  0.00  0.00    +0.004 A 
ATOM      2  C   UNL     1       3.621   2.395   0.117  0.00  0.00    +0.056 A 
ATOM      3  S   UNL     1       2.775   3.963   0.114  0.00  0.00    -0.076 S 
ATOM      4  C   UNL     1       1.099   3.378   0.107  0.00  0.00    +0.117 A 
ATOM      5  C   UNL     1       1.235   1.979   0.106  0.00  0.00    +0.080 A 
ATOM      6  C   UNL     1       0.015   1.235   0.101  0.00  0.00    +0.261 A 
ATOM      7  O   UNL     1       0.036   0.016   0.100  0.00  0.00    -0.267 OA
ATOM      8  N   UNL     1      -1.156   1.896   0.090  0.00  0.00    -0.301 N 
ATOM      9  H   UNL     1      -2.012   1.378   0.077  0.00  0.00    +0.171 HD
ATOM     10  C   UNL     1      -1.199   3.260   0.098  0.00  0.00    +0.170 A 
ATOM     11  N   UNL     1      -0.089   3.970   0.103  0.00  0.00    -0.216 NA
ENDROOT
BRANCH   1  15
ATOM     12  C   UNL     1       3.434  -2.678   0.113  0.00  0.00    +0.000 A 
ATOM     13  C   UNL     1       4.061  -1.852  -0.803  0.00  0.00    +0.001 A 
ATOM     14  C   UNL     1       3.798  -0.497  -0.808  0.00  0.00    +0.008 A 
ATOM     15  C   UNL     1       2.898   0.039   0.112  0.00  0.00    -0.017 A 
ATOM     16  C   UNL     1       2.274  -0.797   1.037  0.00  0.00    +0.008 A 
ATOM     17  C   UNL     1       2.541  -2.151   1.028  0.00  0.00    +0.001 A 
ENDBRANCH   1  15
BRANCH  10  18
ATOM     18  S   UNL     1      -2.757   4.082   0.091  0.00  0.00    -0.078 S 
BRANCH  18  19
ATOM     19  C   UNL     1      -2.204   5.805   0.095  0.00  0.00    +0.173 C 
BRANCH  19  20
ATOM     20  C   UNL     1      -3.404   6.718   0.090  0.00  0.00    +0.228 C 
ATOM     21  O   UNL     1      -4.522   6.249   0.085  0.00  0.00    -0.275 OA
ATOM     22  N   UNL     1      -3.233   8.055   0.091  0.00  0.00    -0.284 N 
ATOM     23  H   UNL     1      -2.341   8.430   0.160  0.00  0.00    +0.155 HD
BRANCH  22  24
ATOM     24  C   UNL     1      -4.338   8.898  -0.007  0.00  0.00    +0.046 A 
ATOM     25  C   UNL     1      -5.539   8.546   0.594  0.00  0.00    +0.024 A 
ATOM     26  C   UNL     1      -6.631   9.385   0.499  0.00  0.00    +0.002 A 
ATOM     27  C   UNL     1      -6.541  10.577  -0.201  0.00  0.00    +0.001 A 
ATOM     28  C   UNL     1      -5.358  10.940  -0.808  0.00  0.00    +0.015 A 
ATOM     29  C   UNL     1      -4.243  10.104  -0.717  0.00  0.00    +0.058 A 
BRANCH  29  30
ATOM     30  C   UNL     1      -2.974  10.486  -1.364  0.00  0.00    +0.243 C 
ATOM     31  O   UNL     1      -2.036   9.712  -1.368  0.00  0.00    -0.270 OA
ATOM     32  N   UNL     1      -2.854  11.693  -1.952  0.00  0.00    -0.325 N 
ATOM     33  H   UNL     1      -3.602  12.310  -1.949  0.00  0.00    +0.145 HD
ATOM     34  H   UNL     1      -2.019  11.944  -2.377  0.00  0.00    +0.145 HD
ENDBRANCH  29  30
ENDBRANCH  22  24
ENDBRANCH  19  20
ENDBRANCH  18  19
ENDBRANCH  10  18
TORSDOF 6
