REMARK  Name = ZINC63831686
REMARK  6 active torsions:
REMARK  status: ('A' for Active; 'I' for Inactive)
REMARK    1  A    between atoms: C_1  and  C_2
REMARK    2  A    between atoms: C_3  and  C_25
REMARK    3  A    between atoms: C_7  and  S_11
REMARK    4  A    between atoms: S_11  and  C_12
REMARK    5  A    between atoms: C_12  and  C_13
REMARK    6  A    between atoms: N_15  and  C_16
REMARK                            x       y       z     vdW  Elec       q    Type
REMARK                         _______ _______ _______ _____ _____    ______ ____
ROOT
ATOM      1  C   UNL     1       0.458   3.012   5.136  0.00  0.00    +0.226 C 
ATOM      2  O   UNL     1       0.365   3.888   4.302  0.00  0.00    -0.275 OA
ATOM      3  N   UNL     1       0.579   3.332   6.439  0.00  0.00    -0.278 N 
ATOM      4  H   UNL     1       0.653   2.631   7.106  0.00  0.00    +0.152 HD
ENDROOT
BRANCH   3   5
ATOM      5  C   UNL     1       0.599   4.738   6.850  0.00  0.00    +0.269 C 
ATOM      6  N   UNL     1       1.922   5.320   6.589  0.00  0.00    -0.348 N 
ATOM      7  C   UNL     1       2.408   5.712   7.731  0.00  0.00    +0.061 A 
ATOM      8  C   UNL     1       3.672   6.359   8.109  0.00  0.00    +0.027 A 
ATOM      9  C   UNL     1       3.907   6.656   9.403  0.00  0.00    +0.002 A 
ATOM     10  C   UNL     1       2.984   6.370  10.425  0.00  0.00    +0.002 A 
ATOM     11  C   UNL     1       1.796   5.779  10.188  0.00  0.00    +0.027 A 
ATOM     12  C   UNL     1       1.431   5.411   8.812  0.00  0.00    +0.061 A 
ATOM     13  N   UNL     1       0.379   4.843   8.298  0.00  0.00    -0.348 N 
ATOM     14  H   UNL     1       2.354   5.397   5.724  0.00  0.00    +0.163 HD
ATOM     15  H   UNL     1      -0.407   4.545   8.782  0.00  0.00    +0.163 HD
ENDBRANCH   3   5
BRANCH   1  16
ATOM     16  C   UNL     1       0.436   1.565   4.713  0.00  0.00    +0.171 C 
BRANCH  16  17
ATOM     17  S   UNL     1       0.264   1.464   2.910  0.00  0.00    -0.096 S 
BRANCH  17  24
ATOM     18  C   UNL     1      -0.018   1.503   0.010  0.00  0.00    +0.045 C 
ATOM     19  C   UNL     1       0.002  -0.004   0.002  0.00  0.00    -0.029 A 
ATOM     20  C   UNL     1      -0.095  -0.678  -1.154  0.00  0.00    -0.008 A 
ATOM     21  S   UNL     1      -0.024  -2.386  -0.648  0.00  0.00    -0.074 S 
ATOM     22  C   UNL     1       0.134  -2.149   1.102  0.00  0.00    +0.113 A 
ATOM     23  C   UNL     1       0.133  -0.744   1.245  0.00  0.00    +0.043 A 
ATOM     24  C   UNL     1       0.256  -0.266   2.579  0.00  0.00    +0.109 A 
ATOM     25  N   UNL     1       0.363  -1.139   3.570  0.00  0.00    -0.229 NA
ATOM     26  C   UNL     1       0.362  -2.443   3.361  0.00  0.00    +0.223 A 
ATOM     27  N   UNL     1       0.241  -2.946   2.147  0.00  0.00    -0.228 NA
ATOM     28  C   UNL     1      -0.232  -0.123  -2.548  0.00  0.00    +0.052 C 
ENDBRANCH  17  24
ENDBRANCH  16  17
ENDBRANCH   1  16
TORSDOF 4
