REMARK  Name = ZINC14016592
REMARK  8 active torsions:
REMARK  status: ('A' for Active; 'I' for Inactive)
REMARK    1  A    between atoms: C_1  and  C_2
REMARK    2  A    between atoms: C_2  and  O_3
REMARK    3  A    between atoms: O_3  and  C_4
REMARK    4  A    between atoms: C_4  and  C_6
REMARK    5  A    between atoms: C_10  and  N_11
REMARK    6  A    between atoms: C_12  and  C_14
REMARK    7  A    between atoms: N_19  and  S_21
REMARK    8  A    between atoms: S_21  and  C_24
REMARK                            x       y       z     vdW  Elec       q    Type
REMARK                         _______ _______ _______ _____ _____    ______ ____
ROOT
ATOM      1  N   UNL     1      -5.452   0.693   3.002  0.00  0.00    -0.279 N 
ATOM      2  C   UNL     1      -6.682   0.332   2.585  0.00  0.00    +0.222 C 
ATOM      3  O   UNL     1      -6.882   0.108   1.410  0.00  0.00    -0.275 OA
ATOM      4  H   UNL     1      -5.291   0.871   3.942  0.00  0.00    +0.155 HD
ENDROOT
BRANCH   1   9
ATOM      5  C   UNL     1      -3.094   1.163   2.322  0.00  0.00    +0.091 A 
ATOM      6  C   UNL     1      -2.199   1.208   1.178  0.00  0.00    -0.021 A 
ATOM      7  C   UNL     1      -2.764   0.894  -0.008  0.00  0.00    -0.004 A 
ATOM      8  S   UNL     1      -4.456   0.541   0.376  0.00  0.00    -0.077 S 
ATOM      9  C   UNL     1      -4.416   0.807   2.088  0.00  0.00    +0.086 A 
ATOM     10  C   UNL     1      -2.094   0.856  -1.347  0.00  0.00    +0.043 C 
ATOM     11  C   UNL     1      -0.750   1.591  -1.235  0.00  0.00    +0.005 C 
ATOM     12  C   UNL     1      -0.013   1.086   0.008  0.00  0.00    +0.005 C 
ATOM     13  C   UNL     1      -0.725   1.577   1.269  0.00  0.00    +0.037 C 
BRANCH   5  14
ATOM     14  C   UNL     1      -2.620   1.480   3.670  0.00  0.00    +0.342 C 
ATOM     15  O   UNL     1      -2.669   2.625   4.078  0.00  0.00    -0.245 OA
BRANCH  14  16
ATOM     16  O   UNL     1      -2.129   0.503   4.460  0.00  0.00    -0.461 OA
BRANCH  16  18
ATOM     17  C   UNL     1      -1.159  -0.342   6.527  0.00  0.00    +0.048 C 
ATOM     18  C   UNL     1      -1.677   0.891   5.785  0.00  0.00    +0.229 C 
ENDBRANCH  16  18
ENDBRANCH  14  16
ENDBRANCH   5  14
ENDBRANCH   1   9
BRANCH   2  19
ATOM     19  C   UNL     1      -7.808   0.207   3.578  0.00  0.00    +0.091 C 
ATOM     20  C   UNL     1      -7.451  -0.851   4.624  0.00  0.00    +0.015 C 
ATOM     21  C   UNL     1      -8.580  -0.956   5.653  0.00  0.00    +0.018 C 
ATOM     22  C   UNL     1      -9.869  -1.388   4.948  0.00  0.00    +0.109 C 
ATOM     23  N   UNL     1     -10.141  -0.455   3.846  0.00  0.00    -0.176 NA
ATOM     24  C   UNL     1      -9.088  -0.212   2.850  0.00  0.00    +0.122 C 
BRANCH  23  25
ATOM     25  S   UNL     1     -11.606   0.308   3.728  0.00  0.00    +0.061 S 
ATOM     26  O   UNL     1     -12.158   0.332   5.037  0.00  0.00    -0.153 OA
ATOM     27  O   UNL     1     -11.389   1.490   2.971  0.00  0.00    -0.153 OA
BRANCH  25  28
ATOM     28  C   UNL     1     -12.655  -0.725   2.759  0.00  0.00    +0.106 A 
ATOM     29  C   UNL     1     -12.701  -0.569   1.386  0.00  0.00    +0.030 A 
ATOM     30  C   UNL     1     -13.519  -1.383   0.625  0.00  0.00    +0.022 A 
ATOM     31  C   UNL     1     -14.300  -2.346   1.239  0.00  0.00    +0.041 A 
ATOM     32  C   UNL     1     -14.258  -2.497   2.613  0.00  0.00    +0.022 A 
ATOM     33  C   UNL     1     -13.435  -1.687   3.373  0.00  0.00    +0.030 A 
ATOM     34 CL   UNL     1     -15.333  -3.364   0.284  0.00  0.00    -0.084 Cl
ENDBRANCH  25  28
ENDBRANCH  23  25
ENDBRANCH   2  19
TORSDOF 7
