REMARK  Name = ZINC15730699
REMARK  4 active torsions:
REMARK  status: ('A' for Active; 'I' for Inactive)
REMARK    1  A    between atoms: C_1  and  C_2
REMARK    2  A    between atoms: C_9  and  S_15
REMARK    3  A    between atoms: S_15  and  N_18
REMARK    4  A    between atoms: N_21  and  C_24
REMARK                            x       y       z     vdW  Elec       q    Type
REMARK                         _______ _______ _______ _____ _____    ______ ____
ROOT
ATOM      1  S   UNL     1       0.075  -5.833   4.495  0.00  0.00    +0.061 S 
ATOM      2  O   UNL     1       0.661  -4.982   5.470  0.00  0.00    -0.153 OA
ATOM      3  O   UNL     1      -1.060  -6.641   4.773  0.00  0.00    -0.153 OA
ENDROOT
BRANCH   1  11
ATOM      4  C   UNL     1      -0.019   1.526   0.010  0.00  0.00    +0.018 C 
ATOM      5  C   UNL     1       0.002  -0.004   0.002  0.00  0.00    +0.082 C 
ATOM      6  C   UNL     1      -1.412  -0.510  -0.021  0.00  0.00    +0.087 C 
ATOM      7  S   UNL     1      -1.552  -2.246  -0.415  0.00  0.00    -0.123 S 
ATOM      8  C   UNL     1      -1.028  -3.170   0.972  0.00  0.00    +0.029 A 
ATOM      9  C   UNL     1      -1.682  -4.389   1.194  0.00  0.00    +0.018 A 
ATOM     10  C   UNL     1      -1.357  -5.202   2.254  0.00  0.00    +0.030 A 
ATOM     11  C   UNL     1      -0.359  -4.809   3.128  0.00  0.00    +0.107 A 
ATOM     12  C   UNL     1       0.292  -3.616   2.924  0.00  0.00    +0.053 A 
ATOM     13  C   UNL     1      -0.025  -2.775   1.844  0.00  0.00    +0.049 A 
ATOM     14  N   UNL     1       0.721  -1.627   1.778  0.00  0.00    -0.284 N 
ATOM     15  C   UNL     1       0.753  -0.483   1.194  0.00  0.00    +0.221 C 
ATOM     16  O   UNL     1       1.511   0.327   1.687  0.00  0.00    -0.275 OA
ATOM     17  H   UNL     1       1.481  -1.704   2.376  0.00  0.00    +0.155 HD
ENDBRANCH   1  11
BRANCH   1  18
ATOM     18  N   UNL     1       1.270  -6.856   3.979  0.00  0.00    -0.174 NA
ATOM     19  C   UNL     1       0.942  -8.162   3.386  0.00  0.00    +0.125 C 
ATOM     20  C   UNL     1       1.686  -8.290   2.052  0.00  0.00    +0.102 C 
ATOM     21  N   UNL     1       3.119  -8.049   2.269  0.00  0.00    -0.297 NA
ATOM     22  C   UNL     1       3.363  -6.679   2.742  0.00  0.00    +0.102 C 
ATOM     23  C   UNL     1       2.688  -6.482   4.098  0.00  0.00    +0.125 C 
BRANCH  21  24
ATOM     24  C   UNL     1       3.891  -8.331   1.052  0.00  0.00    +0.057 C 
ATOM     25  C   UNL     1       3.695  -9.795   0.651  0.00  0.00    +0.019 C 
ATOM     26  C   UNL     1       4.499 -10.088  -0.617  0.00  0.00    +0.002 C 
ATOM     27  C   UNL     1       5.983  -9.826  -0.352  0.00  0.00    +0.000 C 
ATOM     28  C   UNL     1       6.178  -8.362   0.048  0.00  0.00    +0.002 C 
ATOM     29  C   UNL     1       5.375  -8.068   1.316  0.00  0.00    +0.019 C 
ENDBRANCH  21  24
ENDBRANCH   1  18
TORSDOF 3
