REMARK  Name = ZINC24912238
REMARK  3 active torsions:
REMARK  status: ('A' for Active; 'I' for Inactive)
REMARK    1  A    between atoms: C_4  and  N_7
REMARK    2  A    between atoms: N_15  and  C_18
REMARK    3  A    between atoms: C_18  and  C_19
REMARK                            x       y       z     vdW  Elec       q    Type
REMARK                         _______ _______ _______ _____ _____    ______ ____
ROOT
ATOM      1  N   UNL     1       6.042  -0.188  -5.234  0.00  0.00    -0.300 N 
ATOM      2  C   UNL     1       7.370   0.432  -5.456  0.00  0.00    +0.214 C 
ATOM      3  N   UNL     1       7.482   1.520  -4.477  0.00  0.00    -0.298 N 
ATOM      4  C   UNL     1       6.567   1.347  -3.501  0.00  0.00    +0.238 C 
ATOM      5  O   UNL     1       6.411   2.068  -2.538  0.00  0.00    -0.273 OA
ATOM      6  C   UNL     1       5.772   0.103  -3.811  0.00  0.00    +0.109 C 
ATOM      7  C   UNL     1       6.240  -1.060  -2.939  0.00  0.00    +0.017 C 
ATOM      8  C   UNL     1       5.911  -0.759  -1.474  0.00  0.00    -0.076 C 
ATOM      9  N   UNL     1       4.465  -0.547  -1.331  0.00  0.00    +0.383 N 
ATOM     10  C   UNL     1       4.016   0.611  -2.114  0.00  0.00    -0.076 C 
ATOM     11  C   UNL     1       4.282   0.356  -3.600  0.00  0.00    +0.017 C 
ATOM     12  H   UNL     1       8.236   2.309  -4.616  0.00  0.00    +0.150 HD
ATOM     13  H   UNL     1       3.956  -1.437  -1.729  0.00  0.00    -0.081 HD
ENDROOT
BRANCH   1  17
ATOM     14  C   UNL     1       6.176  -4.292  -5.921  0.00  0.00    +0.000 A 
ATOM     15  C   UNL     1       5.036  -3.719  -5.387  0.00  0.00    +0.002 A 
ATOM     16  C   UNL     1       4.989  -2.358  -5.158  0.00  0.00    +0.023 A 
ATOM     17  C   UNL     1       6.087  -1.564  -5.464  0.00  0.00    +0.032 A 
ATOM     18  C   UNL     1       7.228  -2.143  -6.005  0.00  0.00    +0.023 A 
ATOM     19  C   UNL     1       7.271  -3.505  -6.227  0.00  0.00    +0.002 A 
ENDBRANCH   1  17
BRANCH   9  20
ATOM     20  C   UNL     1       4.092  -0.404   0.083  0.00  0.00    -0.036 C 
BRANCH  20  21
ATOM     21  C   UNL     1       2.659   0.053   0.180  0.00  0.00    -0.025 A 
ATOM     22  C   UNL     1       1.529  -0.692   0.253  0.00  0.00    +0.011 A 
ATOM     23  C   UNL     1       0.307  -0.050   0.336  0.00  0.00    +0.028 A 
ATOM     24  C   UNL     1       0.276   1.306   0.342  0.00  0.00    +0.078 A 
ATOM     25  S   UNL     1       2.010   1.716   0.228  0.00  0.00    -0.084 S 
ATOM     26 CL   UNL     1      -1.094   2.368   0.430  0.00  0.00    -0.076 Cl
ENDBRANCH  20  21
ENDBRANCH   9  20
TORSDOF 3
