REMARK  Name = ZINC39687586
REMARK  7 active torsions:
REMARK  status: ('A' for Active; 'I' for Inactive)
REMARK    1  A    between atoms: C_1  and  C_2
REMARK    2  A    between atoms: C_7  and  N_8
REMARK    3  A    between atoms: C_11  and  N_14
REMARK    4  A    between atoms: C_15  and  C_17
REMARK    5  A    between atoms: C_28  and  C_30
REMARK    6  A    between atoms: C_30  and  C_31
REMARK    7  A    between atoms: C_31  and  C_32
REMARK                            x       y       z     vdW  Elec       q    Type
REMARK                         _______ _______ _______ _____ _____    ______ ____
ROOT
ATOM      1  C   UNL     1       2.534   2.675   8.424  0.00  0.00    +0.100 C 
ATOM      2  C   UNL     1       3.924   2.017   8.270  0.00  0.00    +0.121 C 
ATOM      3  N   UNL     1       4.436   1.897   9.655  0.00  0.00    -0.300 N 
ATOM      4  C   UNL     1       3.250   1.509  10.454  0.00  0.00    +0.115 C 
ATOM      5  C   UNL     1       2.095   2.338   9.858  0.00  0.00    -0.004 C 
ATOM      6  C   UNL     1       1.895   3.619  10.663  0.00  0.00    -0.010 C 
ATOM      7  C   UNL     1       1.404   3.261  12.069  0.00  0.00    -0.082 C 
ATOM      8  N   UNL     1       0.142   2.517  11.974  0.00  0.00    +0.379 N 
ATOM      9  C   UNL     1       0.363   1.243  11.278  0.00  0.00    -0.082 C 
ATOM     10  C   UNL     1       0.810   1.516   9.839  0.00  0.00    -0.010 C 
ATOM     11  C   UNL     1       5.697   2.094  10.089  0.00  0.00    +0.216 C 
ATOM     12  O   UNL     1       5.962   1.955  11.264  0.00  0.00    -0.276 OA
ATOM     13  H   UNL     1      -0.211   2.335  12.902  0.00  0.00    -0.086 HD
ATOM     14  H   UNL     1      -0.533   3.065  11.462  0.00  0.00    -0.086 HD
ENDROOT
BRANCH   1  16
ATOM     15  N   UNL     1       0.538   2.836   6.971  0.00  0.00    -0.312 N 
ATOM     16  C   UNL     1       1.565   2.091   7.428  0.00  0.00    +0.218 C 
ATOM     17  O   UNL     1       1.708   0.952   7.038  0.00  0.00    -0.275 OA
ATOM     18  H   UNL     1       0.423   3.747   7.283  0.00  0.00    +0.149 HD
BRANCH  15  22
ATOM     19  N   UNL     1      -2.146   2.404   3.779  0.00  0.00    -0.316 N 
ATOM     20  C   UNL     1      -2.739   2.379   5.122  0.00  0.00    +0.108 C 
ATOM     21  C   UNL     1      -1.746   2.998   6.112  0.00  0.00    +0.041 C 
ATOM     22  C   UNL     1      -0.404   2.269   6.003  0.00  0.00    +0.076 C 
ATOM     23  C   UNL     1       0.156   2.435   4.589  0.00  0.00    +0.041 C 
ATOM     24  C   UNL     1      -0.818   1.806   3.582  0.00  0.00    +0.108 C 
BRANCH  19  31
ATOM     25  C   UNL     1      -4.022   0.787   2.379  0.00  0.00    +0.047 C 
ATOM     26  C   UNL     1      -3.756   2.221   2.002  0.00  0.00    -0.012 A 
ATOM     27  C   UNL     1      -4.434   2.806   0.947  0.00  0.00    +0.008 A 
ATOM     28  C   UNL     1      -4.157   4.130   0.634  0.00  0.00    +0.018 A 
ATOM     29  C   UNL     1      -3.220   4.819   1.379  0.00  0.00    +0.084 A 
ATOM     30  N   UNL     1      -2.589   4.236   2.379  0.00  0.00    -0.349 N 
ATOM     31  C   UNL     1      -2.830   2.977   2.713  0.00  0.00    +0.102 A 
ATOM     32  H   UNL     1      -1.935   4.743   2.886  0.00  0.00    +0.167 HD
ENDBRANCH  19  31
ENDBRANCH  15  22
ENDBRANCH   1  16
BRANCH  11  33
ATOM     33  C   UNL     1       6.777   2.488   9.115  0.00  0.00    +0.096 C 
BRANCH  33  34
ATOM     34  C   UNL     1       8.103   2.648   9.861  0.00  0.00    +0.013 C 
BRANCH  34  35
ATOM     35  C   UNL     1       9.199   3.048   8.871  0.00  0.00    -0.011 C 
ATOM     36  C   UNL     1       9.492   1.881   7.906  0.00  0.00    +0.003 C 
ATOM     37  C   UNL     1      11.024   1.943   7.688  0.00  0.00    +0.000 C 
ATOM     38  C   UNL     1      11.553   2.331   9.091  0.00  0.00    +0.000 C 
ATOM     39  C   UNL     1      10.510   3.334   9.625  0.00  0.00    +0.003 C 
ENDBRANCH  34  35
ENDBRANCH  33  34
ENDBRANCH  11  33
TORSDOF 6
