REMARK  Name = ZINC28847374
REMARK  9 active torsions:
REMARK  status: ('A' for Active; 'I' for Inactive)
REMARK    1  A    between atoms: C_1  and  C_2
REMARK    2  A    between atoms: C_2  and  C_4
REMARK    3  A    between atoms: C_2  and  N_34
REMARK    4  A    between atoms: C_4  and  C_5
REMARK    5  A    between atoms: C_5  and  C_6
REMARK    6  A    between atoms: C_9  and  C_12
REMARK    7  A    between atoms: C_18  and  C_20
REMARK    8  A    between atoms: N_23  and  C_25
REMARK    9  A    between atoms: C_35  and  C_37
REMARK                            x       y       z     vdW  Elec       q    Type
REMARK                         _______ _______ _______ _____ _____    ______ ____
ROOT
ATOM      1  C   UNL     1      -6.306  -2.090  -4.329  0.00  0.00    +0.080 A 
ATOM      2  C   UNL     1      -6.351  -3.326  -4.912  0.00  0.00    +0.076 A 
ATOM      3  S   UNL     1      -8.065  -3.394  -5.414  0.00  0.00    -0.060 S 
ATOM      4  C   UNL     1      -8.542  -1.784  -4.801  0.00  0.00    +0.165 A 
ATOM      5  N   UNL     1      -7.406  -1.353  -4.284  0.00  0.00    -0.225 NA
ATOM      6  N   UNL     1      -9.779  -1.156  -4.851  0.00  0.00    -0.259 N 
ATOM      7  C   UNL     1     -10.828  -1.778  -5.425  0.00  0.00    +0.270 C 
ATOM      8  O   UNL     1     -10.690  -2.888  -5.900  0.00  0.00    -0.268 OA
ATOM      9  H   UNL     1      -9.903  -0.151  -4.421  0.00  0.00    +0.157 HD
ENDROOT
BRANCH   7  10
ATOM     10  C   UNL     1     -12.143  -1.110  -5.478  0.00  0.00    +0.151 A 
ATOM     11  C   UNL     1     -13.328  -1.629  -6.050  0.00  0.00    +0.006 A 
ATOM     12  C   UNL     1     -14.272  -0.681  -5.865  0.00  0.00    +0.049 A 
ATOM     13  N   UNL     1     -13.672   0.357  -5.222  0.00  0.00    -0.236 N 
ATOM     14  N   UNL     1     -12.435   0.087  -5.007  0.00  0.00    -0.161 NA
ATOM     15  C   UNL     1     -15.593  -1.141  -6.440  0.00  0.00    +0.056 C 
ATOM     16  C   UNL     1     -15.444  -2.669  -6.613  0.00  0.00    +0.011 C 
ATOM     17  C   UNL     1     -13.914  -2.828  -6.755  0.00  0.00    +0.040 C 
BRANCH  13  18
ATOM     18  C   UNL     1     -14.311   1.547  -4.848  0.00  0.00    +0.066 A 
ATOM     19  C   UNL     1     -15.302   2.088  -5.657  0.00  0.00    +0.028 A 
ATOM     20  C   UNL     1     -15.934   3.258  -5.283  0.00  0.00    +0.002 A 
ATOM     21  C   UNL     1     -15.573   3.896  -4.111  0.00  0.00    +0.000 A 
ATOM     22  C   UNL     1     -14.584   3.362  -3.306  0.00  0.00    +0.002 A 
ATOM     23  C   UNL     1     -13.952   2.190  -3.671  0.00  0.00    +0.028 A 
ENDBRANCH  13  18
ENDBRANCH   7  10
BRANCH   1  27
ATOM     24  C   UNL     1      -2.677  -0.633  -2.660  0.00  0.00    -0.047 A 
ATOM     25  C   UNL     1      -2.711  -1.883  -3.252  0.00  0.00    +0.004 A 
ATOM     26  C   UNL     1      -3.887  -2.363  -3.791  0.00  0.00    +0.010 A 
ATOM     27  C   UNL     1      -5.041  -1.582  -3.747  0.00  0.00    +0.001 A 
ATOM     28  C   UNL     1      -5.000  -0.322  -3.153  0.00  0.00    +0.010 A 
ATOM     29  C   UNL     1      -3.819   0.146  -2.613  0.00  0.00    +0.004 A 
BRANCH  24  30
ATOM     30  C   UNL     1      -1.391  -0.117  -2.069  0.00  0.00    +0.037 C 
BRANCH  30  31
ATOM     31  C   UNL     1      -1.304  -0.528  -0.598  0.00  0.00    +0.026 C 
BRANCH  31  33
ATOM     32  C   UNL     1       0.148  -0.520   1.435  0.00  0.00    +0.028 C 
ATOM     33  C   UNL     1       0.002  -0.004   0.002  0.00  0.00    +0.070 C 
BRANCH  33  34
ATOM     34  N   UNL     1      -0.018   1.461   0.010  0.00  0.00    -0.313 N 
ATOM     35  C   UNL     1       1.140   2.151   0.003  0.00  0.00    +0.210 C 
ATOM     36  O   UNL     1       2.199   1.558  -0.011  0.00  0.00    -0.276 OA
ATOM     37  C   UNL     1       1.120   3.657   0.011  0.00  0.00    +0.109 C 
ATOM     38  H   UNL     1      -0.978   1.998   0.022  0.00  0.00    +0.149 HD
ENDBRANCH  33  34
ENDBRANCH  31  33
ENDBRANCH  30  31
ENDBRANCH  24  30
ENDBRANCH   1  27
TORSDOF 7
