REMARK  Name = ZINC13424773
REMARK  8 active torsions:
REMARK  status: ('A' for Active; 'I' for Inactive)
REMARK    1  A    between atoms: C_3  and  N_10
REMARK    2  A    between atoms: C_5  and  N_7
REMARK    3  A    between atoms: N_10  and  C_11
REMARK    4  A    between atoms: C_13  and  O_26
REMARK    5  A    between atoms: C_15  and  O_25
REMARK    6  A    between atoms: C_17  and  O_24
REMARK    7  A    between atoms: C_19  and  C_22
REMARK    8  A    between atoms: C_22  and  O_23
REMARK                            x       y       z     vdW  Elec       q    Type
REMARK                         _______ _______ _______ _____ _____    ______ ____
ROOT
ATOM      1  C   UNL     1       2.225   1.153  -1.054  0.00  0.00    +0.235 C 
ATOM      2  C   UNL     1       1.405   1.442   0.207  0.00  0.00    +0.192 C 
ATOM      3  C   UNL     1      -0.058   1.066  -0.047  0.00  0.00    +0.178 C 
ATOM      4  C   UNL     1      -0.569   1.844  -1.264  0.00  0.00    +0.177 C 
ATOM      5  C   UNL     1       0.327   1.539  -2.468  0.00  0.00    +0.177 C 
ATOM      6  O   UNL     1       1.678   1.883  -2.154  0.00  0.00    -0.348 OA
ENDROOT
BRANCH   1   7
ATOM      7  N   UNL     1       2.179  -0.281  -1.348  0.00  0.00    -0.317 N 
ATOM      8  H   UNL     1       1.383  -0.794  -1.139  0.00  0.00    +0.149 HD
BRANCH   7  11
ATOM      9  C   UNL     1       4.394  -2.911  -2.644  0.00  0.00    +0.004 A 
ATOM     10  C   UNL     1       3.301  -2.292  -2.069  0.00  0.00    +0.023 A 
ATOM     11  C   UNL     1       3.282  -0.911  -1.929  0.00  0.00    +0.031 A 
ATOM     12  C   UNL     1       4.361  -0.155  -2.372  0.00  0.00    +0.055 A 
ATOM     13  C   UNL     1       5.452  -0.781  -2.941  0.00  0.00    +0.128 A 
ATOM     14  C   UNL     1       5.468  -2.157  -3.079  0.00  0.00    +0.033 A 
BRANCH  13  15
ATOM     15  N   UNL     1       6.605   0.022  -3.408  0.00  0.00    +0.056 N 
ATOM     16  O   UNL     1       7.566  -0.529  -3.913  0.00  0.00    -0.126 OA
ATOM     17  O   UNL     1       6.592   1.234  -3.286  0.00  0.00    -0.126 OA
ENDBRANCH  13  15
ENDBRANCH   7  11
ENDBRANCH   1   7
BRANCH   4  18
ATOM     18  O   UNL     1      -1.911   1.447  -1.555  0.00  0.00    -0.386 OA
ATOM     19  H   UNL     1      -2.534   1.607  -0.833  0.00  0.00    +0.210 HD
ENDBRANCH   4  18
BRANCH   3  20
ATOM     20  O   UNL     1      -0.843   1.399   1.099  0.00  0.00    -0.386 OA
ATOM     21  H   UNL     1      -0.571   0.944   1.908  0.00  0.00    +0.210 HD
ENDBRANCH   3  20
BRANCH   2  22
ATOM     22  O   UNL     1       1.493   2.833   0.525  0.00  0.00    -0.385 OA
ATOM     23  H   UNL     1       2.393   3.140   0.698  0.00  0.00    +0.210 HD
ENDBRANCH   2  22
BRANCH   5  24
ATOM     24  C   UNL     1      -0.141   2.358  -3.672  0.00  0.00    +0.190 C 
BRANCH  24  25
ATOM     25  O   UNL     1       0.620   1.989  -4.824  0.00  0.00    -0.392 OA
ATOM     26  H   UNL     1       0.377   2.470  -5.627  0.00  0.00    +0.210 HD
ENDBRANCH  24  25
ENDBRANCH   5  24
TORSDOF 8
