REMARK  Name = ZINC47350816
REMARK  6 active torsions:
REMARK  status: ('A' for Active; 'I' for Inactive)
REMARK    1  A    between atoms: C_1  and  C_2
REMARK    2  A    between atoms: C_5  and  C_7
REMARK    3  A    between atoms: C_7  and  N_8
REMARK    4  A    between atoms: N_8  and  C_9
REMARK    5  A    between atoms: C_12  and  N_14
REMARK    6  A    between atoms: C_19  and  C_21
REMARK                            x       y       z     vdW  Elec       q    Type
REMARK                         _______ _______ _______ _____ _____    ______ ____
ROOT
ATOM      1  N   UNL     1       1.983  -3.620  -1.407  0.00  0.00    -0.274 N 
ATOM      2  C   UNL     1       1.203  -4.509  -2.053  0.00  0.00    +0.329 C 
ATOM      3  O   UNL     1       0.202  -4.947  -1.513  0.00  0.00    -0.250 OA
ENDROOT
BRANCH   2   4
ATOM      4  N   UNL     1       1.527  -4.910  -3.285  0.00  0.00    -0.139 NA
ATOM      5  C   UNL     1       0.756  -5.789  -3.923  0.00  0.00    +0.165 A 
ATOM      6  N   UNL     1       0.925  -6.315  -5.168  0.00  0.00    -0.342 N 
ATOM      7  H   UNL     1       1.685  -6.059  -5.713  0.00  0.00    +0.167 HD
ATOM      8  C   UNL     1       0.008  -7.207  -5.632  0.00  0.00    +0.095 A 
ATOM      9  C   UNL     1      -1.013  -7.513  -4.824  0.00  0.00    +0.006 A 
ATOM     10  S   UNL     1      -0.657  -6.523  -3.385  0.00  0.00    -0.058 S 
ATOM     11  C   UNL     1      -2.164  -8.455  -5.067  0.00  0.00    +0.053 C 
ENDBRANCH   2   4
BRANCH   1  12
ATOM     12  C   UNL     1       3.123  -3.010  -2.095  0.00  0.00    +0.078 C 
ATOM     13  C   UNL     1       4.009  -2.059  -1.288  0.00  0.00    +0.024 C 
ATOM     14  C   UNL     1       3.067  -1.504  -2.358  0.00  0.00    +0.024 C 
ENDBRANCH   1  12
BRANCH   1  15
ATOM     15  C   UNL     1       1.690  -3.263  -0.017  0.00  0.00    +0.183 C 
BRANCH  15  20
ATOM     16  C   UNL     1       0.010   1.492   0.086  0.00  0.00    +0.086 C 
ATOM     17  C   UNL     1       0.024  -0.014   0.057  0.00  0.00    +0.102 A 
ATOM     18  C   UNL     1      -1.060  -0.810   0.050  0.00  0.00    +0.045 A 
ATOM     19  C   UNL     1      -0.590  -2.143   0.021  0.00  0.00    +0.046 A 
ATOM     20  C   UNL     1       0.754  -2.082   0.012  0.00  0.00    +0.122 A 
ATOM     21  O   UNL     1       1.120  -0.790   0.028  0.00  0.00    -0.463 OA
ENDBRANCH  15  20
ENDBRANCH   1  15
TORSDOF 4
