REMARK  Name = ZINC15205551
REMARK  7 active torsions:
REMARK  status: ('A' for Active; 'I' for Inactive)
REMARK    1  A    between atoms: C_11  and  O_12
REMARK    2  A    between atoms: O_12  and  C_13
REMARK    3  A    between atoms: C_15  and  O_28
REMARK    4  A    between atoms: C_17  and  O_27
REMARK    5  A    between atoms: C_19  and  O_26
REMARK    6  A    between atoms: C_21  and  C_24
REMARK    7  A    between atoms: C_24  and  O_25
REMARK                            x       y       z     vdW  Elec       q    Type
REMARK                         _______ _______ _______ _____ _____    ______ ____
ROOT
ATOM      1  C   UNL     1      -4.507   5.024   0.070  0.00  0.00    +0.339 C 
ATOM      2  C   UNL     1      -5.944   4.565   0.331  0.00  0.00    +0.214 C 
ATOM      3  C   UNL     1      -6.394   3.650  -0.812  0.00  0.00    +0.180 C 
ATOM      4  C   UNL     1      -6.256   4.402  -2.139  0.00  0.00    +0.177 C 
ATOM      5  C   UNL     1      -4.807   4.868  -2.304  0.00  0.00    +0.179 C 
ATOM      6  O   UNL     1      -4.443   5.689  -1.193  0.00  0.00    -0.331 OA
ENDROOT
BRANCH   4   7
ATOM      7  O   UNL     1      -6.604   3.534  -3.219  0.00  0.00    -0.386 OA
ATOM      8  H   UNL     1      -7.511   3.200  -3.179  0.00  0.00    +0.210 HD
ENDBRANCH   4   7
BRANCH   3   9
ATOM      9  O   UNL     1      -5.575   2.479  -0.838  0.00  0.00    -0.386 OA
ATOM     10  H   UNL     1      -5.614   1.954  -0.028  0.00  0.00    +0.210 HD
ENDBRANCH   3   9
BRANCH   2  11
ATOM     11  O   UNL     1      -6.805   5.704   0.398  0.00  0.00    -0.383 OA
ATOM     12  H   UNL     1      -6.575   6.330   1.097  0.00  0.00    +0.210 HD
ENDBRANCH   2  11
BRANCH   1  13
ATOM     13  O   UNL     1      -3.639   3.889   0.056  0.00  0.00    -0.459 OA
BRANCH  13  24
ATOM     14  C   UNL     1      -0.013   1.076   0.008  0.00  0.00    +0.021 A 
ATOM     15  C   UNL     1      -1.208   1.738   0.017  0.00  0.00    +0.015 A 
ATOM     16  C   UNL     1      -1.228   3.133   0.030  0.00  0.00    +0.042 A 
ATOM     17  C   UNL     1      -0.019   3.853   0.022  0.00  0.00    +0.051 A 
ATOM     18  C   UNL     1       1.187   3.160   0.008  0.00  0.00    +0.046 A 
ATOM     19  C   UNL     1       1.184   1.781   0.000  0.00  0.00    +0.043 A 
ATOM     20 CL   UNL     1       2.690   0.919  -0.018  0.00  0.00    -0.083 Cl
ATOM     21  N   UNL     1      -0.341   5.192   0.033  0.00  0.00    -0.358 N 
ATOM     22  H   UNL     1       0.300   5.919   0.031  0.00  0.00    +0.165 HD
ATOM     23  C   UNL     1      -1.708   5.343   0.046  0.00  0.00    +0.130 A 
ATOM     24  C   UNL     1      -2.299   4.135   0.045  0.00  0.00    +0.149 A 
ENDBRANCH  13  24
ENDBRANCH   1  13
BRANCH   5  25
ATOM     25  C   UNL     1      -4.674   5.672  -3.599  0.00  0.00    +0.190 C 
BRANCH  25  26
ATOM     26  O   UNL     1      -3.301   6.008  -3.811  0.00  0.00    -0.392 OA
ATOM     27  H   UNL     1      -3.142   6.520  -4.616  0.00  0.00    +0.210 HD
ENDBRANCH  25  26
ENDBRANCH   5  25
TORSDOF 7
