REMARK  Name = ZINC09307636
REMARK  3 active torsions:
REMARK  status: ('A' for Active; 'I' for Inactive)
REMARK    1  A    between atoms: C_1  and  C_2
REMARK    2  A    between atoms: N_23  and  C_26
REMARK    3  A    between atoms: C_31  and  C_32
REMARK                            x       y       z     vdW  Elec       q    Type
REMARK                         _______ _______ _______ _____ _____    ______ ____
ROOT
ATOM      1  C   UNL     1      -4.478  -1.461   3.484  0.00  0.00    +0.045 C 
ATOM      2  C   UNL     1      -3.107  -0.917   3.178  0.00  0.00    -0.029 A 
ATOM      3  C   UNL     1      -1.985  -1.623   3.559  0.00  0.00    +0.005 A 
ATOM      4  C   UNL     1      -0.723  -1.133   3.282  0.00  0.00    +0.001 A 
ATOM      5  C   UNL     1      -0.583   0.073   2.617  0.00  0.00    +0.004 A 
ATOM      6  C   UNL     1      -1.700   0.781   2.235  0.00  0.00    -0.027 A 
ATOM      7  C   UNL     1      -2.976   0.298   2.509  0.00  0.00    +0.039 A 
ATOM      8  N   UNL     1      -3.941   1.184   2.027  0.00  0.00    -0.286 N 
ATOM      9  C   UNL     1      -3.391   2.261   1.432  0.00  0.00    +0.212 C 
ATOM     10  O   UNL     1      -3.984   3.190   0.926  0.00  0.00    -0.277 OA
ATOM     11  C   UNL     1      -1.899   2.087   1.518  0.00  0.00    +0.053 C 
ATOM     12  C   UNL     1      -1.259   2.063   0.119  0.00  0.00    +0.089 C 
ATOM     13  C   UNL     1      -0.706   3.501  -0.079  0.00  0.00    +0.074 C 
ATOM     14  C   UNL     1      -1.070   4.260   1.210  0.00  0.00    -0.054 C 
ATOM     15  C   UNL     1       0.103   2.818   2.658  0.00  0.00    -0.076 C 
ATOM     16  C   UNL     1       0.910   4.132   2.651  0.00  0.00    -0.020 C 
ATOM     17  C   UNL     1       0.151   5.066   1.689  0.00  0.00    -0.016 C 
ATOM     18  C   UNL     1       0.791   3.294  -0.135  0.00  0.00    +0.228 C 
ATOM     19  O   UNL     1       1.614   4.172  -0.282  0.00  0.00    -0.275 OA
ATOM     20  N   UNL     1       1.065   1.992   0.003  0.00  0.00    -0.210 N 
ATOM     21  C   UNL     1      -0.010   1.211   0.154  0.00  0.00    +0.229 C 
ATOM     22  O   UNL     1       0.013   0.006   0.292  0.00  0.00    -0.275 OA
ATOM     23  H   UNL     1      -4.897   1.042   2.111  0.00  0.00    +0.155 HD
ATOM     24  N   UNL     1      -1.242   3.212   2.190  0.00  0.00    +0.395 N 
ATOM     25  H   UNL     1      -1.812   3.538   2.980  0.00  0.00    -0.079 HD
ENDROOT
BRANCH  20  26
ATOM     26  C   UNL     1       2.373   1.487  -0.010  0.00  0.00    +0.048 A 
ATOM     27  C   UNL     1       3.070   1.329   1.181  0.00  0.00    +0.024 A 
ATOM     28  C   UNL     1       4.358   0.831   1.165  0.00  0.00    +0.003 A 
ATOM     29  C   UNL     1       4.955   0.491  -0.034  0.00  0.00    +0.020 A 
ATOM     30  C   UNL     1       4.264   0.647  -1.223  0.00  0.00    +0.046 A 
ATOM     31  C   UNL     1       2.972   1.140  -1.213  0.00  0.00    -0.010 A 
ATOM     32  C   UNL     1       2.218   1.305  -2.507  0.00  0.00    +0.047 C 
ATOM     33 CL   UNL     1       5.018   0.219  -2.727  0.00  0.00    -0.083 Cl
ENDBRANCH  20  26
TORSDOF 1
