REMARK  Name = ZINC09382014
REMARK  8 active torsions:
REMARK  status: ('A' for Active; 'I' for Inactive)
REMARK    1  A    between atoms: C_1  and  O_2
REMARK    2  A    between atoms: O_2  and  C_3
REMARK    3  A    between atoms: C_7  and  N_9
REMARK    4  A    between atoms: C_10  and  C_24
REMARK    5  A    between atoms: C_13  and  S_14
REMARK    6  A    between atoms: S_14  and  C_15
REMARK    7  A    between atoms: C_15  and  C_16
REMARK    8  A    between atoms: C_24  and  C_25
REMARK                            x       y       z     vdW  Elec       q    Type
REMARK                         _______ _______ _______ _____ _____    ______ ____
ROOT
ATOM      1  N   UNL     1      -0.074   5.248   0.031  0.00  0.00    -0.274 N 
ATOM      2  C   UNL     1      -0.545   6.062   1.027  0.00  0.00    +0.144 A 
ATOM      3  N   UNL     1      -0.377   7.293   0.633  0.00  0.00    -0.133 NA
ATOM      4  N   UNL     1       0.155   7.314  -0.537  0.00  0.00    -0.122 NA
ATOM      5  C   UNL     1       0.363   6.088  -0.956  0.00  0.00    +0.196 A 
ENDROOT
BRANCH   1  10
ATOM      6  C   UNL     1       1.180   1.785   0.000  0.00  0.00    +0.122 A 
ATOM      7  C   UNL     1      -0.013   1.076   0.008  0.00  0.00    +0.046 A 
ATOM      8  C   UNL     1      -1.219   1.750   0.017  0.00  0.00    +0.006 A 
ATOM      9  C   UNL     1      -1.241   3.131   0.031  0.00  0.00    +0.026 A 
ATOM     10  C   UNL     1      -0.051   3.846   0.023  0.00  0.00    +0.054 A 
ATOM     11  C   UNL     1       1.161   3.171   0.008  0.00  0.00    +0.072 A 
BRANCH   6  13
ATOM     12  C   UNL     1       2.310  -0.306  -0.023  0.00  0.00    +0.277 C 
ATOM     13  O   UNL     1       2.366   1.122  -0.015  0.00  0.00    -0.495 OA
ENDBRANCH   6  13
ENDBRANCH   1  10
BRANCH   5  14
ATOM     14  S   UNL     1       1.071   5.613  -2.498  0.00  0.00    -0.081 S 
BRANCH  14  15
ATOM     15  C   UNL     1       1.376   7.245  -3.219  0.00  0.00    +0.112 C 
BRANCH  15  16
ATOM     16  C   UNL     1       1.998   7.084  -4.582  0.00  0.00    -0.036 A 
ATOM     17  C   UNL     1       3.374   7.030  -4.712  0.00  0.00    +0.006 A 
ATOM     18  C   UNL     1       3.945   6.877  -5.961  0.00  0.00    +0.022 A 
ATOM     19  C   UNL     1       3.141   6.787  -7.084  0.00  0.00    +0.059 A 
ATOM     20  C   UNL     1       1.764   6.846  -6.954  0.00  0.00    +0.060 A 
ATOM     21  C   UNL     1       1.193   6.995  -5.703  0.00  0.00    +0.026 A 
ATOM     22 CL   UNL     1       0.754   6.734  -8.361  0.00  0.00    -0.082 Cl
ATOM     23 CL   UNL     1       3.858   6.601  -8.653  0.00  0.00    -0.082 Cl
ENDBRANCH  15  16
ENDBRANCH  14  15
ENDBRANCH   5  14
BRANCH   2  24
ATOM     24  C   UNL     1      -1.142   5.617   2.337  0.00  0.00    +0.130 C 
BRANCH  24  25
ATOM     25  C   UNL     1      -0.051   5.487   3.369  0.00  0.00    +0.033 A 
ATOM     26  C   UNL     1       0.214   6.511   4.208  0.00  0.00    +0.091 A 
ATOM     27  C   UNL     1       1.244   6.365   5.168  0.00  0.00    +0.254 A 
ATOM     28  O   UNL     1       1.502   7.274   5.936  0.00  0.00    -0.268 OA
ATOM     29  N   UNL     1       1.937   5.210   5.225  0.00  0.00    -0.275 N 
ATOM     30  H   UNL     1       2.665   5.099   5.901  0.00  0.00    +0.173 HD
ATOM     31  C   UNL     1       1.651   4.205   4.377  0.00  0.00    +0.327 A 
ATOM     32  O   UNL     1       2.284   3.169   4.439  0.00  0.00    -0.247 OA
ATOM     33  N   UNL     1       0.671   4.329   3.463  0.00  0.00    -0.311 N 
ATOM     34  H   UNL     1       0.469   3.568   2.847  0.00  0.00    +0.170 HD
ENDBRANCH  24  25
ENDBRANCH   2  24
TORSDOF 7
