REMARK  Name = ZINC02860423
REMARK  12 active torsions:
REMARK  status: ('A' for Active; 'I' for Inactive)
REMARK    1  A    between atoms: C_1  and  C_2
REMARK    2  A    between atoms: C_2  and  O_3
REMARK    3  A    between atoms: O_3  and  C_4
REMARK    4  A    between atoms: C_4  and  C_6
REMARK    5  A    between atoms: C_6  and  O_7
REMARK    6  A    between atoms: O_7  and  C_8
REMARK    7  A    between atoms: C_11  and  C_16
REMARK    8  A    between atoms: C_13  and  O_14
REMARK    9  A    between atoms: O_14  and  C_15
REMARK   10  A    between atoms: C_18  and  C_30
REMARK   11  A    between atoms: C_19  and  C_24
REMARK   12  A    between atoms: C_30  and  C_32
REMARK                            x       y       z     vdW  Elec       q    Type
REMARK                         _______ _______ _______ _____ _____    ______ ____
ROOT
ATOM      1  C   UNL     1       2.478  -2.887   0.128  0.00  0.00    +0.142 C 
ATOM      2  C   UNL     1       2.893  -3.225   1.546  0.00  0.00    +0.041 C 
ATOM      3  C   UNL     1       4.112  -2.747   1.984  0.00  0.00    +0.051 C 
ATOM      4  N   UNL     1       4.906  -1.996   1.154  0.00  0.00    -0.268 N 
ATOM      5  C   UNL     1       4.571  -1.678  -0.103  0.00  0.00    +0.305 C 
ATOM      6  O   UNL     1       5.341  -1.007  -0.761  0.00  0.00    -0.252 OA
ATOM      7  N   UNL     1       3.414  -2.074  -0.666  0.00  0.00    -0.288 N 
ATOM      8  H   UNL     1       5.756  -1.677   1.496  0.00  0.00    +0.156 HD
ATOM      9  H   UNL     1       3.200  -1.827  -1.580  0.00  0.00    +0.151 HD
ENDROOT
BRANCH   1  13
ATOM     10  C   UNL     1      -1.256  -0.808   0.309  0.00  0.00    +0.164 A 
ATOM     11  C   UNL     1      -1.231  -2.193   0.312  0.00  0.00    +0.069 A 
ATOM     12  C   UNL     1      -0.022  -2.863   0.253  0.00  0.00    +0.050 A 
ATOM     13  C   UNL     1       1.164  -2.152   0.192  0.00  0.00    -0.001 A 
ATOM     14  C   UNL     1       1.144  -0.770   0.182  0.00  0.00    +0.056 A 
ATOM     15  C   UNL     1      -0.063  -0.094   0.247  0.00  0.00    +0.162 A 
ATOM     16 CL   UNL     1       0.008  -4.599   0.257  0.00  0.00    -0.083 Cl
BRANCH  15  17
ATOM     17  O   UNL     1      -0.083   1.266   0.244  0.00  0.00    -0.491 OA
ATOM     18  C   UNL     1       1.179   1.933   0.178  0.00  0.00    +0.277 C 
ENDBRANCH  15  17
BRANCH  10  19
ATOM     19  O   UNL     1      -2.443  -0.148   0.368  0.00  0.00    -0.477 OA
BRANCH  19  20
ATOM     20  C   UNL     1      -3.627  -0.946   0.430  0.00  0.00    +0.349 C 
BRANCH  20  21
ATOM     21  C   UNL     1      -4.835  -0.048   0.489  0.00  0.00    +0.345 C 
ATOM     22  O   UNL     1      -4.697   1.153   0.479  0.00  0.00    -0.247 OA
BRANCH  21  23
ATOM     23  O   UNL     1      -6.065  -0.581   0.553  0.00  0.00    -0.463 OA
BRANCH  23  25
ATOM     24  C   UNL     1      -8.494  -0.443   0.676  0.00  0.00    +0.048 C 
ATOM     25  C   UNL     1      -7.183   0.344   0.608  0.00  0.00    +0.229 C 
ENDBRANCH  23  25
ENDBRANCH  21  23
ENDBRANCH  20  21
ENDBRANCH  19  20
ENDBRANCH  10  19
ENDBRANCH   1  13
BRANCH   3  26
ATOM     26  C   UNL     1       4.566  -3.047   3.356  0.00  0.00    -0.003 A 
ATOM     27  C   UNL     1       5.041  -2.022   4.178  0.00  0.00    +0.010 A 
ATOM     28  C   UNL     1       5.457  -2.308   5.461  0.00  0.00    +0.001 A 
ATOM     29  C   UNL     1       5.415  -3.609   5.931  0.00  0.00    +0.000 A 
ATOM     30  C   UNL     1       4.951  -4.630   5.121  0.00  0.00    +0.001 A 
ATOM     31  C   UNL     1       4.526  -4.358   3.837  0.00  0.00    +0.010 A 
ENDBRANCH   3  26
BRANCH   2  32
ATOM     32  C   UNL     1       2.072  -3.992   2.379  0.00  0.00    +0.160 C 
ATOM     33  O   UNL     1       2.020  -5.199   2.237  0.00  0.00    -0.293 OA
ATOM     34  C   UNL     1       1.252  -3.323   3.452  0.00  0.00    +0.091 C 
ENDBRANCH   2  32
TORSDOF 9
