REMARK  Name = ZINC12631353
REMARK  10 active torsions:
REMARK  status: ('A' for Active; 'I' for Inactive)
REMARK    1  A    between atoms: C_2  and  C_3
REMARK    2  A    between atoms: C_3  and  N_4
REMARK    3  A    between atoms: C_8  and  S_29
REMARK    4  A    between atoms: N_13  and  C_14
REMARK    5  A    between atoms: C_14  and  C_16
REMARK    6  A    between atoms: C_16  and  C_17
REMARK    7  A    between atoms: C_17  and  C_18
REMARK    8  A    between atoms: C_18  and  S_19
REMARK    9  A    between atoms: S_19  and  C_22
REMARK   10  A    between atoms: S_29  and  N_32
REMARK                            x       y       z     vdW  Elec       q    Type
REMARK                         _______ _______ _______ _____ _____    ______ ____
ROOT
ATOM      1  N   UNL     1       1.032  -2.113  -0.019  0.00  0.00    -0.310 N 
ATOM      2  C   UNL     1       1.196  -0.741  -0.013  0.00  0.00    +0.059 A 
ATOM      3  C   UNL     1       2.392  -0.005  -0.020  0.00  0.00    +0.029 A 
ATOM      4  C   UNL     1       2.372   1.369  -0.013  0.00  0.00    +0.030 A 
ATOM      5  C   UNL     1       1.177   2.070   0.002  0.00  0.00    +0.106 A 
ATOM      6  C   UNL     1      -0.017   1.371   0.010  0.00  0.00    +0.045 A 
ATOM      7  C   UNL     1       0.002  -0.004   0.002  0.00  0.00    +0.041 A 
ATOM      8  S   UNL     1      -1.252  -1.261   0.007  0.00  0.00    -0.052 S 
ATOM      9  C   UNL     1      -0.216  -2.652  -0.010  0.00  0.00    +0.167 A 
ATOM     10  N   UNL     1      -0.560  -3.938  -0.014  0.00  0.00    -0.156 NA
ENDROOT
BRANCH   5  11
ATOM     11  S   UNL     1       1.178   3.832   0.011  0.00  0.00    +0.056 S 
ATOM     12  O   UNL     1       2.418   4.240  -0.549  0.00  0.00    -0.153 OA
ATOM     13  O   UNL     1      -0.072   4.241  -0.526  0.00  0.00    -0.153 OA
BRANCH  11  14
ATOM     14  N   UNL     1       1.193   4.313   1.595  0.00  0.00    -0.204 NA
ATOM     15  H   UNL     1       1.200   3.651   2.304  0.00  0.00    +0.144 HD
ATOM     16  H   UNL     1       1.196   5.258   1.815  0.00  0.00    +0.144 HD
ENDBRANCH  11  14
ENDBRANCH   5  11
BRANCH  10  17
ATOM     17  C   UNL     1      -1.843  -4.282  -0.004  0.00  0.00    +0.238 C 
ATOM     18  O   UNL     1      -2.703  -3.422   0.009  0.00  0.00    -0.274 OA
BRANCH  17  19
ATOM     19  C   UNL     1      -2.233  -5.737  -0.008  0.00  0.00    +0.099 C 
BRANCH  19  20
ATOM     20  C   UNL     1      -3.759  -5.857   0.005  0.00  0.00    +0.032 C 
BRANCH  20  21
ATOM     21  C   UNL     1      -4.155  -7.335   0.001  0.00  0.00    +0.172 C 
BRANCH  21  22
ATOM     22  S   UNL     1      -5.963  -7.476   0.017  0.00  0.00    -0.003 S 
ATOM     23  O   UNL     1      -6.479  -7.017   1.259  0.00  0.00    -0.169 OA
ATOM     24  O   UNL     1      -6.502  -7.004  -1.210  0.00  0.00    -0.169 OA
BRANCH  22  25
ATOM     25  C   UNL     1      -6.282  -9.209   0.011  0.00  0.00    +0.088 A 
ATOM     26  C   UNL     1      -6.423  -9.882  -1.189  0.00  0.00    +0.028 A 
ATOM     27  C   UNL     1      -6.667 -11.242  -1.194  0.00  0.00    +0.022 A 
ATOM     28  C   UNL     1      -6.781 -11.929   0.001  0.00  0.00    +0.041 A 
ATOM     29  C   UNL     1      -6.645 -11.255   1.201  0.00  0.00    +0.022 A 
ATOM     30  C   UNL     1      -6.395  -9.895   1.206  0.00  0.00    +0.028 A 
ATOM     31 CL   UNL     1      -7.095 -13.636  -0.005  0.00  0.00    -0.084 Cl
ENDBRANCH  22  25
ENDBRANCH  21  22
ENDBRANCH  20  21
ENDBRANCH  19  20
ENDBRANCH  17  19
ENDBRANCH  10  17
BRANCH   1  32
ATOM     32  C   UNL     1       2.206  -2.989  -0.035  0.00  0.00    +0.212 C 
BRANCH  32  34
ATOM     33  C   UNL     1       2.889  -3.503  -2.540  0.00  0.00    +0.005 C 
ATOM     34  C   UNL     1       2.586  -3.275  -1.429  0.00  0.00    -0.084 C 
ENDBRANCH  32  34
ENDBRANCH   1  32
TORSDOF 10
