REMARK  Name = ZINC02996544
REMARK  13 active torsions:
REMARK  status: ('A' for Active; 'I' for Inactive)
REMARK    1  A    between atoms: C_1  and  C_2
REMARK    2  A    between atoms: C_2  and  O_3
REMARK    3  A    between atoms: O_3  and  C_4
REMARK    4  A    between atoms: C_4  and  C_6
REMARK    5  A    between atoms: C_7  and  C_29
REMARK    6  A    between atoms: C_8  and  C_24
REMARK    7  A    between atoms: C_10  and  N_11
REMARK    8  A    between atoms: N_11  and  C_12
REMARK    9  A    between atoms: C_12  and  N_14
REMARK   10  A    between atoms: C_15  and  C_17
REMARK   11  A    between atoms: C_24  and  O_26
REMARK   12  A    between atoms: O_26  and  C_27
REMARK   13  A    between atoms: C_27  and  C_28
REMARK                            x       y       z     vdW  Elec       q    Type
REMARK                         _______ _______ _______ _____ _____    ______ ____
ROOT
ATOM      1  C   UNL     1      -1.248  -2.098   0.003  0.00  0.00    +0.091 A 
ATOM      2  C   UNL     1      -1.259  -2.821   1.185  0.00  0.00    -0.014 A 
ATOM      3  C   UNL     1      -1.318  -4.186   1.096  0.00  0.00    +0.102 A 
ATOM      4  S   UNL     1      -1.345  -4.463  -0.665  0.00  0.00    -0.066 S 
ATOM      5  C   UNL     1      -1.287  -2.815  -1.199  0.00  0.00    +0.086 A 
ATOM      6  C   UNL     1      -1.213  -2.129   2.523  0.00  0.00    +0.046 C 
ENDROOT
BRANCH   1   7
ATOM      7  C   UNL     1      -1.191  -0.632   0.010  0.00  0.00    +0.342 C 
ATOM      8  O   UNL     1      -2.220   0.016   0.023  0.00  0.00    -0.245 OA
BRANCH   7   9
ATOM      9  O   UNL     1       0.002  -0.004   0.002  0.00  0.00    -0.461 OA
BRANCH   9  11
ATOM     10  C   UNL     1       1.418   1.977  -0.001  0.00  0.00    +0.048 C 
ATOM     11  C   UNL     1      -0.018   1.448   0.010  0.00  0.00    +0.229 C 
ENDBRANCH   9  11
ENDBRANCH   7   9
ENDBRANCH   1   7
BRANCH   5  12
ATOM     12  N   UNL     1      -1.280  -2.330  -2.490  0.00  0.00    -0.290 N 
ATOM     13  H   UNL     1      -1.244  -1.374  -2.649  0.00  0.00    +0.154 HD
BRANCH  12  14
ATOM     14  C   UNL     1      -1.323  -3.184  -3.532  0.00  0.00    +0.141 C 
ATOM     15  S   UNL     1      -1.386  -4.872  -3.252  0.00  0.00    -0.018 S 
BRANCH  14  16
ATOM     16  N   UNL     1      -1.316  -2.710  -4.793  0.00  0.00    -0.264 N 
ATOM     17  C   UNL     1      -1.359  -3.564  -5.835  0.00  0.00    +0.250 C 
ATOM     18  O   UNL     1      -1.404  -4.763  -5.636  0.00  0.00    -0.270 OA
ATOM     19  H   UNL     1      -1.281  -1.754  -4.952  0.00  0.00    +0.157 HD
BRANCH  17  20
ATOM     20  C   UNL     1      -1.352  -3.045  -7.217  0.00  0.00    +0.037 A 
ATOM     21  C   UNL     1      -1.307  -1.668  -7.449  0.00  0.00    +0.014 A 
ATOM     22  C   UNL     1      -1.294  -1.189  -8.742  0.00  0.00    +0.016 A 
ATOM     23  C   UNL     1      -1.338  -2.070  -9.810  0.00  0.00    +0.018 A 
ATOM     24  C   UNL     1      -1.389  -3.436  -9.587  0.00  0.00    +0.016 A 
ATOM     25  C   UNL     1      -1.396  -3.927  -8.299  0.00  0.00    +0.014 A 
ATOM     26 BR   UNL     1      -1.327  -1.404 -11.580  0.00  0.00    -0.050 Br
ENDBRANCH  17  20
ENDBRANCH  14  16
ENDBRANCH  12  14
ENDBRANCH   5  12
BRANCH   3  27
ATOM     27  C   UNL     1      -1.346  -5.172   2.176  0.00  0.00    +0.346 C 
ATOM     28  O   UNL     1      -1.321  -4.805   3.335  0.00  0.00    -0.244 OA
BRANCH  27  29
ATOM     29  O   UNL     1      -1.399  -6.489   1.886  0.00  0.00    -0.461 OA
BRANCH  29  30
ATOM     30  C   UNL     1      -1.425  -7.395   2.990  0.00  0.00    +0.229 C 
ATOM     31  C   UNL     1      -1.485  -8.832   2.469  0.00  0.00    +0.048 C 
ENDBRANCH  29  30
ENDBRANCH  27  29
ENDBRANCH   3  27
TORSDOF 10
