REMARK  Name = ZINC09581676
REMARK  10 active torsions:
REMARK  status: ('A' for Active; 'I' for Inactive)
REMARK    1  A    between atoms: C_1  and  O_2
REMARK    2  A    between atoms: O_2  and  C_3
REMARK    3  A    between atoms: C_3  and  C_5
REMARK    4  A    between atoms: C_5  and  C_6
REMARK    5  A    between atoms: C_6  and  N_7
REMARK    6  A    between atoms: C_11  and  S_30
REMARK    7  A    between atoms: N_16  and  C_17
REMARK    8  A    between atoms: C_17  and  C_19
REMARK    9  A    between atoms: C_19  and  C_20
REMARK   10  A    between atoms: S_30  and  N_33
REMARK                            x       y       z     vdW  Elec       q    Type
REMARK                         _______ _______ _______ _____ _____    ______ ____
ROOT
ATOM      1  N   UNL     1      -0.754   3.461   1.277  0.00  0.00    -0.321 N 
ATOM      2  C   UNL     1      -1.807   4.140   0.692  0.00  0.00    +0.058 A 
ATOM      3  C   UNL     1      -2.935   3.609   0.048  0.00  0.00    +0.029 A 
ATOM      4  C   UNL     1      -3.895   4.437  -0.484  0.00  0.00    +0.030 A 
ATOM      5  C   UNL     1      -3.782   5.815  -0.401  0.00  0.00    +0.106 A 
ATOM      6  C   UNL     1      -2.679   6.365   0.229  0.00  0.00    +0.045 A 
ATOM      7  C   UNL     1      -1.718   5.538   0.761  0.00  0.00    +0.041 A 
ATOM      8  S   UNL     1      -0.192   5.807   1.626  0.00  0.00    -0.052 S 
ATOM      9  C   UNL     1       0.259   4.150   1.865  0.00  0.00    +0.166 A 
ATOM     10  N   UNL     1       1.340   3.668   2.475  0.00  0.00    -0.156 NA
ENDROOT
BRANCH   5  11
ATOM     11  S   UNL     1      -5.026   6.855  -1.089  0.00  0.00    +0.056 S 
ATOM     12  O   UNL     1      -6.218   6.082  -1.141  0.00  0.00    -0.153 OA
ATOM     13  O   UNL     1      -4.950   8.093  -0.396  0.00  0.00    -0.153 OA
BRANCH  11  14
ATOM     14  N   UNL     1      -4.594   7.163  -2.658  0.00  0.00    -0.204 NA
ATOM     15  H   UNL     1      -5.278   7.322  -3.327  0.00  0.00    +0.144 HD
ATOM     16  H   UNL     1      -3.657   7.184  -2.908  0.00  0.00    +0.144 HD
ENDBRANCH  11  14
ENDBRANCH   5  11
BRANCH  10  17
ATOM     17  C   UNL     1       2.234   4.501   2.997  0.00  0.00    +0.243 C 
ATOM     18  O   UNL     1       2.066   5.702   2.917  0.00  0.00    -0.273 OA
BRANCH  17  19
ATOM     19  C   UNL     1       3.458   3.956   3.688  0.00  0.00    +0.133 C 
BRANCH  19  20
ATOM     20  C   UNL     1       4.304   5.098   4.187  0.00  0.00    -0.031 A 
ATOM     21  C   UNL     1       5.341   5.561   3.435  0.00  0.00    +0.005 A 
ATOM     22  C   UNL     1       6.130   6.620   3.877  0.00  0.00    +0.001 A 
ATOM     23  C   UNL     1       5.896   7.216   5.078  0.00  0.00    +0.008 A 
ATOM     24  C   UNL     1       4.838   6.762   5.884  0.00  0.00    -0.018 A 
ATOM     25  C   UNL     1       4.031   5.689   5.432  0.00  0.00    -0.014 A 
ATOM     26  C   UNL     1       2.974   5.234   6.239  0.00  0.00    +0.009 A 
ATOM     27  C   UNL     1       2.739   5.830   7.440  0.00  0.00    +0.001 A 
ATOM     28  C   UNL     1       3.533   6.885   7.885  0.00  0.00    +0.001 A 
ATOM     29  C   UNL     1       4.566   7.352   7.131  0.00  0.00    +0.008 A 
ENDBRANCH  19  20
ENDBRANCH  17  19
ENDBRANCH  10  17
BRANCH   1  30
ATOM     30  C   UNL     1      -0.735   1.996   1.269  0.00  0.00    +0.135 C 
BRANCH  30  31
ATOM     31  C   UNL     1      -0.018   1.503   0.010  0.00  0.00    +0.142 C 
BRANCH  31  32
ATOM     32  C   UNL     1       0.002  -0.004   0.002  0.00  0.00    +0.309 C 
ATOM     33  O   UNL     1      -0.504  -0.620   0.910  0.00  0.00    -0.251 OA
BRANCH  32  35
ATOM     34  C   UNL     1       0.565  -2.112  -0.956  0.00  0.00    +0.280 C 
ATOM     35  O   UNL     1       0.583  -0.662  -1.014  0.00  0.00    -0.468 OA
ENDBRANCH  32  35
ENDBRANCH  31  32
ENDBRANCH  30  31
ENDBRANCH   1  30
TORSDOF 9
