REMARK  Name = ZINC02163263
REMARK  4 active torsions:
REMARK  status: ('A' for Active; 'I' for Inactive)
REMARK    1  A    between atoms: C_3  and  O_15
REMARK    2  A    between atoms: C_6  and  C_7
REMARK    3  A    between atoms: O_15  and  S_16
REMARK    4  A    between atoms: S_16  and  C_19
REMARK                            x       y       z     vdW  Elec       q    Type
REMARK                         _______ _______ _______ _____ _____    ______ ____
ROOT
ATOM      1  C   UNL     1       1.887   2.960   3.836  0.00  0.00    +0.011 A 
ATOM      2  C   UNL     1       0.970   3.091   2.817  0.00  0.00    +0.049 A 
ATOM      3  C   UNL     1       0.105   2.044   2.519  0.00  0.00    +0.157 A 
ATOM      4  C   UNL     1       0.158   0.863   3.250  0.00  0.00    +0.049 A 
ATOM      5  C   UNL     1       1.074   0.720   4.267  0.00  0.00    +0.011 A 
ATOM      6  C   UNL     1       1.948   1.771   4.572  0.00  0.00    -0.023 A 
ENDROOT
BRANCH   6   7
ATOM      7  C   UNL     1       2.925   1.626   5.659  0.00  0.00    +0.036 C 
ATOM      8  C   UNL     1       3.339   0.391   6.038  0.00  0.00    +0.098 C 
ATOM      9  C   UNL     1       4.180   0.047   7.195  0.00  0.00    +0.266 C 
ATOM     10  O   UNL     1       4.649   0.817   8.012  0.00  0.00    -0.268 OA
ATOM     11  N   UNL     1       4.323  -1.294   7.170  0.00  0.00    -0.235 N 
ATOM     12  C   UNL     1       3.667  -1.802   6.116  0.00  0.00    +0.311 C 
ATOM     13  O   UNL     1       3.624  -2.985   5.837  0.00  0.00    -0.252 OA
ATOM     14  N   UNL     1       3.062  -0.831   5.409  0.00  0.00    -0.265 N 
ATOM     15  H   UNL     1       4.828  -1.813   7.815  0.00  0.00    +0.159 HD
ATOM     16  H   UNL     1       2.530  -0.954   4.607  0.00  0.00    +0.157 HD
ENDBRANCH   6   7
BRANCH   3  17
ATOM     17  O   UNL     1      -0.797   2.178   1.514  0.00  0.00    -0.342 OA
BRANCH  17  18
ATOM     18  S   UNL     1      -0.281   1.729   0.154  0.00  0.00    +0.151 S 
ATOM     19  O   UNL     1       1.075   2.146   0.077  0.00  0.00    -0.131 OA
ATOM     20  O   UNL     1      -1.256   2.126  -0.801  0.00  0.00    -0.131 OA
BRANCH  18  21
ATOM     21  C   UNL     1      -0.267  -0.033   0.158  0.00  0.00    +0.131 A 
ATOM     22  C   UNL     1       0.861  -0.714   0.576  0.00  0.00    +0.050 A 
ATOM     23  C   UNL     1       0.871  -2.097   0.585  0.00  0.00    +0.044 A 
ATOM     24  C   UNL     1      -0.245  -2.799   0.164  0.00  0.00    +0.040 A 
ATOM     25  C   UNL     1      -1.371  -2.117  -0.260  0.00  0.00    +0.044 A 
ATOM     26  C   UNL     1      -1.382  -0.733  -0.263  0.00  0.00    +0.050 A 
ATOM     27 CL   UNL     1      -2.772  -2.997  -0.787  0.00  0.00    -0.083 Cl
ATOM     28 CL   UNL     1       2.285  -2.952   1.116  0.00  0.00    -0.083 Cl
ENDBRANCH  18  21
ENDBRANCH  17  18
ENDBRANCH   3  17
TORSDOF 4
