REMARK  Name = ZINC03528136
REMARK  5 active torsions:
REMARK  status: ('A' for Active; 'I' for Inactive)
REMARK    1  A    between atoms: C_1  and  C_2
REMARK    2  A    between atoms: C_2  and  C_3
REMARK    3  A    between atoms: C_3  and  C_20
REMARK    4  A    between atoms: N_6  and  N_10
REMARK    5  A    between atoms: C_11  and  C_12
REMARK                            x       y       z     vdW  Elec       q    Type
REMARK                         _______ _______ _______ _____ _____    ______ ____
ROOT
ATOM      1  C   UNL     1      -0.753   1.592  -1.231  0.00  0.00    +0.111 C 
ATOM      2  C   UNL     1      -0.136   1.014  -2.489  0.00  0.00    +0.266 C 
ATOM      3  O   UNL     1       1.001   1.164  -2.883  0.00  0.00    -0.271 OA
ATOM      4  N   UNL     1      -1.114   0.298  -3.079  0.00  0.00    -0.109 N 
ATOM      5  C   UNL     1      -2.251   0.344  -2.376  0.00  0.00    +0.330 C 
ATOM      6  O   UNL     1      -3.273  -0.224  -2.707  0.00  0.00    -0.250 OA
ATOM      7  N   UNL     1      -2.137   1.088  -1.261  0.00  0.00    -0.284 N 
ATOM      8  C   UNL     1      -0.732   3.121  -1.275  0.00  0.00    +0.041 C 
ATOM      9  H   UNL     1      -2.830   1.259  -0.605  0.00  0.00    +0.151 HD
ENDROOT
BRANCH   1  11
ATOM     10  C   UNL     1      -0.739   1.578   1.268  0.00  0.00    +0.006 C 
ATOM     11  C   UNL     1      -0.021   1.081   0.012  0.00  0.00    +0.032 C 
ENDBRANCH   1  11
BRANCH   4  12
ATOM     12  N   UNL     1      -0.959  -0.406  -4.280  0.00  0.00    -0.176 NA
ATOM     13  C   UNL     1       0.148  -0.311  -4.950  0.00  0.00    +0.139 C 
BRANCH  13  14
ATOM     14  C   UNL     1       0.272  -0.962  -6.267  0.00  0.00    -0.004 A 
ATOM     15  C   UNL     1       1.463  -0.861  -6.991  0.00  0.00    +0.011 A 
ATOM     16  C   UNL     1       1.572  -1.472  -8.222  0.00  0.00    +0.022 A 
ATOM     17  C   UNL     1       0.505  -2.184  -8.742  0.00  0.00    +0.059 A 
ATOM     18  C   UNL     1      -0.679  -2.289  -8.030  0.00  0.00    +0.060 A 
ATOM     19  C   UNL     1      -0.799  -1.687  -6.794  0.00  0.00    +0.031 A 
ATOM     20 CL   UNL     1      -2.012  -3.184  -8.691  0.00  0.00    -0.082 Cl
ATOM     21 CL   UNL     1       0.651  -2.951 -10.293  0.00  0.00    -0.082 Cl
ENDBRANCH  13  14
ENDBRANCH   4  12
TORSDOF 3
