REMARK  Name = ZINC36523972
REMARK  12 active torsions:
REMARK  status: ('A' for Active; 'I' for Inactive)
REMARK    1  A    between atoms: C_1  and  C_2
REMARK    2  A    between atoms: C_5  and  S_8
REMARK    3  A    between atoms: S_8  and  C_11
REMARK    4  A    between atoms: C_11  and  N_12
REMARK    5  A    between atoms: C_13  and  C_15
REMARK    6  A    between atoms: C_15  and  C_17
REMARK    7  A    between atoms: C_15  and  N_24
REMARK    8  A    between atoms: C_22  and  O_23
REMARK    9  A    between atoms: N_24  and  C_25
REMARK   10  A    between atoms: C_26  and  C_28
REMARK   11  A    between atoms: C_33  and  O_34
REMARK   12  A    between atoms: O_34  and  C_35
REMARK                            x       y       z     vdW  Elec       q    Type
REMARK                         _______ _______ _______ _____ _____    ______ ____
ROOT
ATOM      1  C   UNL     1       3.327  -5.220   3.101  0.00  0.00    +0.196 C 
ENDROOT
BRANCH   1   2
ATOM      2  C   UNL     1       2.213  -4.413   3.717  0.00  0.00    +0.023 A 
ATOM      3  C   UNL     1       0.927  -4.518   3.221  0.00  0.00    +0.009 A 
ATOM      4  C   UNL     1      -0.095  -3.778   3.786  0.00  0.00    +0.001 A 
ATOM      5  C   UNL     1       0.166  -2.932   4.848  0.00  0.00    +0.004 A 
ATOM      6  C   UNL     1       1.449  -2.824   5.347  0.00  0.00    +0.046 A 
ATOM      7  C   UNL     1       2.476  -3.570   4.786  0.00  0.00    +0.122 A 
BRANCH   7   8
ATOM      8  O   UNL     1       3.738  -3.469   5.279  0.00  0.00    -0.506 OA
ATOM      9  H   UNL     1       4.246  -2.731   4.915  0.00  0.00    +0.292 HD
ENDBRANCH   7   8
ENDBRANCH   1   2
BRANCH   1  11
ATOM     10  N   UNL     1       2.979  -4.968   0.665  0.00  0.00    -0.294 N 
ATOM     11  C   UNL     1       2.884  -5.747   1.760  0.00  0.00    +0.239 C 
ATOM     12  O   UNL     1       2.441  -6.872   1.667  0.00  0.00    -0.273 OA
ATOM     13  H   UNL     1       3.260  -4.043   0.750  0.00  0.00    +0.150 HD
BRANCH  10  14
ATOM     14  C   UNL     1       2.658  -5.517  -0.655  0.00  0.00    +0.278 C 
BRANCH  14  15
ATOM     15  S   UNL     1       0.933  -5.136  -1.065  0.00  0.00    +0.013 S 
ATOM     16  O   UNL     1       0.088  -5.444   0.035  0.00  0.00    -0.168 OA
ATOM     17  O   UNL     1       0.624  -5.607  -2.370  0.00  0.00    -0.168 OA
BRANCH  15  22
ATOM     18  C   UNL     1       0.734   0.878  -1.515  0.00  0.00    +0.044 C 
ATOM     19  C   UNL     1       0.784  -0.624  -1.403  0.00  0.00    -0.050 A 
ATOM     20  C   UNL     1       1.067  -1.391  -2.517  0.00  0.00    +0.005 A 
ATOM     21  C   UNL     1       1.113  -2.769  -2.414  0.00  0.00    +0.027 A 
ATOM     22  C   UNL     1       0.876  -3.379  -1.196  0.00  0.00    +0.090 A 
ATOM     23  C   UNL     1       0.593  -2.612  -0.082  0.00  0.00    +0.027 A 
ATOM     24  C   UNL     1       0.552  -1.234  -0.184  0.00  0.00    +0.005 A 
ENDBRANCH  15  22
ENDBRANCH  14  15
ENDBRANCH  10  14
ENDBRANCH   1  11
BRANCH   1  25
ATOM     25  N   UNL     1       3.661  -6.343   3.981  0.00  0.00    -0.285 N 
ATOM     26  C   UNL     1       2.618  -7.284   4.396  0.00  0.00    +0.133 C 
ATOM     27  C   UNL     1       4.929  -6.510   4.408  0.00  0.00    +0.251 C 
ATOM     28  O   UNL     1       5.773  -5.674   4.148  0.00  0.00    -0.270 OA
BRANCH  27  29
ATOM     29  C   UNL     1       5.292  -7.707   5.190  0.00  0.00    +0.078 A 
ATOM     30  C   UNL     1       4.819  -8.965   4.809  0.00  0.00    +0.017 A 
ATOM     31  C   UNL     1       5.162 -10.079   5.543  0.00  0.00    +0.001 A 
ATOM     32  C   UNL     1       5.974  -9.958   6.659  0.00  0.00    +0.004 A 
ATOM     33  C   UNL     1       6.448  -8.720   7.047  0.00  0.00    +0.046 A 
ATOM     34  C   UNL     1       6.117  -7.589   6.316  0.00  0.00    +0.132 A 
BRANCH  34  35
ATOM     35  O   UNL     1       6.585  -6.373   6.694  0.00  0.00    -0.494 OA
ATOM     36  C   UNL     1       7.421  -6.331   7.852  0.00  0.00    +0.277 C 
ENDBRANCH  34  35
ENDBRANCH  27  29
ENDBRANCH   1  25
TORSDOF 9
