REMARK  Name = ZINC39728016
REMARK  6 active torsions:
REMARK  status: ('A' for Active; 'I' for Inactive)
REMARK    1  A    between atoms: C_1  and  C_2
REMARK    2  A    between atoms: N_9  and  O_10
REMARK    3  A    between atoms: O_10  and  C_11
REMARK    4  A    between atoms: C_11  and  C_12
REMARK    5  A    between atoms: N_26  and  C_31
REMARK    6  A    between atoms: N_29  and  C_30
REMARK                            x       y       z     vdW  Elec       q    Type
REMARK                         _______ _______ _______ _____ _____    ______ ____
ROOT
ATOM      1  C   UNL     1       0.020   1.515   0.003  0.00  0.00    +0.047 C 
ATOM      2  C   UNL     1       0.043   0.008  -0.008  0.00  0.00    -0.007 C 
ATOM      3  C   UNL     1      -0.054  -0.655  -1.176  0.00  0.00    +0.117 C 
ATOM      4  N   UNL     1      -0.104  -1.988  -1.293  0.00  0.00    -0.243 NA
ATOM      5  C   UNL     1      -0.025  -2.791  -0.277  0.00  0.00    +0.123 C 
ATOM      6  C   UNL     1       0.266  -2.214   1.097  0.00  0.00    +0.191 C 
ATOM      7  C   UNL     1       0.175  -0.708   1.218  0.00  0.00    +0.103 C 
ATOM      8  N   UNL     1       0.212  -0.105   2.369  0.00  0.00    -0.088 NA
ATOM      9  C   UNL     1      -0.736  -2.845   2.026  0.00  0.00    +0.239 C 
ATOM     10  O   UNL     1      -1.146  -2.235   2.990  0.00  0.00    -0.274 OA
ATOM     11  N   UNL     1      -1.171  -4.096   1.774  0.00  0.00    -0.228 N 
ATOM     12  C   UNL     1      -0.825  -4.766   0.662  0.00  0.00    +0.316 C 
ATOM     13  O   UNL     1      -1.063  -5.955   0.585  0.00  0.00    -0.252 OA
ATOM     14  N   UNL     1      -0.216  -4.144  -0.372  0.00  0.00    -0.245 N 
ATOM     15  C   UNL     1       0.224  -4.890  -1.554  0.00  0.00    +0.141 C 
ATOM     16  C   UNL     1      -2.052  -4.747   2.747  0.00  0.00    +0.143 C 
ENDROOT
BRANCH   8  17
ATOM     17  O   UNL     1      -0.005   1.292   2.444  0.00  0.00    -0.384 OA
BRANCH  17  18
ATOM     18  C   UNL     1       0.064   1.821   3.769  0.00  0.00    +0.358 C 
BRANCH  18  19
ATOM     19  C   UNL     1      -0.181   3.308   3.731  0.00  0.00    +0.260 C 
ATOM     20  O   UNL     1      -0.485   3.845   2.687  0.00  0.00    -0.271 OA
ATOM     21  N   UNL     1      -0.061   4.040   4.856  0.00  0.00    -0.268 N 
ATOM     22  C   UNL     1       0.181   3.387   6.150  0.00  0.00    +0.114 C 
ATOM     23  C   UNL     1      -0.749   4.037   7.183  0.00  0.00    +0.024 C 
ATOM     24  C   UNL     1      -0.375   5.512   7.326  0.00  0.00    +0.038 C 
ATOM     25  C   UNL     1      -0.320   6.175   5.975  0.00  0.00    -0.026 A 
ATOM     26  C   UNL     1      -0.161   5.438   4.810  0.00  0.00    +0.040 A 
ATOM     27  C   UNL     1      -0.104   6.081   3.580  0.00  0.00    +0.024 A 
ATOM     28  C   UNL     1      -0.203   7.456   3.513  0.00  0.00    +0.002 A 
ATOM     29  C   UNL     1      -0.359   8.193   4.673  0.00  0.00    +0.000 A 
ATOM     30  C   UNL     1      -0.426   7.554   5.900  0.00  0.00    +0.005 A 
ENDBRANCH  18  19
ENDBRANCH  17  18
ENDBRANCH   8  17
TORSDOF 3
