REMARK  Name = ZINC22413153
REMARK  4 active torsions:
REMARK  status: ('A' for Active; 'I' for Inactive)
REMARK    1  A    between atoms: C_1  and  C_2
REMARK    2  A    between atoms: C_7  and  N_8
REMARK    3  A    between atoms: N_20  and  C_23
REMARK    4  A    between atoms: C_23  and  C_24
REMARK                            x       y       z     vdW  Elec       q    Type
REMARK                         _______ _______ _______ _____ _____    ______ ____
ROOT
ATOM      1  N   UNL     1      -3.949  -0.348  -1.178  0.00  0.00    -0.226 N 
ATOM      2  C   UNL     1      -4.487  -0.831  -0.041  0.00  0.00    +0.304 A 
ATOM      3  O   UNL     1      -5.401  -1.634  -0.086  0.00  0.00    -0.263 OA
ATOM      4  C   UNL     1      -3.979  -0.396   1.209  0.00  0.00    +0.217 A 
ATOM      5  C   UNL     1      -2.942   0.516   1.215  0.00  0.00    +0.105 A 
ATOM      6  C   UNL     1      -2.635   0.773   2.623  0.00  0.00    +0.045 A 
ATOM      7  C   UNL     1      -1.710   1.581   3.286  0.00  0.00    +0.014 A 
ATOM      8  C   UNL     1      -1.678   1.596   4.652  0.00  0.00    +0.001 A 
ATOM      9  C   UNL     1      -2.560   0.814   5.384  0.00  0.00    +0.004 A 
ATOM     10  C   UNL     1      -3.481   0.010   4.748  0.00  0.00    +0.047 A 
ATOM     11  C   UNL     1      -3.532  -0.022   3.359  0.00  0.00    +0.138 A 
ATOM     12  O   UNL     1      -4.308  -0.696   2.485  0.00  0.00    -0.448 OA
ATOM     13  N   UNL     1      -2.430   0.977   0.019  0.00  0.00    -0.281 N 
ATOM     14  C   UNL     1      -2.944   0.544  -1.148  0.00  0.00    +0.338 A 
ATOM     15  O   UNL     1      -2.487   0.963  -2.194  0.00  0.00    -0.246 OA
ENDROOT
BRANCH   1  22
ATOM     16  C   UNL     1      -2.776  -2.645  -2.382  0.00  0.00    +0.046 C 
ATOM     17  C   UNL     1      -3.908  -1.895  -3.035  0.00  0.00    -0.026 A 
ATOM     18  C   UNL     1      -4.406  -2.317  -4.253  0.00  0.00    +0.005 A 
ATOM     19  C   UNL     1      -5.445  -1.629  -4.852  0.00  0.00    +0.000 A 
ATOM     20  C   UNL     1      -5.988  -0.516  -4.236  0.00  0.00    +0.002 A 
ATOM     21  C   UNL     1      -5.498  -0.092  -3.016  0.00  0.00    +0.027 A 
ATOM     22  C   UNL     1      -4.452  -0.778  -2.414  0.00  0.00    +0.057 A 
ENDBRANCH   1  22
BRANCH  13  23
ATOM     23  C   UNL     1      -1.330   1.944   0.019  0.00  0.00    +0.222 C 
BRANCH  23  24
ATOM     24  C   UNL     1      -0.014   1.209   0.009  0.00  0.00    +0.230 C 
ATOM     25  O   UNL     1       0.002  -0.004   0.002  0.00  0.00    -0.274 OA
ATOM     26  N   UNL     1       1.143   1.898   0.001  0.00  0.00    -0.328 N 
ATOM     27  H   UNL     1       2.103   1.361  -0.006  0.00  0.00    +0.145 HD
ATOM     28  H   UNL     1       1.129   2.998   0.003  0.00  0.00    +0.145 HD
ENDBRANCH  23  24
ENDBRANCH  13  23
TORSDOF 3
