REMARK  Name = ZINC57594805
REMARK  9 active torsions:
REMARK  status: ('A' for Active; 'I' for Inactive)
REMARK    1  A    between atoms: C_1  and  C_2
REMARK    2  A    between atoms: C_2  and  O_3
REMARK    3  A    between atoms: O_3  and  C_4
REMARK    4  A    between atoms: C_11  and  C_16
REMARK    5  A    between atoms: C_16  and  C_18
REMARK    6  A    between atoms: C_16  and  N_30
REMARK    7  A    between atoms: N_22  and  C_23
REMARK    8  A    between atoms: C_23  and  C_24
REMARK    9  A    between atoms: C_33  and  C_36
REMARK                            x       y       z     vdW  Elec       q    Type
REMARK                         _______ _______ _______ _____ _____    ______ ____
ROOT
ATOM      1  C   UNL     1      -5.707  -6.401   0.007  0.00  0.00    +0.163 C 
ENDROOT
BRANCH   1   9
ATOM      2  C   UNL     1      -1.746  -1.929   1.662  0.00  0.00    +0.121 A 
ATOM      3  C   UNL     1      -0.608  -2.732   1.671  0.00  0.00    +0.047 A 
ATOM      4  C   UNL     1      -0.692  -4.071   1.357  0.00  0.00    +0.030 A 
ATOM      5  C   UNL     1      -1.921  -4.632   1.028  0.00  0.00    +0.049 A 
ATOM      6  C   UNL     1      -3.073  -3.823   1.018  0.00  0.00    +0.002 A 
ATOM      7  C   UNL     1      -2.976  -2.466   1.343  0.00  0.00    +0.055 A 
ATOM      8  C   UNL     1      -4.361  -4.427   0.670  0.00  0.00    +0.021 A 
ATOM      9  C   UNL     1      -4.397  -5.749   0.369  0.00  0.00    +0.042 A 
ATOM     10  C   UNL     1      -3.213  -6.516   0.394  0.00  0.00    +0.254 A 
ATOM     11  O   UNL     1      -3.268  -7.702   0.119  0.00  0.00    -0.268 OA
ATOM     12  N   UNL     1      -2.026  -5.971   0.712  0.00  0.00    -0.322 N 
ATOM     13  H   UNL     1      -1.231  -6.527   0.719  0.00  0.00    +0.169 HD
BRANCH   2  14
ATOM     14  O   UNL     1      -1.644  -0.609   1.974  0.00  0.00    -0.492 OA
BRANCH  14  16
ATOM     15  C   UNL     1      -0.426   1.377   2.615  0.00  0.00    +0.048 C 
ATOM     16  C   UNL     1      -0.342  -0.116   2.294  0.00  0.00    +0.225 C 
ENDBRANCH  14  16
ENDBRANCH   2  14
ENDBRANCH   1   9
BRANCH   1  17
ATOM     17  N   UNL     1      -5.571  -7.089  -1.284  0.00  0.00    -0.285 NA
ATOM     18  C   UNL     1      -5.232  -6.138  -2.356  0.00  0.00    +0.090 C 
ATOM     19  C   UNL     1      -4.794  -6.932  -3.589  0.00  0.00    +0.051 C 
ATOM     20  C   UNL     1      -5.799  -8.011  -3.881  0.00  0.00    -0.042 C 
ATOM     21  C   UNL     1      -6.691  -8.408  -3.000  0.00  0.00    -0.007 C 
ATOM     22  C   UNL     1      -6.798  -7.820  -1.622  0.00  0.00    +0.113 C 
BRANCH  20  23
ATOM     23  C   UNL     1      -5.784  -8.652  -5.213  0.00  0.00    -0.022 A 
ATOM     24  C   UNL     1      -4.687  -9.418  -5.609  0.00  0.00    +0.011 A 
ATOM     25  C   UNL     1      -4.679 -10.014  -6.853  0.00  0.00    +0.039 A 
ATOM     26  C   UNL     1      -5.757  -9.854  -7.708  0.00  0.00    +0.123 A 
ATOM     27  C   UNL     1      -6.849  -9.094  -7.319  0.00  0.00    +0.039 A 
ATOM     28  C   UNL     1      -6.870  -8.499  -6.075  0.00  0.00    +0.011 A 
ATOM     29  F   UNL     1      -5.744 -10.440  -8.925  0.00  0.00    -0.205 F 
ENDBRANCH  20  23
ENDBRANCH   1  17
BRANCH   1  30
ATOM     30  C   UNL     1      -6.082  -7.399   1.072  0.00  0.00    +0.173 A 
ATOM     31  N   UNL     1      -5.623  -8.620   1.196  0.00  0.00    -0.111 NA
ATOM     32  N   UNL     1      -6.183  -9.153   2.226  0.00  0.00    -0.023 NA
ATOM     33  N   UNL     1      -6.987  -8.303   2.763  0.00  0.00    -0.044 NA
ATOM     34  N   UNL     1      -6.949  -7.207   2.083  0.00  0.00    -0.225 N 
BRANCH  34  35
ATOM     35  C   UNL     1      -7.708  -5.985   2.359  0.00  0.00    +0.179 C 
BRANCH  35  36
ATOM     36  C   UNL     1      -9.049  -6.042   1.624  0.00  0.00    +0.140 C 
ATOM     37  C   UNL     1      -9.907  -4.800   1.973  0.00  0.00    +0.035 C 
ATOM     38  C   UNL     1     -10.826  -4.715   0.724  0.00  0.00    +0.031 C 
ATOM     39  C   UNL     1      -9.892  -5.204  -0.403  0.00  0.00    +0.160 C 
ATOM     40  O   UNL     1      -8.843  -5.970   0.204  0.00  0.00    -0.375 OA
ENDBRANCH  35  36
ENDBRANCH  34  35
ENDBRANCH   1  30
TORSDOF 8
