REMARK  Name = ZINC36066462
REMARK  12 active torsions:
REMARK  status: ('A' for Active; 'I' for Inactive)
REMARK    1  A    between atoms: C_1  and  C_2
REMARK    2  A    between atoms: C_2  and  C_3
REMARK    3  A    between atoms: C_3  and  C_4
REMARK    4  A    between atoms: C_4  and  N_5
REMARK    5  A    between atoms: C_6  and  C_32
REMARK    6  A    between atoms: C_14  and  C_20
REMARK    7  A    between atoms: N_22  and  C_23
REMARK    8  A    between atoms: C_26  and  O_29
REMARK    9  A    between atoms: O_29  and  C_30
REMARK   10  A    between atoms: C_30  and  C_31
REMARK   11  A    between atoms: N_34  and  C_35
REMARK   12  A    between atoms: C_41  and  C_43
REMARK                            x       y       z     vdW  Elec       q    Type
REMARK                         _______ _______ _______ _____ _____    ______ ____
ROOT
ATOM      1  N   UNL     1      -2.648  -3.114   0.413  0.00  0.00    -0.287 N 
ATOM      2  C   UNL     1      -3.566  -3.377   1.566  0.00  0.00    +0.198 C 
ATOM      3  C   UNL     1      -4.620  -4.231   0.932  0.00  0.00    +0.127 C 
ATOM      4  C   UNL     1      -4.126  -5.628   0.601  0.00  0.00    +0.009 C 
ATOM      5  C   UNL     1      -5.161  -6.256   0.062  0.00  0.00    +0.004 C 
ATOM      6  C   UNL     1      -6.279  -5.207   0.009  0.00  0.00    +0.155 C 
ATOM      7  O   UNL     1      -5.985  -4.407   1.229  0.00  0.00    -0.358 OA
ATOM      8  C   UNL     1      -5.793  -4.262  -1.157  0.00  0.00    +0.123 C 
ATOM      9  C   UNL     1      -4.761  -3.413  -0.414  0.00  0.00    +0.128 C 
ATOM     10  C   UNL     1      -3.342  -3.234  -0.766  0.00  0.00    +0.223 C 
ATOM     11  O   UNL     1      -2.874  -3.201  -1.885  0.00  0.00    -0.275 OA
ENDROOT
BRANCH   8  12
ATOM     12  C   UNL     1      -5.164  -5.058  -2.272  0.00  0.00    +0.224 C 
ATOM     13  O   UNL     1      -4.002  -4.875  -2.568  0.00  0.00    -0.275 OA
ATOM     14  N   UNL     1      -5.894  -5.973  -2.941  0.00  0.00    -0.285 N 
ATOM     15  H   UNL     1      -6.799  -6.174  -2.656  0.00  0.00    +0.155 HD
BRANCH  14  16
ATOM     16  C   UNL     1      -5.345  -6.633  -4.048  0.00  0.00    +0.034 A 
ATOM     17  C   UNL     1      -5.702  -7.947  -4.320  0.00  0.00    +0.027 A 
ATOM     18  C   UNL     1      -5.160  -8.597  -5.412  0.00  0.00    +0.047 A 
ATOM     19  C   UNL     1      -4.260  -7.938  -6.236  0.00  0.00    +0.121 A 
ATOM     20  C   UNL     1      -3.902  -6.626  -5.964  0.00  0.00    +0.047 A 
ATOM     21  C   UNL     1      -4.448  -5.972  -4.877  0.00  0.00    +0.027 A 
BRANCH  19  22
ATOM     22  O   UNL     1      -3.727  -8.579  -7.310  0.00  0.00    -0.492 OA
BRANCH  22  23
ATOM     23  C   UNL     1      -2.807  -7.840  -8.116  0.00  0.00    +0.225 C 
ATOM     24  C   UNL     1      -2.317  -8.720  -9.268  0.00  0.00    +0.048 C 
ENDBRANCH  22  23
ENDBRANCH  19  22
ENDBRANCH  14  16
ENDBRANCH   8  12
BRANCH   2  25
ATOM     25  C   UNL     1      -2.853  -4.126   2.662  0.00  0.00    +0.237 C 
ATOM     26  O   UNL     1      -1.822  -4.718   2.421  0.00  0.00    -0.274 OA
ATOM     27  N   UNL     1      -3.360  -4.137   3.911  0.00  0.00    -0.311 N 
ATOM     28  H   UNL     1      -4.184  -3.663   4.104  0.00  0.00    +0.149 HD
BRANCH  27  29
ATOM     29  C   UNL     1      -2.666  -4.865   4.976  0.00  0.00    +0.076 C 
ATOM     30  C   UNL     1      -3.090  -6.335   4.949  0.00  0.00    +0.022 C 
ATOM     31  C   UNL     1      -4.601  -6.434   5.164  0.00  0.00    +0.002 C 
ATOM     32  C   UNL     1      -4.965  -5.824   6.519  0.00  0.00    +0.000 C 
ATOM     33  C   UNL     1      -4.542  -4.354   6.546  0.00  0.00    +0.005 C 
ATOM     34  C   UNL     1      -3.030  -4.254   6.331  0.00  0.00    +0.006 C 
ATOM     35  C   UNL     1      -2.607  -2.784   6.359  0.00  0.00    +0.009 C 
ENDBRANCH  27  29
ENDBRANCH   2  25
BRANCH   1  36
ATOM     36  C   UNL     1      -1.228  -2.772   0.527  0.00  0.00    +0.108 C 
BRANCH  36  37
ATOM     37  C   UNL     1      -1.074  -1.253   0.623  0.00  0.00    +0.019 C 
BRANCH  37  39
ATOM     38  C   UNL     1       0.563   0.622   0.837  0.00  0.00    +0.004 C 
ATOM     39  C   UNL     1       0.409  -0.897   0.741  0.00  0.00    -0.002 C 
ENDBRANCH  37  39
ENDBRANCH  36  37
ENDBRANCH   1  36
TORSDOF 9
