REMARK  Name = ZINC26802929
REMARK  12 active torsions:
REMARK  status: ('A' for Active; 'I' for Inactive)
REMARK    1  A    between atoms: C_1  and  C_2
REMARK    2  A    between atoms: C_2  and  C_3
REMARK    3  A    between atoms: C_2  and  C_4
REMARK    4  A    between atoms: N_14  and  C_25
REMARK    5  A    between atoms: C_15  and  S_17
REMARK    6  A    between atoms: S_17  and  C_18
REMARK    7  A    between atoms: C_18  and  C_19
REMARK    8  A    between atoms: N_21  and  C_22
REMARK    9  A    between atoms: C_22  and  P_23
REMARK   10  A    between atoms: C_22  and  P_24
REMARK   11  A    between atoms: C_25  and  C_26
REMARK   12  A    between atoms: C_26  and  C_27
REMARK                            x       y       z     vdW  Elec       q    Type
REMARK                         _______ _______ _______ _____ _____    ______ ____
ROOT
ATOM      1  C   UNL     1       5.924  -1.489  -0.498  0.00  0.00    +0.126 C 
ATOM      2  C   UNL     1       5.003  -0.353  -0.045  0.00  0.00    +0.068 C 
ATOM      3  C   UNL     1       3.570  -0.881  -0.034  0.00  0.00    -0.018 A 
ATOM      4  C   UNL     1       3.351  -2.214  -0.039  0.00  0.00    +0.021 A 
ATOM      5  S   UNL     1       1.590  -2.389  -0.025  0.00  0.00    -0.071 S 
ATOM      6  C   UNL     1       1.151  -0.669  -0.012  0.00  0.00    +0.117 A 
ATOM      7  C   UNL     1       2.395  -0.013  -0.020  0.00  0.00    +0.076 A 
ATOM      8  C   UNL     1       2.344   1.417  -0.012  0.00  0.00    +0.263 A 
ATOM      9  O   UNL     1       3.372   2.071  -0.019  0.00  0.00    -0.267 OA
ATOM     10  N   UNL     1       1.146   2.030   0.002  0.00  0.00    -0.287 N 
ATOM     11  C   UNL     1      -0.016   1.313   0.009  0.00  0.00    +0.173 A 
ATOM     12  N   UNL     1       0.002  -0.004   0.002  0.00  0.00    -0.216 NA
ATOM     13  C   UNL     1       4.399  -3.284  -0.052  0.00  0.00    +0.203 C 
ATOM     14  O   UNL     1       5.659  -2.671   0.262  0.00  0.00    -0.371 OA
ENDROOT
BRANCH   1  16
ATOM     15  C   UNL     1       8.305  -2.199  -0.764  0.00  0.00    +0.010 C 
ATOM     16  C   UNL     1       7.382  -1.072  -0.296  0.00  0.00    +0.012 C 
ATOM     17  C   UNL     1       7.668   0.192  -1.109  0.00  0.00    +0.010 C 
ENDBRANCH   1  16
BRANCH  11  18
ATOM     18  S   UNL     1      -1.560   2.162   0.021  0.00  0.00    -0.078 S 
BRANCH  18  19
ATOM     19  C   UNL     1      -2.694   0.751   0.019  0.00  0.00    +0.173 C 
BRANCH  19  20
ATOM     20  C   UNL     1      -4.116   1.250   0.028  0.00  0.00    +0.224 C 
ATOM     21  O   UNL     1      -4.341   2.441   0.036  0.00  0.00    -0.275 OA
ATOM     22  N   UNL     1      -5.138   0.371   0.028  0.00  0.00    -0.305 N 
ATOM     23  H   UNL     1      -4.934  -0.710   0.021  0.00  0.00    +0.150 HD
BRANCH  22  24
ATOM     24  C   UNL     1      -6.521   0.856   0.037  0.00  0.00    +0.110 C 
BRANCH  24  25
ATOM     25  P   UNL     1      -6.955   1.486  -1.617  0.00  0.00    -0.111 P 
ATOM     26  H   UNL     1      -7.993   1.849  -1.611  0.00  0.00    +0.056 HD
ATOM     27  H   UNL     1      -6.279   2.311  -1.885  0.00  0.00    +0.056 HD
ENDBRANCH  24  25
BRANCH  24  28
ATOM     28  P   UNL     1      -7.641  -0.512   0.480  0.00  0.00    -0.111 P 
ATOM     29  H   UNL     1      -8.679  -0.149   0.487  0.00  0.00    +0.056 HD
ATOM     30  H   UNL     1      -7.541  -1.322  -0.258  0.00  0.00    +0.056 HD
ENDBRANCH  24  28
ENDBRANCH  22  24
ENDBRANCH  19  20
ENDBRANCH  18  19
ENDBRANCH  11  18
BRANCH  10  31
ATOM     31  C   UNL     1       1.088   3.494   0.010  0.00  0.00    +0.132 C 
BRANCH  31  32
ATOM     32  C   UNL     1       1.081   3.996   1.455  0.00  0.00    +0.057 C 
BRANCH  32  33
ATOM     33  C   UNL     1       1.021   5.501   1.464  0.00  0.00    -0.046 A 
ATOM     34  C   UNL     1       2.190   6.240   1.462  0.00  0.00    +0.004 A 
ATOM     35  C   UNL     1       2.135   7.621   1.466  0.00  0.00    +0.000 A 
ATOM     36  C   UNL     1       0.911   8.264   1.480  0.00  0.00    +0.000 A 
ATOM     37  C   UNL     1      -0.257   7.526   1.486  0.00  0.00    +0.000 A 
ATOM     38  C   UNL     1      -0.202   6.144   1.479  0.00  0.00    +0.004 A 
ENDBRANCH  32  33
ENDBRANCH  31  32
ENDBRANCH  10  31
TORSDOF 10
