REMARK  Name = ZINC51095276
REMARK  6 active torsions:
REMARK  status: ('A' for Active; 'I' for Inactive)
REMARK    1  A    between atoms: C_1  and  C_2
REMARK    2  A    between atoms: C_2  and  C_4
REMARK    3  A    between atoms: C_2  and  N_10
REMARK    4  A    between atoms: C_11  and  C_13
REMARK    5  A    between atoms: C_16  and  N_19
REMARK    6  A    between atoms: N_19  and  N_20
REMARK                            x       y       z     vdW  Elec       q    Type
REMARK                         _______ _______ _______ _____ _____    ______ ____
ROOT
ATOM      1  N   UNL     1       0.711  -0.489   1.189  0.00  0.00    -0.304 N 
ATOM      2  C   UNL     1       0.051  -0.633   2.355  0.00  0.00    +0.245 C 
ATOM      3  O   UNL     1      -1.132  -0.361   2.423  0.00  0.00    -0.270 OA
ATOM      4  H   UNL     1       1.654  -0.707   1.135  0.00  0.00    +0.150 HD
ENDROOT
BRANCH   2   5
ATOM      5  C   UNL     1       0.765  -1.122   3.551  0.00  0.00    +0.037 A 
ATOM      6  C   UNL     1       2.126  -1.431   3.476  0.00  0.00    +0.015 A 
ATOM      7  C   UNL     1       2.789  -1.886   4.593  0.00  0.00    +0.025 A 
ATOM      8  C   UNL     1       2.105  -2.040   5.796  0.00  0.00    +0.041 A 
ATOM      9  C   UNL     1       0.749  -1.734   5.873  0.00  0.00    +0.025 A 
ATOM     10  C   UNL     1       0.082  -1.272   4.761  0.00  0.00    +0.015 A 
BRANCH   8  11
ATOM     11  N   UNL     1       2.778  -2.500   6.922  0.00  0.00    -0.283 N 
ATOM     12  H   UNL     1       3.722  -2.714   6.870  0.00  0.00    +0.166 HD
BRANCH  11  13
ATOM     13  N   UNL     1       2.108  -2.652   8.103  0.00  0.00    -0.257 NA
ATOM     14  H   UNL     1       2.723  -2.992   8.827  0.00  0.00    +0.140 HD
ATOM     15  H   UNL     1       1.665  -1.789   8.381  0.00  0.00    +0.140 HD
ENDBRANCH  11  13
ENDBRANCH   8  11
ENDBRANCH   2   5
BRANCH   1  17
ATOM     16  C   UNL     1      -0.019   1.526   0.010  0.00  0.00    +0.033 C 
ATOM     17  C   UNL     1       0.002  -0.004   0.002  0.00  0.00    +0.107 C 
BRANCH  17  18
ATOM     18  C   UNL     1       0.707  -0.490  -1.238  0.00  0.00    +0.011 A 
ATOM     19  C   UNL     1       0.176  -0.943  -2.400  0.00  0.00    +0.014 A 
ATOM     20  C   UNL     1       1.026  -1.341  -3.415  0.00  0.00    +0.028 A 
ATOM     21  C   UNL     1       2.366  -1.267  -3.218  0.00  0.00    +0.078 A 
ATOM     22  S   UNL     1       2.459  -0.612  -1.560  0.00  0.00    -0.080 S 
ATOM     23 CL   UNL     1       3.656  -1.693  -4.299  0.00  0.00    -0.076 Cl
ENDBRANCH  17  18
ENDBRANCH   1  17
TORSDOF 5
