REMARK  Name = ZINC12440968
REMARK  5 active torsions:
REMARK  status: ('A' for Active; 'I' for Inactive)
REMARK    1  A    between atoms: C_10  and  C_11
REMARK    2  A    between atoms: C_10  and  N_55
REMARK    3  A    between atoms: N_15  and  C_16
REMARK    4  A    between atoms: C_16  and  C_17
REMARK    5  A    between atoms: C_23  and  C_25
REMARK                            x       y       z     vdW  Elec       q    Type
REMARK                         _______ _______ _______ _____ _____    ______ ____
ROOT
ATOM      1  C   UNL     1       1.310  -1.234  -0.372  0.00  0.00    +0.136 A 
ATOM      2  N   UNL     1       2.425  -0.571  -0.558  0.00  0.00    -0.115 NA
ATOM      3  N   UNL     1       2.145   0.686  -0.557  0.00  0.00    -0.023 NA
ATOM      4  N   UNL     1       0.880   0.843  -0.374  0.00  0.00    -0.044 NA
ATOM      5  N   UNL     1       0.330  -0.318  -0.256  0.00  0.00    -0.222 N 
ENDROOT
BRANCH   1   6
ATOM      6  C   UNL     1       1.154  -2.732  -0.302  0.00  0.00    +0.001 C 
BRANCH   6  16
ATOM      7  C   UNL     1       2.286  -5.119  -6.161  0.00  0.00    +0.000 A 
ATOM      8  C   UNL     1       3.348  -4.313  -5.796  0.00  0.00    +0.000 A 
ATOM      9  C   UNL     1       3.370  -3.729  -4.546  0.00  0.00    +0.002 A 
ATOM     10  C   UNL     1       2.331  -3.946  -3.652  0.00  0.00    -0.061 A 
ATOM     11  C   UNL     1       1.271  -4.747  -4.018  0.00  0.00    -0.048 A 
ATOM     12  C   UNL     1       1.251  -5.335  -5.274  0.00  0.00    +0.004 A 
ATOM     13  C   UNL     1       0.116  -5.007  -3.085  0.00  0.00    +0.017 C 
ATOM     14  C   UNL     1       0.509  -4.637  -1.654  0.00  0.00    -0.073 C 
ATOM     15  C   UNL     1       2.401  -3.290  -2.298  0.00  0.00    -0.042 C 
ATOM     16  N   UNL     1       1.066  -3.268  -1.678  0.00  0.00    +0.387 N 
ATOM     17  H   UNL     1       0.448  -2.664  -2.233  0.00  0.00    -0.081 HD
ENDBRANCH   6  16
ENDBRANCH   1   6
BRANCH   5  18
ATOM     18  C   UNL     1      -1.093  -0.589  -0.037  0.00  0.00    +0.243 C 
BRANCH  18  19
ATOM     19  C   UNL     1      -1.823  -0.536  -1.354  0.00  0.00    +0.238 C 
ATOM     20  O   UNL     1      -1.199  -0.444  -2.390  0.00  0.00    -0.274 OA
ATOM     21  N   UNL     1      -3.169  -0.591  -1.381  0.00  0.00    -0.291 N 
ATOM     22  C   UNL     1      -4.053  -0.592  -0.201  0.00  0.00    +0.108 C 
ATOM     23  C   UNL     1      -5.407  -0.048  -0.719  0.00  0.00    +0.021 C 
ATOM     24  C   UNL     1      -5.474  -0.677  -2.136  0.00  0.00    +0.030 C 
ATOM     25  C   UNL     1      -4.000  -0.653  -2.592  0.00  0.00    +0.125 C 
BRANCH  25  26
ATOM     26  C   UNL     1      -3.686  -1.908  -3.366  0.00  0.00    +0.062 A 
ATOM     27  C   UNL     1      -3.913  -1.945  -4.729  0.00  0.00    +0.025 A 
ATOM     28  C   UNL     1      -3.615  -3.102  -5.432  0.00  0.00    +0.003 A 
ATOM     29  C   UNL     1      -3.108  -4.187  -4.733  0.00  0.00    +0.020 A 
ATOM     30  C   UNL     1      -2.913  -4.078  -3.369  0.00  0.00    +0.111 A 
ATOM     31  N   UNL     1      -3.203  -2.959  -2.734  0.00  0.00    -0.258 NA
ENDBRANCH  25  26
ENDBRANCH  18  19
ENDBRANCH   5  18
TORSDOF 5
