REMARK  Name = ZINC35694277
REMARK  4 active torsions:
REMARK  status: ('A' for Active; 'I' for Inactive)
REMARK    1  A    between atoms: C_1  and  C_2
REMARK    2  A    between atoms: C_2  and  C_4
REMARK    3  A    between atoms: C_2  and  N_10
REMARK    4  A    between atoms: C_12  and  N_18
REMARK                            x       y       z     vdW  Elec       q    Type
REMARK                         _______ _______ _______ _____ _____    ______ ____
ROOT
ATOM      1  N   UNL     1      -1.277  -1.002   0.058  0.00  0.00    -0.321 N 
ATOM      2  C   UNL     1      -2.002  -0.905   1.240  0.00  0.00    +0.151 A 
ATOM      3  C   UNL     1      -3.385  -1.047   1.214  0.00  0.00    +0.166 A 
ATOM      4  C   UNL     1      -4.095  -0.948   2.398  0.00  0.00    +0.039 A 
ATOM      5  C   UNL     1      -3.394  -0.708   3.572  0.00  0.00    +0.042 A 
ATOM      6  C   UNL     1      -2.019  -0.577   3.525  0.00  0.00    +0.131 A 
ATOM      7  N   UNL     1      -1.368  -0.682   2.381  0.00  0.00    -0.218 NA
ATOM      8 CL   UNL     1      -1.137  -0.278   4.990  0.00  0.00    -0.062 Cl
ATOM      9  H   UNL     1      -1.725  -1.248  -0.767  0.00  0.00    +0.148 HD
ENDROOT
BRANCH   3  10
ATOM     10  N   UNL     1      -4.089  -1.301  -0.063  0.00  0.00    +0.060 N 
ATOM     11  O   UNL     1      -3.708  -0.770  -1.080  0.00  0.00    -0.126 OA
ATOM     12  O   UNL     1      -5.045  -2.040  -0.089  0.00  0.00    -0.126 OA
ENDBRANCH   3  10
BRANCH   1  14
ATOM     13  C   UNL     1       0.401   0.770  -0.093  0.00  0.00    +0.033 C 
ATOM     14  C   UNL     1       0.163  -0.734   0.057  0.00  0.00    +0.099 C 
BRANCH  14  15
ATOM     15  C   UNL     1       0.809  -1.462  -1.093  0.00  0.00    -0.025 A 
ATOM     16  C   UNL     1       0.189  -1.524  -2.332  0.00  0.00    +0.025 A 
ATOM     17  C   UNL     1       0.812  -2.201  -3.364  0.00  0.00    +0.111 A 
ATOM     18  N   UNL     1       1.981  -2.783  -3.180  0.00  0.00    -0.263 NA
ATOM     19  C   UNL     1       2.599  -2.744  -2.016  0.00  0.00    +0.111 A 
ATOM     20  C   UNL     1       2.041  -2.080  -0.940  0.00  0.00    +0.025 A 
ENDBRANCH  14  15
ENDBRANCH   1  14
TORSDOF 3
