REMARK  Name = ZINC49487540
REMARK  8 active torsions:
REMARK  status: ('A' for Active; 'I' for Inactive)
REMARK    1  A    between atoms: C_5  and  N_7
REMARK    2  A    between atoms: N_10  and  C_13
REMARK    3  A    between atoms: C_13  and  C_15
REMARK    4  A    between atoms: C_13  and  C_28
REMARK    5  A    between atoms: C_15  and  N_16
REMARK    6  A    between atoms: N_16  and  S_17
REMARK    7  A    between atoms: S_17  and  C_20
REMARK    8  A    between atoms: C_20  and  C_21
REMARK                            x       y       z     vdW  Elec       q    Type
REMARK                         _______ _______ _______ _____ _____    ______ ____
ROOT
ATOM      1  C   UNL     1       3.143  -5.858   0.030  0.00  0.00    +0.102 C 
ENDROOT
BRANCH   1   2
ATOM      2  C   UNL     1       2.812  -6.744   1.203  0.00  0.00    -0.025 A 
ATOM      3  C   UNL     1       1.492  -6.989   1.532  0.00  0.00    +0.009 A 
ATOM      4  C   UNL     1       1.185  -7.802   2.607  0.00  0.00    +0.050 A 
ATOM      5  C   UNL     1       2.200  -8.372   3.359  0.00  0.00    +0.166 A 
ATOM      6  C   UNL     1       3.529  -8.124   3.027  0.00  0.00    +0.167 A 
ATOM      7  C   UNL     1       3.830  -7.314   1.945  0.00  0.00    +0.054 A 
ATOM      8  O   UNL     1       4.330  -8.792   3.909  0.00  0.00    -0.453 OA
ATOM      9  C   UNL     1       3.483  -9.118   5.026  0.00  0.00    +0.466 C 
ATOM     10  O   UNL     1       2.167  -9.194   4.447  0.00  0.00    -0.453 OA
ENDBRANCH   1   2
BRANCH   1  14
ATOM     11  N   UNL     1       1.314  -2.080   0.069  0.00  0.00    -0.325 N 
ATOM     12  C   UNL     1       1.165  -2.908   1.276  0.00  0.00    +0.120 C 
ATOM     13  C   UNL     1       2.264  -3.976   1.273  0.00  0.00    +0.104 C 
ATOM     14  N   UNL     1       2.220  -4.715   0.004  0.00  0.00    -0.291 NA
ATOM     15  C   UNL     1       2.506  -3.833  -1.135  0.00  0.00    +0.104 C 
ATOM     16  C   UNL     1       1.411  -2.759  -1.232  0.00  0.00    +0.120 C 
BRANCH  11  21
ATOM     17  C   UNL     1       0.231   1.431   0.173  0.00  0.00    +0.002 A 
ATOM     18  C   UNL     1       1.444   2.076   0.327  0.00  0.00    +0.003 A 
ATOM     19  C   UNL     1       2.616   1.345   0.396  0.00  0.00    +0.040 A 
ATOM     20  C   UNL     1       2.577  -0.034   0.311  0.00  0.00    +0.144 A 
ATOM     21  C   UNL     1       1.358  -0.685   0.156  0.00  0.00    +0.065 A 
ATOM     22  C   UNL     1       0.184   0.053   0.087  0.00  0.00    +0.026 A 
ATOM     23  F   UNL     1       3.722  -0.749   0.378  0.00  0.00    -0.204 F 
ENDBRANCH  11  21
ENDBRANCH   1  14
BRANCH   1  24
ATOM     24  C   UNL     1       3.001  -6.656  -1.268  0.00  0.00    +0.129 C 
BRANCH  24  25
ATOM     25  N   UNL     1       3.977  -7.748  -1.279  0.00  0.00    -0.192 NA
ATOM     26  H   UNL     1       4.729  -7.732  -0.667  0.00  0.00    +0.148 HD
BRANCH  25  27
ATOM     27  S   UNL     1       3.797  -9.009  -2.337  0.00  0.00    +0.034 S 
ATOM     28  O   UNL     1       4.888  -9.876  -2.057  0.00  0.00    -0.158 OA
ATOM     29  O   UNL     1       2.458  -9.448  -2.153  0.00  0.00    -0.158 OA
BRANCH  27  30
ATOM     30  C   UNL     1       3.993  -8.270  -3.982  0.00  0.00    +0.220 C 
BRANCH  30  31
ATOM     31  C   UNL     1       3.846  -9.339  -5.034  0.00  0.00    -0.022 A 
ATOM     32  C   UNL     1       4.957 -10.040  -5.465  0.00  0.00    +0.005 A 
ATOM     33  C   UNL     1       4.824 -11.021  -6.430  0.00  0.00    +0.003 A 
ATOM     34  C   UNL     1       3.581 -11.302  -6.965  0.00  0.00    +0.038 A 
ATOM     35  C   UNL     1       2.468 -10.600  -6.534  0.00  0.00    +0.124 A 
ATOM     36  C   UNL     1       2.602  -9.621  -5.562  0.00  0.00    +0.043 A 
ATOM     37  F   UNL     1       1.253 -10.873  -7.056  0.00  0.00    -0.205 F 
ENDBRANCH  30  31
ENDBRANCH  27  30
ENDBRANCH  25  27
ENDBRANCH  24  25
ENDBRANCH   1  24
TORSDOF 8
