REMARK  Name = ZINC64741463
REMARK  6 active torsions:
REMARK  status: ('A' for Active; 'I' for Inactive)
REMARK    1  A    between atoms: C_1  and  S_2
REMARK    2  A    between atoms: S_2  and  N_5
REMARK    3  A    between atoms: N_5  and  C_6
REMARK    4  A    between atoms: C_9  and  C_12
REMARK    5  A    between atoms: C_18  and  C_20
REMARK    6  A    between atoms: C_20  and  C_21
REMARK                            x       y       z     vdW  Elec       q    Type
REMARK                         _______ _______ _______ _____ _____    ______ ____
ROOT
ATOM      1  C   UNL     1       1.594  -5.850  -2.706  0.00  0.00    +0.080 A 
ATOM      2  C   UNL     1       2.257  -6.193  -3.851  0.00  0.00    +0.076 A 
ATOM      3  S   UNL     1       2.209  -7.977  -3.740  0.00  0.00    -0.060 S 
ATOM      4  C   UNL     1       1.319  -8.080  -2.193  0.00  0.00    +0.165 A 
ATOM      5  N   UNL     1       1.146  -6.803  -1.903  0.00  0.00    -0.225 NA
ATOM      6  N   UNL     1       0.918  -9.205  -1.482  0.00  0.00    -0.264 N 
ATOM      7  C   UNL     1       1.201 -10.435  -1.954  0.00  0.00    +0.223 C 
ATOM      8  O   UNL     1       1.804 -10.561  -2.998  0.00  0.00    -0.275 OA
ATOM      9  H   UNL     1       0.436  -9.104  -0.647  0.00  0.00    +0.157 HD
ENDROOT
BRANCH   1  13
ATOM     10  C   UNL     1       0.992  -1.756  -1.718  0.00  0.00    +0.074 A 
ATOM     11  C   UNL     1       0.518  -2.751  -0.872  0.00  0.00    +0.027 A 
ATOM     12  C   UNL     1       0.712  -4.078  -1.190  0.00  0.00    +0.012 A 
ATOM     13  C   UNL     1       1.384  -4.422  -2.362  0.00  0.00    +0.001 A 
ATOM     14  C   UNL     1       1.858  -3.422  -3.209  0.00  0.00    +0.012 A 
ATOM     15  C   UNL     1       1.657  -2.096  -2.890  0.00  0.00    +0.027 A 
BRANCH  10  16
ATOM     16  N   UNL     1       0.795  -0.411  -1.394  0.00  0.00    -0.103 NA
BRANCH  16  18
ATOM     17  C   UNL     1      -0.022   1.810   0.012  0.00  0.00    +0.220 C 
ATOM     18  S   UNL     1       0.002  -0.004   0.002  0.00  0.00    +0.059 S 
ATOM     19  O   UNL     1       0.835  -0.488   1.046  0.00  0.00    -0.154 OA
ATOM     20  O   UNL     1      -1.315  -0.510  -0.168  0.00  0.00    -0.154 OA
ENDBRANCH  16  18
ENDBRANCH  10  16
ENDBRANCH   1  13
BRANCH   7  21
ATOM     21  C   UNL     1       0.766 -11.655  -1.183  0.00  0.00    +0.129 C 
BRANCH  21  22
ATOM     22  C   UNL     1       1.202 -12.896  -1.919  0.00  0.00    -0.033 C 
ATOM     23  C   UNL     1       2.328 -13.614  -1.708  0.00  0.00    -0.001 A 
ATOM     24  C   UNL     1       3.443 -13.460  -0.766  0.00  0.00    +0.010 A 
ATOM     25  C   UNL     1       4.454 -14.359  -0.793  0.00  0.00    +0.001 A 
ATOM     26  C   UNL     1       4.463 -15.431  -1.696  0.00  0.00    +0.002 A 
ATOM     27  C   UNL     1       3.474 -15.638  -2.592  0.00  0.00    +0.026 A 
ATOM     28  C   UNL     1       2.361 -14.755  -2.651  0.00  0.00    +0.043 A 
ATOM     29  N   UNL     1       1.297 -14.742  -3.416  0.00  0.00    -0.380 N 
ATOM     30  C   UNL     1       0.464 -13.594  -3.040  0.00  0.00    +0.145 C 
ATOM     31  H   UNL     1       1.092 -15.386  -4.112  0.00  0.00    +0.160 HD
ENDBRANCH  21  22
ENDBRANCH   7  21
TORSDOF 5
