REMARK  Name = ZINC06301654
REMARK  6 active torsions:
REMARK  status: ('A' for Active; 'I' for Inactive)
REMARK    1  A    between atoms: C_1  and  C_2
REMARK    2  A    between atoms: C_4  and  C_36
REMARK    3  A    between atoms: C_7  and  C_14
REMARK    4  A    between atoms: C_14  and  C_16
REMARK    5  A    between atoms: C_14  and  N_67
REMARK    6  A    between atoms: N_20  and  C_21
REMARK                            x       y       z     vdW  Elec       q    Type
REMARK                         _______ _______ _______ _____ _____    ______ ____
ROOT
ATOM      1  C   UNL     1      -3.729   6.022   0.070  0.00  0.00    +0.039 C 
ENDROOT
BRANCH   1   8
ATOM      2  C   UNL     1       2.491   1.030  -0.016  0.00  0.00    +0.044 C 
ATOM      3  C   UNL     1       1.184   1.780   0.000  0.00  0.00    -0.048 A 
ATOM      4  C   UNL     1      -0.013   1.076   0.008  0.00  0.00    +0.007 A 
ATOM      5  C   UNL     1      -1.208   1.736   0.017  0.00  0.00    -0.041 A 
ATOM      6  C   UNL     1      -1.227   3.135   0.031  0.00  0.00    +0.002 A 
ATOM      7  C   UNL     1      -2.490   3.875   0.047  0.00  0.00    +0.018 A 
ATOM      8  C   UNL     1      -2.447   5.230   0.053  0.00  0.00    +0.011 A 
ATOM      9  C   UNL     1      -1.206   5.902   0.045  0.00  0.00    +0.251 A 
ATOM     10  O   UNL     1      -1.190   7.121   0.051  0.00  0.00    -0.268 OA
ATOM     11  N   UNL     1      -0.041   5.231   0.030  0.00  0.00    -0.322 N 
ATOM     12  H   UNL     1       0.795   5.724   0.025  0.00  0.00    +0.169 HD
ATOM     13  C   UNL     1      -0.016   3.853   0.023  0.00  0.00    +0.050 A 
ATOM     14  C   UNL     1       1.189   3.158   0.008  0.00  0.00    +0.029 A 
ATOM     15  C   UNL     1      -2.501   0.962   0.019  0.00  0.00    +0.044 C 
ENDBRANCH   1   8
BRANCH   1  25
ATOM     16  C   UNL     1      -4.988   7.739  -1.089  0.00  0.00    -0.072 C 
ATOM     17  C   UNL     1      -4.798   8.928  -2.031  0.00  0.00    +0.017 C 
ATOM     18  C   UNL     1      -4.245   8.455  -3.351  0.00  0.00    -0.048 A 
ATOM     19  C   UNL     1      -4.331   9.302  -4.446  0.00  0.00    +0.004 A 
ATOM     20  C   UNL     1      -3.830   8.912  -5.671  0.00  0.00    +0.000 A 
ATOM     21  C   UNL     1      -3.239   7.670  -5.808  0.00  0.00    +0.000 A 
ATOM     22  C   UNL     1      -3.155   6.825  -4.720  0.00  0.00    +0.002 A 
ATOM     23  C   UNL     1      -3.660   7.215  -3.488  0.00  0.00    -0.061 A 
ATOM     24  C   UNL     1      -3.549   6.256  -2.331  0.00  0.00    -0.041 C 
ATOM     25  N   UNL     1      -3.722   6.979  -1.060  0.00  0.00    +0.392 N 
ATOM     26  H   UNL     1      -2.941   7.634  -0.938  0.00  0.00    -0.080 HD
ENDBRANCH   1  25
BRANCH   1  27
ATOM     27  C   UNL     1      -3.829   6.790   1.362  0.00  0.00    +0.143 A 
ATOM     28  N   UNL     1      -3.162   7.872   1.683  0.00  0.00    -0.115 NA
ATOM     29  N   UNL     1      -3.526   8.226   2.868  0.00  0.00    -0.023 NA
ATOM     30  N   UNL     1      -4.407   7.399   3.310  0.00  0.00    -0.044 NA
ATOM     31  N   UNL     1      -4.625   6.502   2.409  0.00  0.00    -0.227 N 
BRANCH  31  32
ATOM     32  C   UNL     1      -5.560   5.378   2.507  0.00  0.00    +0.111 C 
ATOM     33  C   UNL     1      -6.979   5.913   2.712  0.00  0.00    +0.027 C 
ATOM     34  C   UNL     1      -7.956   4.739   2.815  0.00  0.00    +0.002 C 
ATOM     35  C   UNL     1      -7.568   3.856   4.002  0.00  0.00    +0.000 C 
ATOM     36  C   UNL     1      -6.149   3.321   3.797  0.00  0.00    +0.002 C 
ATOM     37  C   UNL     1      -5.172   4.495   3.695  0.00  0.00    +0.027 C 
ENDBRANCH  31  32
ENDBRANCH   1  27
TORSDOF 4
