REMARK  Name = ZINC63374671
REMARK  9 active torsions:
REMARK  status: ('A' for Active; 'I' for Inactive)
REMARK    1  A    between atoms: C_1  and  C_2
REMARK    2  A    between atoms: C_2  and  O_3
REMARK    3  A    between atoms: O_3  and  C_4
REMARK    4  A    between atoms: C_5  and  C_12
REMARK    5  A    between atoms: C_9  and  O_10
REMARK    6  A    between atoms: O_10  and  C_11
REMARK    7  A    between atoms: N_19  and  C_34
REMARK    8  A    between atoms: C_22  and  C_33
REMARK    9  A    between atoms: C_34  and  C_35
REMARK                            x       y       z     vdW  Elec       q    Type
REMARK                         _______ _______ _______ _____ _____    ______ ____
ROOT
ATOM      1  C   UNL     1       2.948  -1.733  -0.088  0.00  0.00    +0.069 C 
ATOM      2  C   UNL     1       4.305  -1.936  -0.785  0.00  0.00    +0.121 C 
ATOM      3  N   UNL     1       4.783  -3.309  -0.531  0.00  0.00    -0.283 N 
ATOM      4  C   UNL     1       5.011  -4.101  -1.585  0.00  0.00    +0.234 C 
ATOM      5  O   UNL     1       4.786  -3.647  -2.687  0.00  0.00    -0.274 OA
ATOM      6  C   UNL     1       5.523  -5.500  -1.505  0.00  0.00    +0.204 C 
ATOM      7  N   UNL     1       5.761  -5.920  -0.134  0.00  0.00    -0.287 N 
ATOM      8  C   UNL     1       5.526  -5.146   0.924  0.00  0.00    +0.242 C 
ATOM      9  O   UNL     1       5.764  -5.602   2.022  0.00  0.00    -0.273 OA
ATOM     10  C   UNL     1       4.989  -3.756   0.848  0.00  0.00    +0.135 C 
ATOM     11  C   UNL     1       3.648  -3.671   1.585  0.00  0.00    +0.139 C 
ATOM     12  C   UNL     1       3.093  -2.275   1.312  0.00  0.00    -0.027 C 
ATOM     13  C   UNL     1       2.829  -1.738   2.497  0.00  0.00    -0.000 A 
ATOM     14  C   UNL     1       2.190  -0.468   2.877  0.00  0.00    +0.010 A 
ATOM     15  C   UNL     1       2.100  -0.217   4.210  0.00  0.00    +0.001 A 
ATOM     16  C   UNL     1       2.575  -1.093   5.191  0.00  0.00    +0.002 A 
ATOM     17  C   UNL     1       3.167  -2.287   4.932  0.00  0.00    +0.026 A 
ATOM     18  C   UNL     1       3.310  -2.665   3.566  0.00  0.00    +0.043 A 
ATOM     19  N   UNL     1       3.807  -3.774   3.035  0.00  0.00    -0.375 N 
ATOM     20  C   UNL     1       5.973  -2.807   1.534  0.00  0.00    +0.044 C 
ATOM     21  H   UNL     1       4.208  -4.519   3.511  0.00  0.00    +0.160 HD
ENDROOT
BRANCH   1  23
ATOM     22  C   UNL     1       0.777  -1.811  -1.336  0.00  0.00    +0.166 A 
ATOM     23  C   UNL     1       1.872  -2.488  -0.825  0.00  0.00    +0.007 A 
ATOM     24  C   UNL     1       1.978  -3.857  -0.990  0.00  0.00    +0.008 A 
ATOM     25  C   UNL     1       0.993  -4.552  -1.666  0.00  0.00    +0.004 A 
ATOM     26  C   UNL     1      -0.102  -3.883  -2.180  0.00  0.00    +0.049 A 
ATOM     27  C   UNL     1      -0.217  -2.512  -2.012  0.00  0.00    +0.162 A 
BRANCH  27  28
ATOM     28  O   UNL     1      -1.297  -1.853  -2.511  0.00  0.00    -0.491 OA
ATOM     29  C   UNL     1      -2.278  -2.637  -3.193  0.00  0.00    +0.277 C 
ENDBRANCH  27  28
BRANCH  22  30
ATOM     30  O   UNL     1       0.671  -0.465  -1.174  0.00  0.00    -0.488 OA
BRANCH  30  32
ATOM     31  C   UNL     1      -0.019   1.526   0.010  0.00  0.00    +0.048 C 
ATOM     32  C   UNL     1       0.002  -0.004   0.002  0.00  0.00    +0.226 C 
ENDBRANCH  30  32
ENDBRANCH  22  30
ENDBRANCH   1  23
BRANCH   7  33
ATOM     33  C   UNL     1       6.288  -7.267   0.096  0.00  0.00    +0.143 C 
BRANCH  33  34
ATOM     34  C   UNL     1       7.794  -7.224   0.099  0.00  0.00    -0.030 A 
ATOM     35  C   UNL     1       8.493  -7.397  -1.081  0.00  0.00    +0.005 A 
ATOM     36  C   UNL     1       9.875  -7.357  -1.077  0.00  0.00    +0.000 A 
ATOM     37  C   UNL     1      10.558  -7.144   0.106  0.00  0.00    +0.000 A 
ATOM     38  C   UNL     1       9.858  -6.970   1.286  0.00  0.00    +0.000 A 
ATOM     39  C   UNL     1       8.476  -7.006   1.282  0.00  0.00    +0.005 A 
ENDBRANCH  33  34
ENDBRANCH   7  33
TORSDOF 6
