REMARK  Name = ZINC32099569
REMARK  7 active torsions:
REMARK  status: ('A' for Active; 'I' for Inactive)
REMARK    1  A    between atoms: C_1  and  C_2
REMARK    2  A    between atoms: C_5  and  C_9
REMARK    3  A    between atoms: C_12  and  C_14
REMARK    4  A    between atoms: C_16  and  C_31
REMARK    5  A    between atoms: N_18  and  C_21
REMARK    6  A    between atoms: C_24  and  S_27
REMARK    7  A    between atoms: S_27  and  N_30
REMARK                            x       y       z     vdW  Elec       q    Type
REMARK                         _______ _______ _______ _____ _____    ______ ____
ROOT
ATOM      1  C   UNL     1      -4.449  -1.964   0.014  0.00  0.00    +0.061 C 
ATOM      2  C   UNL     1      -3.584  -3.057   0.005  0.00  0.00    +0.074 C 
ATOM      3  C   UNL     1      -3.943  -4.480  -0.000  0.00  0.00    +0.174 C 
ATOM      4  N   UNL     1      -2.839  -5.164  -0.009  0.00  0.00    -0.167 NA
ATOM      5  N   UNL     1      -1.724  -4.326  -0.011  0.00  0.00    -0.156 N 
ATOM      6  C   UNL     1      -2.116  -3.036  -0.009  0.00  0.00    +0.273 C 
ATOM      7  O   UNL     1      -1.397  -2.051  -0.013  0.00  0.00    -0.268 OA
ENDROOT
BRANCH   5   8
ATOM      8  C   UNL     1      -0.393  -4.761  -0.021  0.00  0.00    +0.060 A 
ATOM      9  C   UNL     1       0.642  -3.834  -0.028  0.00  0.00    +0.027 A 
ATOM     10  C   UNL     1       1.954  -4.266  -0.033  0.00  0.00    +0.030 A 
ATOM     11  C   UNL     1       2.237  -5.620  -0.041  0.00  0.00    +0.105 A 
ATOM     12  C   UNL     1       1.210  -6.545  -0.039  0.00  0.00    +0.030 A 
ATOM     13  C   UNL     1      -0.104  -6.119  -0.029  0.00  0.00    +0.027 A 
BRANCH  11  14
ATOM     14  S   UNL     1       3.912  -6.167  -0.054  0.00  0.00    +0.056 S 
ATOM     15  O   UNL     1       4.688  -5.111   0.497  0.00  0.00    -0.153 OA
ATOM     16  O   UNL     1       3.915  -7.479   0.491  0.00  0.00    -0.153 OA
BRANCH  14  17
ATOM     17  N   UNL     1       4.368  -6.311  -1.639  0.00  0.00    -0.204 NA
ATOM     18  H   UNL     1       5.413  -6.652  -1.690  0.00  0.00    +0.144 HD
ATOM     19  H   UNL     1       4.276  -5.335  -2.138  0.00  0.00    +0.144 HD
ENDBRANCH  14  17
ENDBRANCH  11  14
ENDBRANCH   5   8
BRANCH   1  23
ATOM     20  C   UNL     1      -2.502   1.010   0.019  0.00  0.00    +0.136 A 
ATOM     21  C   UNL     1      -3.765   1.566   0.034  0.00  0.00    +0.050 A 
ATOM     22  C   UNL     1      -4.676   0.512   0.027  0.00  0.00    +0.050 A 
ATOM     23  C   UNL     1      -3.931  -0.662   0.017  0.00  0.00    +0.129 A 
ATOM     24  O   UNL     1      -2.622  -0.329   0.013  0.00  0.00    -0.455 OA
BRANCH  20  29
ATOM     25  C   UNL     1       2.453   3.932  -0.001  0.00  0.00    +0.045 C 
ATOM     26  C   UNL     1       1.155   3.167   0.008  0.00  0.00    -0.032 A 
ATOM     27  C   UNL     1       1.171   1.783   0.001  0.00  0.00    +0.005 A 
ATOM     28  C   UNL     1      -0.013   1.076   0.008  0.00  0.00    +0.012 A 
ATOM     29  C   UNL     1      -1.232   1.760   0.017  0.00  0.00    +0.019 A 
ATOM     30  C   UNL     1      -1.241   3.157   0.030  0.00  0.00    +0.031 A 
ATOM     31  C   UNL     1      -0.049   3.852   0.022  0.00  0.00    +0.045 A 
ATOM     32 CL   UNL     1      -0.057   5.588   0.031  0.00  0.00    -0.083 Cl
ENDBRANCH  20  29
ENDBRANCH   1  23
BRANCH   3  33
ATOM     33  C   UNL     1      -5.340  -5.045   0.004  0.00  0.00    +0.436 C 
ATOM     34  F   UNL     1      -5.278  -6.443  -0.003  0.00  0.00    -0.164 F 
ATOM     35  F   UNL     1      -6.014  -4.614   1.152  0.00  0.00    -0.164 F 
ATOM     36  F   UNL     1      -6.026  -4.604  -1.133  0.00  0.00    -0.164 F 
ENDBRANCH   3  33
TORSDOF 6
