REMARK  Name = ZINC36550711
REMARK  13 active torsions:
REMARK  status: ('A' for Active; 'I' for Inactive)
REMARK    1  A    between atoms: C_1  and  C_2
REMARK    2  A    between atoms: C_2  and  C_3
REMARK    3  A    between atoms: C_3  and  C_4
REMARK    4  A    between atoms: C_4  and  C_5
REMARK    5  A    between atoms: N_7  and  C_8
REMARK    6  A    between atoms: N_7  and  C_15
REMARK    7  A    between atoms: C_15  and  C_17
REMARK    8  A    between atoms: C_15  and  C_24
REMARK    9  A    between atoms: C_22  and  O_23
REMARK   10  A    between atoms: N_26  and  C_27
REMARK   11  A    between atoms: C_27  and  S_28
REMARK   12  A    between atoms: S_28  and  C_31
REMARK   13  A    between atoms: C_34  and  C_37
REMARK                            x       y       z     vdW  Elec       q    Type
REMARK                         _______ _______ _______ _____ _____    ______ ____
ROOT
ATOM      1  C   UNL     1      -4.327  -4.232  -0.035  0.00  0.00    +0.201 C 
ENDROOT
BRANCH   1   2
ATOM      2  C   UNL     1      -4.150  -5.075   1.201  0.00  0.00    +0.024 A 
ATOM      3  C   UNL     1      -3.946  -6.437   1.086  0.00  0.00    +0.009 A 
ATOM      4  C   UNL     1      -3.784  -7.211   2.220  0.00  0.00    +0.001 A 
ATOM      5  C   UNL     1      -3.825  -6.625   3.472  0.00  0.00    +0.004 A 
ATOM      6  C   UNL     1      -4.028  -5.264   3.592  0.00  0.00    +0.046 A 
ATOM      7  C   UNL     1      -4.186  -4.484   2.455  0.00  0.00    +0.122 A 
BRANCH   7   8
ATOM      8  O   UNL     1      -4.380  -3.144   2.571  0.00  0.00    -0.506 OA
ATOM      9  H   UNL     1      -5.302  -2.891   2.717  0.00  0.00    +0.292 HD
ENDBRANCH   7   8
ENDBRANCH   1   2
BRANCH   1  10
ATOM     10  C   UNL     1      -4.812  -5.098  -1.169  0.00  0.00    +0.240 C 
ATOM     11  O   UNL     1      -4.081  -5.337  -2.106  0.00  0.00    -0.273 OA
ATOM     12  N   UNL     1      -6.060  -5.609  -1.141  0.00  0.00    -0.294 N 
ATOM     13  H   UNL     1      -6.674  -5.349  -0.437  0.00  0.00    +0.150 HD
BRANCH  12  14
ATOM     14  C   UNL     1      -6.487  -6.556  -2.174  0.00  0.00    +0.278 C 
BRANCH  14  15
ATOM     15  S   UNL     1      -6.246  -8.251  -1.576  0.00  0.00    +0.013 S 
ATOM     16  O   UNL     1      -6.715  -9.182  -2.542  0.00  0.00    -0.168 OA
ATOM     17  O   UNL     1      -4.953  -8.390  -1.005  0.00  0.00    -0.168 OA
BRANCH  15  18
ATOM     18  C   UNL     1      -7.357  -8.415  -0.218  0.00  0.00    +0.090 A 
ATOM     19  C   UNL     1      -6.940  -8.090   1.059  0.00  0.00    +0.027 A 
ATOM     20  C   UNL     1      -7.811  -8.218   2.124  0.00  0.00    +0.005 A 
ATOM     21  C   UNL     1      -9.100  -8.671   1.913  0.00  0.00    -0.050 A 
ATOM     22  C   UNL     1      -9.518  -8.995   0.635  0.00  0.00    +0.005 A 
ATOM     23  C   UNL     1      -8.647  -8.863  -0.431  0.00  0.00    +0.027 A 
ATOM     24  C   UNL     1     -10.050  -8.812   3.074  0.00  0.00    +0.044 C 
ENDBRANCH  15  18
ENDBRANCH  14  15
ENDBRANCH  12  14
ENDBRANCH   1  10
BRANCH   1  27
ATOM     25  C   UNL     1      -2.978  -2.759  -1.431  0.00  0.00    +0.221 C 
ATOM     26  O   UNL     1      -3.980  -2.484  -2.057  0.00  0.00    -0.275 OA
ATOM     27  N   UNL     1      -3.045  -3.624  -0.400  0.00  0.00    -0.254 N 
BRANCH  27  28
ATOM     28  C   UNL     1      -1.889  -3.942   0.323  0.00  0.00    +0.056 A 
ATOM     29  C   UNL     1      -1.508  -3.160   1.405  0.00  0.00    +0.025 A 
ATOM     30  C   UNL     1      -0.368  -3.476   2.117  0.00  0.00    +0.002 A 
ATOM     31  C   UNL     1       0.396  -4.570   1.753  0.00  0.00    +0.002 A 
ATOM     32  C   UNL     1       0.020  -5.351   0.676  0.00  0.00    +0.022 A 
ATOM     33  C   UNL     1      -1.123  -5.044  -0.037  0.00  0.00    +0.062 A 
ATOM     34 CL   UNL     1      -1.599  -6.029  -1.385  0.00  0.00    -0.082 Cl
ENDBRANCH  27  28
BRANCH  25  35
ATOM     35  C   UNL     1      -1.660  -2.134  -1.806  0.00  0.00    +0.096 C 
BRANCH  35  36
ATOM     36  C   UNL     1      -1.860  -1.198  -3.000  0.00  0.00    +0.009 C 
BRANCH  36  38
ATOM     37  C   UNL     1      -0.721   0.372  -4.575  0.00  0.00    +0.004 C 
ATOM     38  C   UNL     1      -0.521  -0.563  -3.381  0.00  0.00    -0.003 C 
ENDBRANCH  36  38
ENDBRANCH  35  36
ENDBRANCH  25  35
ENDBRANCH   1  27
TORSDOF 11
