REMARK  Name = ZINC59074328
REMARK  11 active torsions:
REMARK  status: ('A' for Active; 'I' for Inactive)
REMARK    1  A    between atoms: C_1  and  C_2
REMARK    2  A    between atoms: C_2  and  N_3
REMARK    3  A    between atoms: N_3  and  C_4
REMARK    4  A    between atoms: N_3  and  C_6
REMARK    5  A    between atoms: C_4  and  C_5
REMARK    6  A    between atoms: C_9  and  C_12
REMARK    7  A    between atoms: N_18  and  S_19
REMARK    8  A    between atoms: S_19  and  C_22
REMARK    9  A    between atoms: C_25  and  C_28
REMARK   10  A    between atoms: C_29  and  C_31
REMARK   11  A    between atoms: C_31  and  N_32
REMARK                            x       y       z     vdW  Elec       q    Type
REMARK                         _______ _______ _______ _____ _____    ______ ____
ROOT
ATOM      1  C   UNL     1       0.364  -6.132  -1.473  0.00  0.00    +0.198 C 
ATOM      2  N   UNL     1       1.526  -6.729  -0.794  0.00  0.00    -0.282 N 
ATOM      3  C   UNL     1       2.843  -6.621  -1.436  0.00  0.00    +0.111 C 
ATOM      4  C   UNL     1       2.751  -7.188  -2.857  0.00  0.00    +0.036 C 
ATOM      5  C   UNL     1       1.650  -6.449  -3.625  0.00  0.00    +0.113 C 
ATOM      6  N   UNL     1       0.388  -6.566  -2.879  0.00  0.00    -0.152 NA
ATOM      7  C   UNL     1       1.384  -7.361   0.388  0.00  0.00    +0.200 C 
ATOM      8  O   UNL     1       0.290  -7.442   0.905  0.00  0.00    -0.278 OA
ENDROOT
BRANCH   1  12
ATOM      9  C   UNL     1       0.609  -1.872  -1.272  0.00  0.00    +0.013 A 
ATOM     10  C   UNL     1       1.141  -2.643  -0.256  0.00  0.00    +0.022 A 
ATOM     11  C   UNL     1       1.062  -4.022  -0.321  0.00  0.00    +0.008 A 
ATOM     12  C   UNL     1       0.450  -4.629  -1.402  0.00  0.00    -0.011 A 
ATOM     13  C   UNL     1      -0.082  -3.857  -2.418  0.00  0.00    +0.008 A 
ATOM     14  C   UNL     1      -0.007  -2.479  -2.351  0.00  0.00    +0.022 A 
BRANCH   9  15
ATOM     15  N   UNL     1       0.690  -0.478  -1.207  0.00  0.00    -0.394 NA
ATOM     16  H   UNL     1       0.251  -0.077  -2.022  0.00  0.00    +0.126 HD
BRANCH  15  18
ATOM     17  C   UNL     1      -0.019   1.526   0.010  0.00  0.00    +0.022 C 
ATOM     18  C   UNL     1       0.002  -0.004   0.002  0.00  0.00    +0.081 C 
ENDBRANCH  15  18
BRANCH  15  19
ATOM     19  C   UNL     1       2.100  -0.070  -1.159  0.00  0.00    +0.081 C 
ATOM     20  C   UNL     1       2.786  -0.454  -2.472  0.00  0.00    +0.022 C 
ENDBRANCH  15  19
ENDBRANCH   9  15
ENDBRANCH   1  12
BRANCH   6  21
ATOM     21  S   UNL     1      -0.973  -7.172  -3.602  0.00  0.00    +0.063 S 
ATOM     22  O   UNL     1      -0.532  -7.984  -4.681  0.00  0.00    -0.153 OA
ATOM     23  O   UNL     1      -1.798  -7.672  -2.559  0.00  0.00    -0.153 OA
BRANCH  21  24
ATOM     24  C   UNL     1      -1.834  -5.810  -4.316  0.00  0.00    +0.106 A 
ATOM     25  C   UNL     1      -2.776  -5.122  -3.574  0.00  0.00    +0.029 A 
ATOM     26  C   UNL     1      -3.451  -4.054  -4.134  0.00  0.00    +0.005 A 
ATOM     27  C   UNL     1      -3.184  -3.673  -5.436  0.00  0.00    -0.050 A 
ATOM     28  C   UNL     1      -2.241  -4.361  -6.177  0.00  0.00    +0.005 A 
ATOM     29  C   UNL     1      -1.563  -5.426  -5.616  0.00  0.00    +0.029 A 
ATOM     30  C   UNL     1      -3.921  -2.509  -6.046  0.00  0.00    +0.044 C 
ENDBRANCH  21  24
ENDBRANCH   6  21
BRANCH   7  31
ATOM     31  C   UNL     1       2.585  -7.966   1.067  0.00  0.00    +0.019 C 
BRANCH  31  32
ATOM     32  N   UNL     1       2.170  -8.591   2.330  0.00  0.00    +0.385 N 
ATOM     33  C   UNL     1       1.675  -7.557   3.247  0.00  0.00    -0.078 C 
ATOM     34  C   UNL     1       1.166  -8.210   4.533  0.00  0.00    -0.019 C 
ATOM     35  C   UNL     1       2.313  -8.977   5.198  0.00  0.00    -0.004 C 
ATOM     36  C   UNL     1       2.870 -10.003   4.207  0.00  0.00    -0.019 C 
ATOM     37  C   UNL     1       3.316  -9.283   2.932  0.00  0.00    -0.078 C 
ATOM     38  H   UNL     1       1.433  -9.257   2.149  0.00  0.00    -0.081 HD
ENDBRANCH  31  32
ENDBRANCH   7  31
TORSDOF 8
