REMARK  Name = ZINC22010345
REMARK  6 active torsions:
REMARK  status: ('A' for Active; 'I' for Inactive)
REMARK    1  A    between atoms: C_1  and  C_2
REMARK    2  A    between atoms: C_2  and  C_4
REMARK    3  A    between atoms: C_2  and  N_18
REMARK    4  A    between atoms: N_10  and  C_11
REMARK    5  A    between atoms: N_21  and  C_24
REMARK    6  A    between atoms: C_29  and  O_30
REMARK                            x       y       z     vdW  Elec       q    Type
REMARK                         _______ _______ _______ _____ _____    ______ ____
ROOT
ATOM      1  C   UNL     1       5.310   0.600   1.637  0.00  0.00    -0.005 C 
ATOM      2  C   UNL     1       4.763   0.480   0.213  0.00  0.00    -0.002 C 
ENDROOT
BRANCH   2   3
ATOM      3  C   UNL     1       3.536   1.344   0.072  0.00  0.00    +0.123 A 
ATOM      4  N   UNL     1       3.660   2.656  -0.021  0.00  0.00    -0.201 NA
ATOM      5  C   UNL     1       2.579   3.422  -0.145  0.00  0.00    +0.217 A 
ATOM      6  N   UNL     1       1.373   2.865  -0.175  0.00  0.00    -0.181 NA
ATOM      7  C   UNL     1       1.252   1.545  -0.082  0.00  0.00    +0.224 A 
ATOM      8  N   UNL     1       2.338   0.787   0.048  0.00  0.00    -0.201 NA
ATOM      9  N   UNL     1       0.000   0.962  -0.113  0.00  0.00    -0.284 N 
ATOM     10  N   UNL     1       2.710   4.792  -0.243  0.00  0.00    -0.327 N 
ATOM     11  H   UNL     1      -0.107  -0.119   0.059  0.00  0.00    +0.155 HD
ATOM     12  H   UNL     1       1.815   5.424  -0.346  0.00  0.00    +0.145 HD
ATOM     13  H   UNL     1       3.709   5.252  -0.218  0.00  0.00    +0.145 HD
BRANCH   9  14
ATOM     14  C   UNL     1      -1.131   1.746  -0.362  0.00  0.00    +0.034 A 
ATOM     15  C   UNL     1      -2.330   1.459   0.277  0.00  0.00    +0.023 A 
ATOM     16  C   UNL     1      -3.444   2.239   0.032  0.00  0.00    +0.002 A 
ATOM     17  C   UNL     1      -3.368   3.296  -0.856  0.00  0.00    +0.000 A 
ATOM     18  C   UNL     1      -2.177   3.580  -1.498  0.00  0.00    +0.002 A 
ATOM     19  C   UNL     1      -1.058   2.808  -1.253  0.00  0.00    +0.023 A 
ENDBRANCH   9  14
ENDBRANCH   2   3
BRANCH   2  20
ATOM     20  N   UNL     1       5.786   0.924  -0.743  0.00  0.00    +0.388 N 
ATOM     21  C   UNL     1       5.265   0.909  -2.117  0.00  0.00    -0.059 C 
ATOM     22  C   UNL     1       6.332   1.452  -3.071  0.00  0.00    +0.086 C 
ATOM     23  N   UNL     1       7.546   0.631  -2.962  0.00  0.00    -0.331 N 
ATOM     24  C   UNL     1       8.067   0.647  -1.588  0.00  0.00    +0.086 C 
ATOM     25  C   UNL     1       7.000   0.104  -0.635  0.00  0.00    -0.059 C 
ATOM     26  H   UNL     1       6.054   1.962  -0.493  0.00  0.00    -0.081 HD
BRANCH  23  27
ATOM     27  C   UNL     1       8.521   1.054  -3.873  0.00  0.00    +0.072 A 
ATOM     28  C   UNL     1       8.353   2.243  -4.569  0.00  0.00    +0.027 A 
ATOM     29  C   UNL     1       9.320   2.661  -5.465  0.00  0.00    +0.002 A 
ATOM     30  C   UNL     1      10.449   1.892  -5.677  0.00  0.00    +0.004 A 
ATOM     31  C   UNL     1      10.620   0.704  -4.990  0.00  0.00    +0.047 A 
ATOM     32  C   UNL     1       9.659   0.280  -4.088  0.00  0.00    +0.138 A 
BRANCH  32  33
ATOM     33  O   UNL     1       9.826  -0.888  -3.413  0.00  0.00    -0.505 OA
ATOM     34  H   UNL     1      10.725  -1.499  -3.583  0.00  0.00    +0.292 HD
ENDBRANCH  32  33
ENDBRANCH  23  27
ENDBRANCH   2  20
TORSDOF 5
