REMARK  Name = ZINC13086533
REMARK  8 active torsions:
REMARK  status: ('A' for Active; 'I' for Inactive)
REMARK    1  A    between atoms: C_1  and  C_2
REMARK    2  A    between atoms: C_7  and  C_8
REMARK    3  A    between atoms: C_10  and  C_13
REMARK    4  A    between atoms: C_18  and  S_19
REMARK    5  A    between atoms: S_19  and  C_20
REMARK    6  A    between atoms: C_20  and  C_21
REMARK    7  A    between atoms: N_23  and  C_24
REMARK    8  A    between atoms: C_25  and  C_34
REMARK                            x       y       z     vdW  Elec       q    Type
REMARK                         _______ _______ _______ _____ _____    ______ ____
ROOT
ATOM      1  C   UNL     1      -0.073   3.810  -0.025  0.00  0.00    +0.049 A 
ATOM      2  C   UNL     1       1.165   3.161  -0.045  0.00  0.00    +0.015 A 
ATOM      3  C   UNL     1       1.182   1.776  -0.046  0.00  0.00    +0.020 A 
ATOM      4  C   UNL     1      -0.013   1.080  -0.027  0.00  0.00    +0.112 A 
ATOM      5  N   UNL     1      -1.171   1.711  -0.014  0.00  0.00    -0.248 NA
ATOM      6  C   UNL     1      -1.244   3.033  -0.007  0.00  0.00    +0.108 A 
ENDROOT
BRANCH   1  16
ATOM      7  C   UNL     1       0.886  11.168  -0.034  0.00  0.00    +0.044 C 
ATOM      8  C   UNL     1       0.241   9.806  -0.025  0.00  0.00    -0.045 A 
ATOM      9  C   UNL     1       1.029   8.674  -0.039  0.00  0.00    +0.031 A 
ATOM     10  C   UNL     1       0.437   7.420  -0.030  0.00  0.00    +0.067 A 
ATOM     11  C   UNL     1      -0.964   7.306  -0.009  0.00  0.00    +0.090 A 
ATOM     12  C   UNL     1      -1.748   8.464   0.004  0.00  0.00    +0.033 A 
ATOM     13  C   UNL     1      -1.143   9.699  -0.004  0.00  0.00    -0.045 A 
ATOM     14  C   UNL     1      -1.988  10.947   0.011  0.00  0.00    +0.044 C 
ATOM     15  N   UNL     1      -1.259   5.983  -0.011  0.00  0.00    -0.228 NA
ATOM     16  C   UNL     1      -0.149   5.284  -0.023  0.00  0.00    +0.142 A 
ATOM     17  N   UNL     1       0.929   6.128  -0.039  0.00  0.00    -0.338 N 
ATOM     18  H   UNL     1       1.893   5.861  -0.054  0.00  0.00    +0.167 HD
ENDBRANCH   1  16
BRANCH   6  19
ATOM     19  S   UNL     1      -2.819   3.823   0.018  0.00  0.00    -0.096 S 
BRANCH  19  20
ATOM     20  C   UNL     1      -3.899   2.371   0.034  0.00  0.00    +0.171 C 
BRANCH  20  21
ATOM     21  C   UNL     1      -5.338   2.816   0.057  0.00  0.00    +0.228 C 
ATOM     22  O   UNL     1      -5.608   3.999   0.062  0.00  0.00    -0.275 OA
ATOM     23  N   UNL     1      -6.327   1.900   0.072  0.00  0.00    -0.279 N 
ATOM     24  H   UNL     1      -6.114   0.956  -0.001  0.00  0.00    +0.155 HD
BRANCH  23  25
ATOM     25  C   UNL     1      -7.666   2.312   0.193  0.00  0.00    +0.118 A 
ATOM     26  C   UNL     1      -8.424   1.887   1.231  0.00  0.00    +0.044 A 
ATOM     27  N   UNL     1      -9.727   2.304   1.333  0.00  0.00    -0.310 N 
ATOM     28  H   UNL     1     -10.286   1.996   2.103  0.00  0.00    +0.170 HD
ATOM     29  C   UNL     1     -10.260   3.122   0.408  0.00  0.00    +0.327 A 
ATOM     30  O   UNL     1     -11.419   3.474   0.516  0.00  0.00    -0.247 OA
ATOM     31  N   UNL     1      -9.531   3.556  -0.637  0.00  0.00    -0.274 N 
ATOM     32  H   UNL     1      -9.945   4.164  -1.314  0.00  0.00    +0.173 HD
ATOM     33  C   UNL     1      -8.245   3.175  -0.775  0.00  0.00    +0.276 A 
ATOM     34  O   UNL     1      -7.586   3.569  -1.720  0.00  0.00    -0.266 OA
ATOM     35  C   UNL     1      -7.839   0.966   2.270  0.00  0.00    +0.065 C 
ENDBRANCH  23  25
ENDBRANCH  20  21
ENDBRANCH  19  20
ENDBRANCH   6  19
TORSDOF 5
