REMARK  Name = ZINC23648215
REMARK  15 active torsions:
REMARK  status: ('A' for Active; 'I' for Inactive)
REMARK    1  A    between atoms: C_1  and  C_2
REMARK    2  A    between atoms: C_2  and  C_3
REMARK    3  A    between atoms: C_3  and  C_5
REMARK    4  A    between atoms: C_3  and  C_6
REMARK    5  A    between atoms: C_11  and  N_12
REMARK    6  A    between atoms: C_13  and  C_15
REMARK    7  A    between atoms: C_15  and  C_17
REMARK    8  A    between atoms: C_15  and  S_18
REMARK    9  A    between atoms: S_18  and  C_19
REMARK   10  A    between atoms: C_23  and  C_25
REMARK   11  A    between atoms: C_25  and  C_26
REMARK   12  A    between atoms: C_25  and  C_27
REMARK   13  A    between atoms: C_25  and  C_28
REMARK   14  A    between atoms: N_29  and  C_36
REMARK   15  A    between atoms: N_32  and  C_35
REMARK                            x       y       z     vdW  Elec       q    Type
REMARK                         _______ _______ _______ _____ _____    ______ ____
ROOT
ATOM      1  C   UNL     1      -6.354  -1.034  -0.242  0.00  0.00    +0.116 A 
ATOM      2  C   UNL     1      -7.665  -0.692  -0.604  0.00  0.00    +0.114 A 
ATOM      3  C   UNL     1      -8.672  -1.671  -0.506  0.00  0.00    +0.154 A 
ATOM      4  N   UNL     1      -8.348  -2.878  -0.065  0.00  0.00    -0.213 NA
ATOM      5  C   UNL     1      -7.102  -3.158   0.270  0.00  0.00    +0.138 A 
ATOM      6  N   UNL     1      -6.127  -2.276   0.190  0.00  0.00    -0.224 NA
ATOM      7  N   UNL     1      -9.959  -1.336  -0.867  0.00  0.00    -0.281 N 
ATOM      8  C   UNL     1     -10.249  -0.094  -1.294  0.00  0.00    +0.333 A 
ATOM      9  O   UNL     1     -11.398   0.163  -1.598  0.00  0.00    -0.246 OA
ATOM     10  N   UNL     1      -9.324   0.872  -1.410  0.00  0.00    -0.263 N 
ATOM     11  C   UNL     1      -8.031   0.644  -1.086  0.00  0.00    +0.268 A 
ATOM     12  O   UNL     1      -7.195   1.521  -1.193  0.00  0.00    -0.267 OA
ATOM     13  C   UNL     1      -9.722   2.196  -1.895  0.00  0.00    +0.157 C 
ATOM     14  C   UNL     1     -11.024  -2.337  -0.768  0.00  0.00    +0.155 C 
ENDROOT
BRANCH   5  15
ATOM     15  C   UNL     1      -6.782  -4.544   0.766  0.00  0.00    +0.022 C 
ATOM     16  C   UNL     1      -5.290  -4.638   1.092  0.00  0.00    +0.019 C 
ATOM     17  C   UNL     1      -7.599  -4.837   2.026  0.00  0.00    +0.019 C 
ATOM     18  C   UNL     1      -7.132  -5.566  -0.318  0.00  0.00    +0.019 C 
ENDBRANCH   5  15
BRANCH   1  19
ATOM     19  S   UNL     1      -5.047   0.143  -0.348  0.00  0.00    -0.093 S 
BRANCH  19  20
ATOM     20  C   UNL     1      -3.666  -0.867   0.242  0.00  0.00    +0.136 C 
ATOM     21  C   UNL     1      -3.898  -1.243   1.707  0.00  0.00    +0.029 C 
BRANCH  20  23
ATOM     22  N   UNL     1      -1.207  -0.731   0.009  0.00  0.00    -0.284 N 
ATOM     23  C   UNL     1      -2.384  -0.084   0.122  0.00  0.00    +0.230 C 
ATOM     24  O   UNL     1      -2.411   1.129   0.128  0.00  0.00    -0.274 OA
ATOM     25  H   UNL     1      -1.189  -1.827  -0.088  0.00  0.00    +0.155 HD
BRANCH  22  31
ATOM     26  C   UNL     1       1.123  -0.535  -0.597  0.00  0.00    -0.023 A 
ATOM     27  C   UNL     1       2.305   0.180  -0.591  0.00  0.00    +0.006 A 
ATOM     28  C   UNL     1       2.362   1.418   0.021  0.00  0.00    +0.000 A 
ATOM     29  C   UNL     1       1.237   1.945   0.629  0.00  0.00    +0.002 A 
ATOM     30  C   UNL     1       0.053   1.235   0.627  0.00  0.00    +0.023 A 
ATOM     31  C   UNL     1      -0.008  -0.009   0.013  0.00  0.00    +0.037 A 
BRANCH  26  32
ATOM     32  C   UNL     1       1.062  -1.885  -1.264  0.00  0.00    +0.017 C 
ATOM     33  C   UNL     1       1.969  -2.865  -0.517  0.00  0.00    +0.012 C 
BRANCH  32  35
ATOM     34  C   UNL     1       1.351  -3.101  -3.427  0.00  0.00    +0.004 C 
ATOM     35  C   UNL     1       1.531  -1.759  -2.715  0.00  0.00    +0.004 C 
ENDBRANCH  32  35
ENDBRANCH  26  32
ENDBRANCH  22  31
ENDBRANCH  20  23
ENDBRANCH  19  20
ENDBRANCH   1  19
TORSDOF 7
