REMARK  Name = ZINC12490786
REMARK  6 active torsions:
REMARK  status: ('A' for Active; 'I' for Inactive)
REMARK    1  A    between atoms: C_4  and  C_7
REMARK    2  A    between atoms: C_12  and  N_13
REMARK    3  A    between atoms: C_14  and  C_16
REMARK    4  A    between atoms: N_21  and  S_23
REMARK    5  A    between atoms: S_23  and  C_26
REMARK    6  A    between atoms: C_29  and  N_32
REMARK                            x       y       z     vdW  Elec       q    Type
REMARK                         _______ _______ _______ _____ _____    ______ ____
ROOT
ATOM      1  C   UNL     1      -0.004   1.097   0.008  0.00  0.00    +0.091 C 
ATOM      2  C   UNL     1       1.428   1.637   0.004  0.00  0.00    +0.015 C 
ATOM      3  C   UNL     1       2.164   1.125  -1.237  0.00  0.00    +0.018 C 
ATOM      4  C   UNL     1       1.452   1.634  -2.494  0.00  0.00    +0.109 C 
ATOM      5  N   UNL     1       0.037   1.243  -2.427  0.00  0.00    -0.176 NA
ATOM      6  C   UNL     1      -0.741   1.606  -1.235  0.00  0.00    +0.122 C 
ENDROOT
BRANCH   1   8
ATOM      7  N   UNL     1      -0.244   1.247   2.465  0.00  0.00    -0.285 N 
ATOM      8  C   UNL     1      -0.718   1.575   1.247  0.00  0.00    +0.222 C 
ATOM      9  O   UNL     1      -1.718   2.253   1.147  0.00  0.00    -0.275 OA
ATOM     10  H   UNL     1       0.507   0.639   2.546  0.00  0.00    +0.155 HD
BRANCH   7  16
ATOM     11  C   UNL     1      -0.746   1.103   4.832  0.00  0.00    +0.003 A 
ATOM     12  C   UNL     1      -1.335   1.649   5.971  0.00  0.00    +0.010 A 
ATOM     13  C   UNL     1      -2.012   2.849   5.888  0.00  0.00    +0.001 A 
ATOM     14  C   UNL     1      -2.105   3.516   4.679  0.00  0.00    +0.002 A 
ATOM     15  C   UNL     1      -1.521   2.987   3.545  0.00  0.00    +0.024 A 
ATOM     16  C   UNL     1      -0.836   1.783   3.612  0.00  0.00    +0.041 A 
BRANCH  11  20
ATOM     17  C   UNL     1       1.329  -2.600   5.067  0.00  0.00    +0.000 A 
ATOM     18  C   UNL     1       1.611  -1.594   5.973  0.00  0.00    +0.001 A 
ATOM     19  C   UNL     1       0.940  -0.390   5.902  0.00  0.00    +0.008 A 
ATOM     20  C   UNL     1      -0.022  -0.188   4.914  0.00  0.00    -0.016 A 
ATOM     21  C   UNL     1      -0.305  -1.208   4.006  0.00  0.00    +0.008 A 
ATOM     22  C   UNL     1       0.376  -2.405   4.084  0.00  0.00    +0.001 A 
ENDBRANCH  11  20
ENDBRANCH   7  16
ENDBRANCH   1   8
BRANCH   5  23
ATOM     23  S   UNL     1      -0.667   0.408  -3.672  0.00  0.00    +0.061 S 
ATOM     24  O   UNL     1      -2.062   0.666  -3.596  0.00  0.00    -0.153 OA
ATOM     25  O   UNL     1       0.098   0.693  -4.836  0.00  0.00    -0.153 OA
BRANCH  23  26
ATOM     26  C   UNL     1      -0.452  -1.308  -3.336  0.00  0.00    +0.106 A 
ATOM     27  C   UNL     1       0.668  -1.968  -3.806  0.00  0.00    +0.030 A 
ATOM     28  C   UNL     1       0.842  -3.312  -3.540  0.00  0.00    +0.030 A 
ATOM     29  C   UNL     1      -0.115  -4.003  -2.809  0.00  0.00    +0.069 A 
ATOM     30  C   UNL     1      -1.242  -3.339  -2.343  0.00  0.00    +0.030 A 
ATOM     31  C   UNL     1      -1.407  -1.993  -2.608  0.00  0.00    +0.030 A 
BRANCH  29  32
ATOM     32  N   UNL     1       0.055  -5.369  -2.542  0.00  0.00    -0.200 N 
ATOM     33  C   UNL     1       1.086  -6.156  -2.920  0.00  0.00    +0.250 A 
ATOM     34  N   UNL     1       0.846  -7.357  -2.462  0.00  0.00    -0.116 NA
ATOM     35  N   UNL     1      -0.267  -7.383  -1.820  0.00  0.00    -0.023 NA
ATOM     36  N   UNL     1      -0.806  -6.212  -1.818  0.00  0.00    -0.039 NA
ENDBRANCH  29  32
ENDBRANCH  23  26
ENDBRANCH   5  23
TORSDOF 6
