REMARK  Name = ZINC22260913
REMARK  5 active torsions:
REMARK  status: ('A' for Active; 'I' for Inactive)
REMARK    1  A    between atoms: C_1  and  C_2
REMARK    2  A    between atoms: C_3  and  C_34
REMARK    3  A    between atoms: C_10  and  C_12
REMARK    4  A    between atoms: C_12  and  N_13
REMARK    5  A    between atoms: C_29  and  C_33
REMARK                            x       y       z     vdW  Elec       q    Type
REMARK                         _______ _______ _______ _____ _____    ______ ____
ROOT
ATOM      1  N   UNL     1      -0.002  -2.443   5.797  0.00  0.00    +0.386 N 
ATOM      2  C   UNL     1      -1.135  -1.527   5.976  0.00  0.00    -0.059 C 
ATOM      3  C   UNL     1      -0.973  -0.768   7.297  0.00  0.00    +0.088 C 
ATOM      4  N   UNL     1      -0.807  -1.748   8.381  0.00  0.00    -0.318 N 
ATOM      5  C   UNL     1       0.201  -2.806   8.211  0.00  0.00    +0.088 C 
ATOM      6  C   UNL     1      -0.017  -3.469   6.847  0.00  0.00    -0.059 C 
ATOM      7  C   UNL     1      -1.577  -1.677   9.528  0.00  0.00    +0.133 A 
ATOM      8  C   UNL     1      -1.194  -0.827  10.603  0.00  0.00    +0.051 A 
ATOM      9  C   UNL     1      -0.030   0.056  10.703  0.00  0.00    -0.025 A 
ATOM     10  C   UNL     1       0.104   0.764  11.842  0.00  0.00    -0.004 A 
ATOM     11  S   UNL     1      -1.290   0.307  12.838  0.00  0.00    -0.073 S 
ATOM     12  C   UNL     1      -2.054  -0.837  11.719  0.00  0.00    +0.114 A 
ATOM     13  N   UNL     1      -3.137  -1.589  11.748  0.00  0.00    -0.228 NA
ATOM     14  C   UNL     1      -3.441  -2.358  10.720  0.00  0.00    +0.224 A 
ATOM     15  N   UNL     1      -2.683  -2.395   9.639  0.00  0.00    -0.220 NA
ATOM     16  C   UNL     1       1.197   1.729  12.188  0.00  0.00    +0.046 C 
ATOM     17  C   UNL     1       1.956   2.083  10.901  0.00  0.00    -0.009 C 
ATOM     18  C   UNL     1       2.280   0.788  10.151  0.00  0.00    +0.008 C 
ATOM     19  C   UNL     1       0.996   0.183   9.580  0.00  0.00    +0.037 C 
ATOM     20  C   UNL     1       3.253   2.814  11.254  0.00  0.00    +0.008 C 
ATOM     21  H   UNL     1       0.861  -1.922   5.850  0.00  0.00    -0.081 HD
ENDROOT
BRANCH   1  22
ATOM     22  C   UNL     1      -0.101  -3.090   4.481  0.00  0.00    -0.003 C 
BRANCH  22  32
ATOM     23  C   UNL     1       0.611   2.178   0.391  0.00  0.00    +0.045 C 
ATOM     24  C   UNL     1       0.403   0.695   0.228  0.00  0.00    -0.026 A 
ATOM     25  C   UNL     1       0.324   0.150  -0.997  0.00  0.00    -0.008 A 
ATOM     26  S   UNL     1       0.081  -1.584  -0.660  0.00  0.00    -0.075 S 
ATOM     27  C   UNL     1       0.093  -1.522   1.111  0.00  0.00    +0.092 A 
ATOM     28  C   UNL     1       0.290  -0.164   1.392  0.00  0.00    +0.075 A 
ATOM     29  C   UNL     1       0.347   0.177   2.831  0.00  0.00    +0.282 A 
ATOM     30  O   UNL     1       0.511   1.333   3.188  0.00  0.00    -0.265 OA
ATOM     31  N   UNL     1       0.215  -0.803   3.737  0.00  0.00    -0.197 NA
ATOM     32  C   UNL     1       0.038  -2.050   3.399  0.00  0.00    +0.095 A 
ATOM     33  N   UNL     1      -0.034  -2.434   2.109  0.00  0.00    -0.339 N 
ATOM     34  C   UNL     1       0.419   0.839  -2.334  0.00  0.00    +0.052 C 
ATOM     35  H   UNL     1      -0.167  -3.370   1.892  0.00  0.00    +0.167 HD
ENDBRANCH  22  32
ENDBRANCH   1  22
TORSDOF 2
