REMARK  Name = ZINC40011172
REMARK  9 active torsions:
REMARK  status: ('A' for Active; 'I' for Inactive)
REMARK    1  A    between atoms: C_1  and  C_2
REMARK    2  A    between atoms: C_5  and  N_27
REMARK    3  A    between atoms: C_7  and  C_13
REMARK    4  A    between atoms: C_19  and  O_25
REMARK    5  A    between atoms: O_25  and  C_26
REMARK    6  A    between atoms: N_27  and  C_28
REMARK    7  A    between atoms: C_28  and  C_29
REMARK    8  A    between atoms: C_28  and  C_30
REMARK    9  A    between atoms: C_28  and  C_31
REMARK                            x       y       z     vdW  Elec       q    Type
REMARK                         _______ _______ _______ _____ _____    ______ ____
ROOT
ATOM      1  C   UNL     1      -0.425   0.978   2.473  0.00  0.00    +0.045 C 
ATOM      2  C   UNL     1      -0.791  -0.484   2.448  0.00  0.00    -0.036 C 
ATOM      3  C   UNL     1      -1.704  -0.935   1.564  0.00  0.00    +0.078 C 
ATOM      4  N   UNL     1      -2.049  -2.255   1.524  0.00  0.00    -0.304 N 
ATOM      5  C   UNL     1      -3.007  -2.962   0.658  0.00  0.00    +0.049 C 
ATOM      6  C   UNL     1      -2.914  -4.423   1.134  0.00  0.00    +0.126 C 
ATOM      7  N   UNL     1      -1.920  -4.385   2.211  0.00  0.00    -0.265 NA
ATOM      8  C   UNL     1      -1.476  -3.157   2.382  0.00  0.00    +0.119 C 
ATOM      9  C   UNL     1      -0.511  -2.691   3.319  0.00  0.00    +0.044 C 
ATOM     10  C   UNL     1      -0.175  -1.378   3.341  0.00  0.00    +0.008 C 
ENDROOT
BRANCH   6  11
ATOM     11  C   UNL     1      -2.440  -5.329  -0.004  0.00  0.00    +0.123 C 
ATOM     12  C   UNL     1      -1.067  -4.853  -0.436  0.00  0.00    -0.003 C 
ATOM     13  C   UNL     1      -0.912  -4.489  -1.738  0.00  0.00    -0.007 A 
ATOM     14  C   UNL     1       0.383  -4.018  -2.235  0.00  0.00    +0.013 A 
ATOM     15  C   UNL     1       0.499  -3.665  -3.537  0.00  0.00    +0.046 A 
ATOM     16  C   UNL     1      -0.593  -3.742  -4.414  0.00  0.00    +0.122 A 
ATOM     17  C   UNL     1      -1.835  -4.178  -4.005  0.00  0.00    +0.069 A 
ATOM     18  C   UNL     1      -2.049  -4.563  -2.675  0.00  0.00    +0.044 A 
ATOM     19  N   UNL     1      -3.257  -4.983  -2.290  0.00  0.00    -0.284 N 
ATOM     20  C   UNL     1      -3.527  -5.362  -1.054  0.00  0.00    +0.226 C 
ATOM     21  O   UNL     1      -4.647  -5.735  -0.762  0.00  0.00    -0.275 OA
ATOM     22  H   UNL     1      -3.968  -5.011  -2.949  0.00  0.00    +0.155 HD
BRANCH  16  23
ATOM     23  O   UNL     1      -0.421  -3.377  -5.707  0.00  0.00    -0.495 OA
ATOM     24  C   UNL     1       0.882  -2.932  -6.087  0.00  0.00    +0.277 C 
ENDBRANCH  16  23
ENDBRANCH   6  11
BRANCH   5  25
ATOM     25  N   UNL     1      -2.611  -2.849  -0.752  0.00  0.00    +0.396 N 
ATOM     26  H   UNL     1      -1.615  -2.993  -0.835  0.00  0.00    -0.082 HD
ATOM     27  H   UNL     1      -3.097  -3.546  -1.296  0.00  0.00    -0.082 HD
BRANCH  25  28
ATOM     28  C   UNL     1      -2.955  -1.511  -1.251  0.00  0.00    -0.074 C 
ATOM     29  C   UNL     1      -1.718  -0.612  -1.195  0.00  0.00    -0.011 C 
ATOM     30  C   UNL     1      -3.444  -1.616  -2.697  0.00  0.00    -0.011 C 
ATOM     31  C   UNL     1      -4.061  -0.911  -0.381  0.00  0.00    -0.011 C 
ENDBRANCH  25  28
ENDBRANCH   5  25
TORSDOF 4
