REMARK  Name = ZINC14805245
REMARK  8 active torsions:
REMARK  status: ('A' for Active; 'I' for Inactive)
REMARK    1  A    between atoms: C_1  and  C_2
REMARK    2  A    between atoms: N_10  and  N_14
REMARK    3  A    between atoms: C_15  and  C_17
REMARK    4  A    between atoms: C_17  and  S_18
REMARK    5  A    between atoms: S_18  and  C_19
REMARK    6  A    between atoms: C_22  and  C_31
REMARK    7  A    between atoms: N_23  and  C_24
REMARK    8  A    between atoms: C_24  and  C_25
REMARK                            x       y       z     vdW  Elec       q    Type
REMARK                         _______ _______ _______ _____ _____    ______ ____
ROOT
ATOM      1  C   UNL     1      -0.959  -5.106   0.326  0.00  0.00    +0.174 C 
ENDROOT
BRANCH   1   3
ATOM      2  N   UNL     1      -1.155  -7.564   0.512  0.00  0.00    -0.223 N 
ATOM      3  C   UNL     1      -1.773  -6.369   0.441  0.00  0.00    +0.240 C 
ATOM      4  O   UNL     1      -2.984  -6.309   0.470  0.00  0.00    -0.273 OA
ATOM      5  H   UNL     1      -0.186  -7.612   0.489  0.00  0.00    +0.174 HD
BRANCH   2  15
ATOM      6  C   UNL     1      -5.319 -14.321   0.564  0.00  0.00    +0.007 C 
ATOM      7  C   UNL     1      -4.442 -13.221  -0.039  0.00  0.00    -0.014 C 
ATOM      8  C   UNL     1      -5.174 -11.880   0.050  0.00  0.00    +0.006 C 
ATOM      9  C   UNL     1      -4.301 -10.782  -0.564  0.00  0.00    +0.035 C 
ATOM     10  C   UNL     1      -2.974 -10.707   0.182  0.00  0.00    +0.114 C 
ATOM     11  C   UNL     1      -2.244 -12.044   0.124  0.00  0.00    +0.035 C 
ATOM     12  C   UNL     1      -3.125 -13.137   0.735  0.00  0.00    +0.006 C 
ATOM     13  C   UNL     1      -2.108  -9.609  -0.392  0.00  0.00    +0.263 C 
ATOM     14  O   UNL     1      -1.681  -9.528  -1.524  0.00  0.00    -0.271 OA
ATOM     15  N   UNL     1      -1.912  -8.738   0.620  0.00  0.00    -0.137 N 
ATOM     16  C   UNL     1      -2.526  -9.138   1.740  0.00  0.00    +0.326 C 
ATOM     17  O   UNL     1      -2.490  -8.522   2.787  0.00  0.00    -0.251 OA
ATOM     18  N   UNL     1      -3.189 -10.299   1.576  0.00  0.00    -0.284 N 
ATOM     19  H   UNL     1      -3.704 -10.773   2.248  0.00  0.00    +0.151 HD
ENDBRANCH   2  15
ENDBRANCH   1   3
BRANCH   1  20
ATOM     20  S   UNL     1      -2.068  -3.677   0.251  0.00  0.00    -0.078 S 
BRANCH  20  21
ATOM     21  C   UNL     1      -0.885  -2.378   0.122  0.00  0.00    +0.170 A 
ATOM     22  N   UNL     1       0.420  -2.529   0.098  0.00  0.00    -0.230 NA
ATOM     23  C   UNL     1       1.010  -1.332  -0.012  0.00  0.00    +0.140 A 
ATOM     24  C   UNL     1       0.039  -0.382  -0.050  0.00  0.00    +0.069 A 
ATOM     25  N   UNL     1      -1.171  -1.050   0.032  0.00  0.00    -0.316 N 
BRANCH  24  26
ATOM     26  C   UNL     1       0.236   1.078  -0.162  0.00  0.00    +0.000 A 
ATOM     27  C   UNL     1       1.456   1.651   0.202  0.00  0.00    +0.010 A 
ATOM     28  C   UNL     1       1.634   3.014   0.089  0.00  0.00    +0.001 A 
ATOM     29  C   UNL     1       0.605   3.814  -0.373  0.00  0.00    +0.000 A 
ATOM     30  C   UNL     1      -0.609   3.254  -0.730  0.00  0.00    +0.001 A 
ATOM     31  C   UNL     1      -0.799   1.891  -0.628  0.00  0.00    +0.010 A 
ENDBRANCH  24  26
BRANCH  25  32
ATOM     32  C   UNL     1      -2.505  -0.443   0.023  0.00  0.00    +0.156 C 
BRANCH  32  33
ATOM     33  C   UNL     1      -3.043  -0.417  -1.409  0.00  0.00    +0.138 C 
ATOM     34  C   UNL     1      -4.441   0.238  -1.431  0.00  0.00    +0.035 C 
ATOM     35  C   UNL     1      -5.199  -0.640  -2.465  0.00  0.00    +0.031 C 
ATOM     36  C   UNL     1      -4.561  -2.027  -2.198  0.00  0.00    +0.160 C 
ATOM     37  O   UNL     1      -3.183  -1.755  -1.901  0.00  0.00    -0.375 OA
ENDBRANCH  32  33
ENDBRANCH  25  32
ENDBRANCH  20  21
ENDBRANCH   1  20
TORSDOF 7
