REMARK  Name = ZINC64502576
REMARK  12 active torsions:
REMARK  status: ('A' for Active; 'I' for Inactive)
REMARK    1  A    between atoms: C_1  and  C_2
REMARK    2  A    between atoms: C_8  and  C_11
REMARK    3  A    between atoms: C_11  and  C_12
REMARK    4  A    between atoms: C_12  and  N_13
REMARK    5  A    between atoms: C_14  and  C_16
REMARK    6  A    between atoms: C_16  and  C_17
REMARK    7  A    between atoms: C_23  and  C_25
REMARK    8  A    between atoms: C_27  and  C_38
REMARK    9  A    between atoms: C_29  and  C_34
REMARK   10  A    between atoms: C_31  and  C_33
REMARK   11  A    between atoms: C_34  and  O_36
REMARK   12  A    between atoms: O_36  and  C_37
REMARK                            x       y       z     vdW  Elec       q    Type
REMARK                         _______ _______ _______ _____ _____    ______ ____
ROOT
ATOM      1  C   UNL     1      -3.944  -2.483   8.300  0.00  0.00    +0.001 C 
ATOM      2  C   UNL     1      -4.534  -3.887   8.141  0.00  0.00    +0.023 C 
ATOM      3  C   UNL     1      -5.981  -3.888   8.643  0.00  0.00    +0.108 C 
ATOM      4  N   UNL     1      -6.005  -3.375  10.019  0.00  0.00    -0.297 N 
ATOM      5  C   UNL     1      -5.384  -2.073  10.299  0.00  0.00    +0.108 C 
ATOM      6  C   UNL     1      -3.943  -2.092   9.779  0.00  0.00    +0.023 C 
ATOM      7  C   UNL     1      -6.587  -4.085  11.006  0.00  0.00    +0.261 C 
ATOM      8  O   UNL     1      -7.172  -5.117  10.748  0.00  0.00    -0.269 OA
ENDROOT
BRANCH   7   9
ATOM      9  C   UNL     1      -6.511  -3.605  12.408  0.00  0.00    +0.101 C 
ATOM     10  N   UNL     1      -6.027  -2.480  12.758  0.00  0.00    -0.279 NA
ATOM     11  C   UNL     1      -6.080  -2.272  14.210  0.00  0.00    +0.117 C 
ATOM     12  C   UNL     1      -7.083  -3.328  14.731  0.00  0.00    +0.130 C 
ATOM     13  C   UNL     1      -7.005  -4.386  13.605  0.00  0.00    +0.055 C 
ATOM     14  C   UNL     1      -6.011  -5.488  13.976  0.00  0.00    +0.015 C 
ATOM     15  C   UNL     1      -6.579  -0.861  14.527  0.00  0.00    +0.033 C 
BRANCH  12  16
ATOM     16  C   UNL     1      -6.635  -3.899  16.052  0.00  0.00    +0.313 C 
ATOM     17  O   UNL     1      -5.463  -3.888  16.348  0.00  0.00    -0.250 OA
BRANCH  16  18
ATOM     18  O   UNL     1      -7.537  -4.419  16.899  0.00  0.00    -0.468 OA
ATOM     19  C   UNL     1      -7.041  -4.942  18.133  0.00  0.00    +0.280 C 
ENDBRANCH  16  18
ENDBRANCH  12  16
ENDBRANCH   7   9
BRANCH   1  20
ATOM     20  C   UNL     1      -2.509  -2.470   7.768  0.00  0.00    +0.099 C 
BRANCH  20  22
ATOM     21  N   UNL     1      -1.362  -2.769   5.597  0.00  0.00    -0.315 N 
ATOM     22  C   UNL     1      -2.521  -2.734   6.284  0.00  0.00    +0.213 C 
ATOM     23  O   UNL     1      -3.573  -2.915   5.709  0.00  0.00    -0.276 OA
ATOM     24  H   UNL     1      -0.521  -2.625   6.057  0.00  0.00    +0.149 HD
BRANCH  21  25
ATOM     25  C   UNL     1      -1.373  -3.026   4.155  0.00  0.00    +0.108 C 
BRANCH  25  26
ATOM     26  C   UNL     1       0.061  -3.013   3.623  0.00  0.00    +0.052 C 
BRANCH  26  34
ATOM     27  C   UNL     1       0.103   1.281  -0.018  0.00  0.00    +0.044 C 
ATOM     28  C   UNL     1       0.081  -0.226  -0.022  0.00  0.00    -0.050 A 
ATOM     29  C   UNL     1       0.064  -0.905  -1.248  0.00  0.00    +0.005 A 
ATOM     30  C   UNL     1       0.045  -2.252  -1.337  0.00  0.00    +0.026 A 
ATOM     31  C   UNL     1       0.040  -3.049  -0.159  0.00  0.00    +0.043 A 
ATOM     32  N   UNL     1       0.022  -4.348   0.016  0.00  0.00    -0.380 N 
ATOM     33  C   UNL     1       0.026  -4.626   1.456  0.00  0.00    +0.144 C 
ATOM     34  C   UNL     1       0.050  -3.277   2.139  0.00  0.00    -0.040 C 
ATOM     35  C   UNL     1       0.058  -2.356   1.149  0.00  0.00    -0.001 A 
ATOM     36  C   UNL     1       0.085  -0.888   1.157  0.00  0.00    +0.013 A 
ATOM     37  H   UNL     1       0.007  -5.014  -0.689  0.00  0.00    +0.160 HD
ENDBRANCH  26  34
ENDBRANCH  25  26
ENDBRANCH  21  25
ENDBRANCH  20  22
ENDBRANCH   1  20
TORSDOF 8
