REMARK  Name = ZINC16491524
REMARK  7 active torsions:
REMARK  status: ('A' for Active; 'I' for Inactive)
REMARK    1  A    between atoms: C_4  and  S_7
REMARK    2  A    between atoms: S_7  and  N_10
REMARK    3  A    between atoms: N_10  and  C_11
REMARK    4  A    between atoms: C_14  and  N_27
REMARK    5  A    between atoms: C_15  and  N_17
REMARK    6  A    between atoms: N_17  and  S_18
REMARK    7  A    between atoms: S_18  and  C_21
REMARK                            x       y       z     vdW  Elec       q    Type
REMARK                         _______ _______ _______ _____ _____    ______ ____
ROOT
ATOM      1  C   UNL     1       5.342   2.265  -2.842  0.00  0.00    +0.050 A 
ATOM      2  C   UNL     1       4.876   2.215  -4.150  0.00  0.00    +0.027 A 
ATOM      3  C   UNL     1       4.238   1.081  -4.614  0.00  0.00    +0.036 A 
ATOM      4  C   UNL     1       4.061  -0.006  -3.780  0.00  0.00    +0.149 A 
ATOM      5  C   UNL     1       4.524   0.037  -2.471  0.00  0.00    +0.080 A 
ATOM      6  C   UNL     1       5.160   1.177  -2.000  0.00  0.00    +0.051 A 
ENDROOT
BRANCH   4   7
ATOM      7  N   UNL     1       3.377  -1.219  -4.282  0.00  0.00    +0.058 N 
ATOM      8  O   UNL     1       2.970  -1.258  -5.430  0.00  0.00    -0.126 OA
ATOM      9  O   UNL     1       3.221  -2.178  -3.548  0.00  0.00    -0.126 OA
ENDBRANCH   4   7
BRANCH   1  10
ATOM     10  N   UNL     1       5.987   3.412  -2.373  0.00  0.00    -0.216 N 
ATOM     11  H   UNL     1       6.804   3.333  -1.857  0.00  0.00    +0.174 HD
BRANCH  10  12
ATOM     12  S   UNL     1       5.355   4.908  -2.698  0.00  0.00    +0.072 S 
ATOM     13  O   UNL     1       6.211   5.855  -2.073  0.00  0.00    -0.150 OA
ATOM     14  O   UNL     1       5.076   4.937  -4.091  0.00  0.00    -0.150 OA
BRANCH  12  18
ATOM     15  C   UNL     1       1.367   5.169  -0.573  0.00  0.00    +0.000 A 
ATOM     16  C   UNL     1       2.522   5.571   0.073  0.00  0.00    +0.002 A 
ATOM     17  C   UNL     1       3.740   5.491  -0.576  0.00  0.00    +0.029 A 
ATOM     18  C   UNL     1       3.803   5.010  -1.871  0.00  0.00    +0.108 A 
ATOM     19  C   UNL     1       2.647   4.614  -2.518  0.00  0.00    +0.029 A 
ATOM     20  C   UNL     1       1.430   4.689  -1.867  0.00  0.00    +0.002 A 
ENDBRANCH  12  18
ENDBRANCH  10  12
ENDBRANCH   1  10
BRANCH   5  21
ATOM     21  N   UNL     1       4.345  -1.062  -1.629  0.00  0.00    -0.214 N 
ATOM     22  H   UNL     1       4.408  -1.962  -1.986  0.00  0.00    +0.174 HD
BRANCH  21  23
ATOM     23  S   UNL     1       4.026  -0.830  -0.021  0.00  0.00    +0.072 S 
ATOM     24  O   UNL     1       4.976   0.116   0.449  0.00  0.00    -0.150 OA
ATOM     25  O   UNL     1       3.887  -2.121   0.556  0.00  0.00    -0.150 OA
BRANCH  23  26
ATOM     26  C   UNL     1       2.447  -0.056   0.090  0.00  0.00    +0.108 A 
ATOM     27  C   UNL     1       1.304  -0.828   0.185  0.00  0.00    +0.029 A 
ATOM     28  C   UNL     1       0.065  -0.221   0.273  0.00  0.00    +0.002 A 
ATOM     29  C   UNL     1      -0.031   1.158   0.265  0.00  0.00    +0.000 A 
ATOM     30  C   UNL     1       1.112   1.930   0.171  0.00  0.00    +0.002 A 
ATOM     31  C   UNL     1       2.351   1.323   0.083  0.00  0.00    +0.029 A 
ENDBRANCH  23  26
ENDBRANCH  21  23
ENDBRANCH   5  21
TORSDOF 7
