REMARK  Name = ZINC40895977
REMARK  7 active torsions:
REMARK  status: ('A' for Active; 'I' for Inactive)
REMARK    1  A    between atoms: C_4  and  C_7
REMARK    2  A    between atoms: C_10  and  O_13
REMARK    3  A    between atoms: O_13  and  C_14
REMARK    4  A    between atoms: C_14  and  C_15
REMARK    5  A    between atoms: C_15  and  O_17
REMARK    6  A    between atoms: O_17  and  C_18
REMARK    7  A    between atoms: C_23  and  C_29
REMARK                            x       y       z     vdW  Elec       q    Type
REMARK                         _______ _______ _______ _____ _____    ______ ____
ROOT
ATOM      1  O   UNL     1       8.852  -6.007  -0.128  0.00  0.00    -0.423 OA
ENDROOT
BRANCH   1   2
ATOM      2  C   UNL     1      10.125  -6.461  -0.247  0.00  0.00    +0.135 A 
ATOM      3  C   UNL     1      10.988  -6.399   0.847  0.00  0.00    +0.047 A 
ATOM      4  C   UNL     1      12.273  -6.840   0.741  0.00  0.00    +0.015 A 
ATOM      5  C   UNL     1      12.738  -7.351  -0.480  0.00  0.00    +0.019 A 
ATOM      6  C   UNL     1      14.081  -7.780  -0.615  0.00  0.00    +0.031 A 
ATOM      7  C   UNL     1      14.546  -8.088  -1.888  0.00  0.00    +0.121 A 
ATOM      8  C   UNL     1      13.609  -7.912  -3.012  0.00  0.00    +0.350 A 
ATOM      9  O   UNL     1      14.012  -7.705  -4.141  0.00  0.00    -0.244 OA
ATOM     10  O   UNL     1      12.285  -7.991  -2.744  0.00  0.00    -0.422 OA
ATOM     11  C   UNL     1      11.861  -7.443  -1.579  0.00  0.00    +0.143 A 
ATOM     12  C   UNL     1      10.558  -6.988  -1.454  0.00  0.00    +0.093 A 
BRANCH   7  13
ATOM     13  C   UNL     1      15.920  -8.570  -2.106  0.00  0.00    +0.248 C 
ATOM     14  O   UNL     1      16.673  -8.706  -1.161  0.00  0.00    -0.270 OA
ATOM     15  N   UNL     1      16.342  -8.861  -3.352  0.00  0.00    -0.325 N 
ATOM     16  H   UNL     1      15.742  -8.752  -4.106  0.00  0.00    +0.145 HD
ATOM     17  H   UNL     1      17.247  -9.179  -3.495  0.00  0.00    +0.145 HD
ENDBRANCH   7  13
ENDBRANCH   1   2
BRANCH   1  18
ATOM     18  C   UNL     1       8.651  -4.679  -0.154  0.00  0.00    +0.350 C 
ATOM     19  O   UNL     1       9.595  -3.926  -0.190  0.00  0.00    -0.247 OA
BRANCH  18  20
ATOM     20  C   UNL     1       7.248  -4.129  -0.137  0.00  0.00    +0.349 C 
BRANCH  20  21
ATOM     21  O   UNL     1       7.296  -2.701  -0.170  0.00  0.00    -0.481 OA
BRANCH  21  25
ATOM     22  C   UNL     1       3.683  -0.703  -0.142  0.00  0.00    -0.018 A 
ATOM     23  C   UNL     1       4.878   0.015  -0.182  0.00  0.00    +0.012 A 
ATOM     24  C   UNL     1       6.083  -0.656  -0.191  0.00  0.00    +0.046 A 
ATOM     25  C   UNL     1       6.107  -2.043  -0.161  0.00  0.00    +0.121 A 
ATOM     26  C   UNL     1       4.919  -2.760  -0.121  0.00  0.00    +0.046 A 
ATOM     27  C   UNL     1       3.711  -2.096  -0.106  0.00  0.00    +0.012 A 
BRANCH  22  31
ATOM     28  C   UNL     1      -0.037   1.355  -0.114  0.00  0.00    +0.000 A 
ATOM     29  C   UNL     1       1.145   2.071  -0.159  0.00  0.00    +0.001 A 
ATOM     30  C   UNL     1       2.356   1.408  -0.169  0.00  0.00    +0.008 A 
ATOM     31  C   UNL     1       2.385   0.015  -0.132  0.00  0.00    -0.018 A 
ATOM     32  C   UNL     1       1.190  -0.701  -0.087  0.00  0.00    +0.008 A 
ATOM     33  C   UNL     1      -0.015  -0.027  -0.078  0.00  0.00    +0.001 A 
ENDBRANCH  22  31
ENDBRANCH  21  25
ENDBRANCH  20  21
ENDBRANCH  18  20
ENDBRANCH   1  18
TORSDOF 7
