REMARK  Name = ZINC11616248
REMARK  4 active torsions:
REMARK  status: ('A' for Active; 'I' for Inactive)
REMARK    1  A    between atoms: N_9  and  C1*_10
REMARK    2  A    between atoms: C3*_13  and  O3*_20
REMARK    3  A    between atoms: C4*_15  and  C5*_18
REMARK    4  A    between atoms: C5*_18  and  O5*_19
REMARK                            x       y       z     vdW  Elec       q    Type
REMARK                         _______ _______ _______ _____ _____    ______ ____
ROOT
ATOM      1  C   UNL     1      -4.075  -0.481   0.018  0.00  0.00    +0.203 A 
ATOM      2  N   UNL     1      -2.778  -0.373   0.012  0.00  0.00    -0.231 NA
ATOM      3  C   UNL     1      -2.436   0.938   0.019  0.00  0.00    +0.147 A 
ATOM      4  C   UNL     1      -1.219   1.641   0.017  0.00  0.00    +0.149 A 
ATOM      5  N   UNL     1      -1.254   2.970   0.030  0.00  0.00    -0.201 NA
ATOM      6  C   UNL     1      -2.403   3.623   0.035  0.00  0.00    +0.226 A 
ATOM      7  N   UNL     1      -3.567   3.006   0.037  0.00  0.00    -0.198 NA
ATOM      8  C   UNL     1      -3.630   1.678   0.029  0.00  0.00    +0.169 A 
ATOM      9  N   UNL     1      -4.646   0.757   0.028  0.00  0.00    -0.288 N 
ATOM     10 CL   UNL     1      -2.377   5.359   0.046  0.00  0.00    -0.041 Cl
ATOM     11  N   UNL     1      -0.011   0.966   0.007  0.00  0.00    -0.341 N 
ATOM     12  H   UNL     1       0.055   0.391   0.823  0.00  0.00    +0.144 HD
ATOM     13  H   UNL     1       0.822   1.462   0.002  0.00  0.00    +0.144 HD
ENDROOT
BRANCH   9  14
ATOM     14  C1* UNL     1      -6.082   1.049   0.037  0.00  0.00    +0.225 C 
ATOM     15  C2* UNL     1      -6.562   1.269   1.485  0.00  0.00    +0.088 C 
ATOM     16  C3* UNL     1      -7.587   0.132   1.720  0.00  0.00    +0.150 C 
ATOM     17  C4* UNL     1      -7.187  -0.897   0.632  0.00  0.00    +0.175 C 
ATOM     18  O4* UNL     1      -6.812  -0.070  -0.491  0.00  0.00    -0.348 OA
BRANCH  16  19
ATOM     19  O3* UNL     1      -8.922   0.599   1.515  0.00  0.00    -0.389 OA
ATOM     20  H3* UNL     1      -9.188   1.308   2.115  0.00  0.00    +0.210 HD
ENDBRANCH  16  19
BRANCH  17  21
ATOM     21  C5* UNL     1      -8.376  -1.789   0.272  0.00  0.00    +0.190 C 
BRANCH  21  22
ATOM     22  O5* UNL     1      -7.952  -2.800  -0.645  0.00  0.00    -0.392 OA
ATOM     23  H5* UNL     1      -8.656  -3.405  -0.918  0.00  0.00    +0.210 HD
ENDBRANCH  21  22
ENDBRANCH  17  21
ENDBRANCH   9  14
TORSDOF 4
