REMARK  Name = ZINC22616917
REMARK  8 active torsions:
REMARK  status: ('A' for Active; 'I' for Inactive)
REMARK    1  A    between atoms: C_1  and  O_2
REMARK    2  A    between atoms: O_2  and  C_3
REMARK    3  A    between atoms: C_5  and  N_11
REMARK    4  A    between atoms: C_7  and  O_9
REMARK    5  A    between atoms: O_9  and  C_10
REMARK    6  A    between atoms: C_12  and  C_14
REMARK    7  A    between atoms: C_14  and  S_15
REMARK    8  A    between atoms: S_15  and  C_16
REMARK                            x       y       z     vdW  Elec       q    Type
REMARK                         _______ _______ _______ _____ _____    ______ ____
ROOT
ATOM      1  S   UNL     1      -0.968  -0.145  -0.080  0.00  0.00    -0.077 S 
ENDROOT
BRANCH   1   2
ATOM      2  C   UNL     1       0.531   0.781  -0.095  0.00  0.00    +0.191 A 
ATOM      3  N   UNL     1       1.694   0.139  -0.121  0.00  0.00    -0.207 NA
ATOM      4  C   UNL     1       2.850   0.779  -0.133  0.00  0.00    +0.129 A 
ATOM      5  C   UNL     1       2.858   2.202  -0.117  0.00  0.00    +0.051 A 
ATOM      6  C   UNL     1       4.006   3.111  -0.124  0.00  0.00    -0.025 A 
ATOM      7  C   UNL     1       3.740   4.433  -0.107  0.00  0.00    -0.004 A 
ATOM      8  S   UNL     1       1.971   4.548  -0.079  0.00  0.00    -0.073 S 
ATOM      9  C   UNL     1       1.590   2.816  -0.090  0.00  0.00    +0.115 A 
ATOM     10  N   UNL     1       0.478   2.106  -0.080  0.00  0.00    -0.214 NA
ATOM     11  C   UNL     1       4.729   5.558  -0.110  0.00  0.00    +0.043 C 
ATOM     12  C   UNL     1       6.112   4.989   0.240  0.00  0.00    +0.005 C 
ATOM     13  C   UNL     1       6.360   3.742  -0.614  0.00  0.00    +0.005 C 
ATOM     14  C   UNL     1       5.446   2.607  -0.152  0.00  0.00    +0.037 C 
ATOM     15  N   UNL     1       4.040   0.074  -0.160  0.00  0.00    -0.343 N 
ATOM     16  H   UNL     1       4.999   0.613  -0.170  0.00  0.00    +0.144 HD
ATOM     17  H   UNL     1       4.027  -1.026  -0.172  0.00  0.00    +0.144 HD
ENDBRANCH   1   2
BRANCH   1  18
ATOM     18  C   UNL     1      -0.299  -1.827  -0.109  0.00  0.00    +0.173 C 
BRANCH  18  20
ATOM     19  N   UNL     1      -1.173  -4.141  -0.120  0.00  0.00    -0.285 N 
ATOM     20  C   UNL     1      -1.433  -2.818  -0.101  0.00  0.00    +0.227 C 
ATOM     21  O   UNL     1      -2.581  -2.427  -0.077  0.00  0.00    -0.275 OA
ATOM     22  H   UNL     1      -0.135  -4.497  -0.050  0.00  0.00    +0.155 HD
BRANCH  19  25
ATOM     23  C   UNL     1      -4.380  -5.661  -1.098  0.00  0.00    +0.125 A 
ATOM     24  C   UNL     1      -3.340  -4.750  -0.992  0.00  0.00    +0.069 A 
ATOM     25  C   UNL     1      -2.223  -5.059  -0.228  0.00  0.00    +0.040 A 
ATOM     26  C   UNL     1      -2.145  -6.282   0.424  0.00  0.00    +0.069 A 
ATOM     27  C   UNL     1      -3.188  -7.190   0.322  0.00  0.00    +0.125 A 
ATOM     28  C   UNL     1      -4.304  -6.880  -0.442  0.00  0.00    +0.091 A 
BRANCH  23  30
ATOM     29  C   UNL     1      -6.507  -6.343  -1.911  0.00  0.00    +0.277 C 
ATOM     30  O   UNL     1      -5.474  -5.358  -1.846  0.00  0.00    -0.495 OA
ENDBRANCH  23  30
BRANCH  27  31
ATOM     31  O   UNL     1      -3.115  -8.384   0.965  0.00  0.00    -0.495 OA
ATOM     32  C   UNL     1      -4.223  -9.274   0.810  0.00  0.00    +0.277 C 
ENDBRANCH  27  31
ENDBRANCH  19  25
ENDBRANCH  18  20
ENDBRANCH   1  18
TORSDOF 6
