REMARK  Name = ZINC09473456
REMARK  13 active torsions:
REMARK  status: ('A' for Active; 'I' for Inactive)
REMARK    1  A    between atoms: C_1  and  C_2
REMARK    2  A    between atoms: C_2  and  C_3
REMARK    3  A    between atoms: C_2  and  C_4
REMARK    4  A    between atoms: C_4  and  C_5
REMARK    5  A    between atoms: C_5  and  N_6
REMARK    6  A    between atoms: C_7  and  C_9
REMARK    7  A    between atoms: C_9  and  S_10
REMARK    8  A    between atoms: S_10  and  C_11
REMARK    9  A    between atoms: N_21  and  C_22
REMARK   10  A    between atoms: C_22  and  C_23
REMARK   11  A    between atoms: C_26  and  C_29
REMARK   12  A    between atoms: N_31  and  C_32
REMARK   13  A    between atoms: C_32  and  C_33
REMARK                            x       y       z     vdW  Elec       q    Type
REMARK                         _______ _______ _______ _____ _____    ______ ____
ROOT
ATOM      1  C   UNL     1       0.002  -0.004   0.002  0.00  0.00    +0.173 A 
ATOM      2  N   UNL     1       1.110  -0.704  -0.012  0.00  0.00    -0.223 NA
ATOM      3  C   UNL     1       2.320  -0.111  -0.021  0.00  0.00    +0.079 A 
ATOM      4  C   UNL     1       3.502  -0.858  -0.036  0.00  0.00    +0.028 A 
ATOM      5  C   UNL     1       4.708  -0.215  -0.043  0.00  0.00    +0.002 A 
ATOM      6  C   UNL     1       4.779   1.172  -0.037  0.00  0.00    +0.001 A 
ATOM      7  C   UNL     1       3.640   1.930  -0.022  0.00  0.00    +0.015 A 
ATOM      8  C   UNL     1       2.396   1.301  -0.014  0.00  0.00    +0.065 A 
ATOM      9  C   UNL     1       1.141   2.063   0.002  0.00  0.00    +0.262 A 
ATOM     10  O   UNL     1       1.141   3.281   0.008  0.00  0.00    -0.267 OA
ATOM     11  N   UNL     1      -0.016   1.361   0.009  0.00  0.00    -0.287 N 
ENDROOT
BRANCH   1  12
ATOM     12  S   UNL     1      -1.535  -0.865   0.013  0.00  0.00    -0.078 S 
BRANCH  12  13
ATOM     13  C   UNL     1      -0.939  -2.574  -0.002  0.00  0.00    +0.173 C 
BRANCH  13  15
ATOM     14  N   UNL     1      -1.910  -4.848  -0.005  0.00  0.00    -0.315 N 
ATOM     15  C   UNL     1      -2.115  -3.516   0.004  0.00  0.00    +0.223 C 
ATOM     16  O   UNL     1      -3.245  -3.076   0.018  0.00  0.00    -0.275 OA
ATOM     17  H   UNL     1      -1.007  -5.201  -0.016  0.00  0.00    +0.149 HD
BRANCH  14  18
ATOM     18  C   UNL     1      -3.053  -5.765   0.002  0.00  0.00    +0.104 C 
BRANCH  18  19
ATOM     19  C   UNL     1      -2.549  -7.209  -0.011  0.00  0.00    +0.022 C 
BRANCH  19  21
ATOM     20  C   UNL     1      -4.535  -8.003  -1.303  0.00  0.00    +0.007 C 
ATOM     21  C   UNL     1      -3.743  -8.166  -0.004  0.00  0.00    -0.016 C 
ATOM     22  C   UNL     1      -3.241  -9.607   0.109  0.00  0.00    +0.007 C 
ENDBRANCH  19  21
ENDBRANCH  18  19
ENDBRANCH  14  18
ENDBRANCH  13  15
ENDBRANCH  12  13
ENDBRANCH   1  12
BRANCH  11  23
ATOM     23  C   UNL     1      -1.298   2.072   0.019  0.00  0.00    +0.131 C 
BRANCH  23  24
ATOM     24  C   UNL     1      -1.737   2.311   1.465  0.00  0.00    +0.009 C 
ATOM     25  C   UNL     1      -2.014   0.968   2.143  0.00  0.00    +0.006 C 
ATOM     26  C   UNL     1      -2.453   1.207   3.589  0.00  0.00    +0.013 C 
ATOM     27  C   UNL     1      -3.725   2.056   3.602  0.00  0.00    +0.075 C 
ATOM     28  C   UNL     1      -3.449   3.399   2.924  0.00  0.00    +0.013 C 
ATOM     29  C   UNL     1      -3.010   3.160   1.478  0.00  0.00    +0.006 C 
BRANCH  27  30
ATOM     30  C   UNL     1      -4.819   1.333   2.858  0.00  0.00    +0.216 C 
ATOM     31  O   UNL     1      -5.327   1.843   1.881  0.00  0.00    -0.276 OA
ATOM     32  N   UNL     1      -5.232   0.121   3.277  0.00  0.00    -0.308 N 
ATOM     33  H   UNL     1      -4.826  -0.286   4.058  0.00  0.00    +0.149 HD
BRANCH  32  34
ATOM     34  C   UNL     1      -6.295  -0.582   2.554  0.00  0.00    +0.178 C 
BRANCH  34  35
ATOM     35  C   UNL     1      -6.567  -1.905   3.222  0.00  0.00    +0.122 A 
ATOM     36  C   UNL     1      -7.457  -2.120   4.208  0.00  0.00    +0.046 A 
ATOM     37  C   UNL     1      -7.384  -3.494   4.532  0.00  0.00    +0.041 A 
ATOM     38  C   UNL     1      -6.454  -4.036   3.726  0.00  0.00    +0.195 A 
ATOM     39  O   UNL     1      -5.967  -3.070   2.930  0.00  0.00    -0.466 OA
ENDBRANCH  34  35
ENDBRANCH  32  34
ENDBRANCH  27  30
ENDBRANCH  23  24
ENDBRANCH  11  23
TORSDOF 11
