REMARK  Name = ZINC09728078
REMARK  6 active torsions:
REMARK  status: ('A' for Active; 'I' for Inactive)
REMARK    1  A    between atoms: C_7  and  C_12
REMARK    2  A    between atoms: C_12  and  C_13
REMARK    3  A    between atoms: N_15  and  C_16
REMARK    4  A    between atoms: C_21  and  C_22
REMARK    5  A    between atoms: N_24  and  C_25
REMARK    6  A    between atoms: C_25  and  C_26
REMARK                            x       y       z     vdW  Elec       q    Type
REMARK                         _______ _______ _______ _____ _____    ______ ____
ROOT
ATOM      1  C   UNL     1       1.327  -5.853  -3.324  0.00  0.00    +0.046 A 
ATOM      2  C   UNL     1       1.313  -6.301  -4.638  0.00  0.00    +0.024 A 
ATOM      3  C   UNL     1       1.184  -5.399  -5.674  0.00  0.00    +0.002 A 
ATOM      4  C   UNL     1       1.067  -4.043  -5.414  0.00  0.00    +0.001 A 
ATOM      5  C   UNL     1       1.074  -3.581  -4.115  0.00  0.00    +0.015 A 
ATOM      6  C   UNL     1       1.209  -4.481  -3.056  0.00  0.00    +0.058 A 
ENDROOT
BRANCH   1   9
ATOM      7  C   UNL     1       2.226  -7.858  -2.426  0.00  0.00    +0.221 C 
ATOM      8  O   UNL     1       2.880  -8.006  -3.437  0.00  0.00    -0.275 OA
ATOM      9  N   UNL     1       1.457  -6.762  -2.276  0.00  0.00    -0.285 N 
ATOM     10  H   UNL     1       0.994  -6.605  -1.438  0.00  0.00    +0.155 HD
BRANCH   7  11
ATOM     11  C   UNL     1       2.273  -8.901  -1.339  0.00  0.00    +0.145 C 
BRANCH  11  18
ATOM     12  C   UNL     1       3.776 -12.096   1.454  0.00  0.00    +0.000 A 
ATOM     13  C   UNL     1       3.315 -13.301   0.954  0.00  0.00    +0.001 A 
ATOM     14  C   UNL     1       2.862 -13.388  -0.346  0.00  0.00    +0.015 A 
ATOM     15  C   UNL     1       2.869 -12.254  -1.160  0.00  0.00    +0.066 A 
ATOM     16  C   UNL     1       3.337 -11.042  -0.645  0.00  0.00    +0.007 A 
ATOM     17  C   UNL     1       3.786 -10.967   0.653  0.00  0.00    +0.008 A 
ATOM     18  C   UNL     1       3.213 -10.033  -1.758  0.00  0.00    +0.216 C 
ATOM     19  O   UNL     1       2.660 -10.744  -2.899  0.00  0.00    -0.453 OA
ATOM     20  C   UNL     1       2.459 -12.028  -2.558  0.00  0.00    +0.340 C 
ATOM     21  O   UNL     1       2.005 -12.880  -3.296  0.00  0.00    -0.245 OA
ENDBRANCH  11  18
ENDBRANCH   7  11
ENDBRANCH   1   9
BRANCH   6  22
ATOM     22  C   UNL     1       1.222  -3.993  -1.664  0.00  0.00    +0.246 C 
ATOM     23  O   UNL     1       1.244  -4.785  -0.742  0.00  0.00    -0.270 OA
ATOM     24  N   UNL     1       1.209  -2.668  -1.415  0.00  0.00    -0.307 N 
ATOM     25  H   UNL     1       1.192  -2.036  -2.150  0.00  0.00    +0.149 HD
BRANCH  24  26
ATOM     26  C   UNL     1       1.222  -2.183  -0.032  0.00  0.00    +0.140 C 
BRANCH  26  27
ATOM     27  C   UNL     1       1.204  -0.676  -0.029  0.00  0.00    -0.027 A 
ATOM     28  C   UNL     1      -0.003  -0.001  -0.011  0.00  0.00    +0.009 A 
ATOM     29  C   UNL     1      -0.024   1.381  -0.007  0.00  0.00    +0.050 A 
ATOM     30  C   UNL     1       1.164   2.093  -0.021  0.00  0.00    +0.166 A 
ATOM     31  C   UNL     1       2.379   1.413  -0.039  0.00  0.00    +0.167 A 
ATOM     32  C   UNL     1       2.393   0.028  -0.042  0.00  0.00    +0.054 A 
ATOM     33  O   UNL     1       3.392   2.329  -0.050  0.00  0.00    -0.453 OA
ATOM     34  C   UNL     1       2.783   3.570  -0.450  0.00  0.00    +0.466 C 
ATOM     35  O   UNL     1       1.415   3.435  -0.020  0.00  0.00    -0.453 OA
ENDBRANCH  26  27
ENDBRANCH  24  26
ENDBRANCH   6  22
TORSDOF 6
