REMARK  Name = ZINC40014610
REMARK  14 active torsions:
REMARK  status: ('A' for Active; 'I' for Inactive)
REMARK    1  A    between atoms: C_1  and  C_2
REMARK    2  A    between atoms: C_2  and  C_3
REMARK    3  A    between atoms: C_3  and  C_4
REMARK    4  A    between atoms: C_4  and  N_5
REMARK    5  A    between atoms: N_5  and  C_6
REMARK    6  A    between atoms: N_5  and  C_10
REMARK    7  A    between atoms: C_6  and  C_7
REMARK    8  A    between atoms: C_7  and  C_8
REMARK    9  A    between atoms: C_8  and  C_9
REMARK   10  A    between atoms: C_10  and  C_11
REMARK   11  A    between atoms: C_11  and  C_12
REMARK   12  A    between atoms: C_12  and  N_13
REMARK   13  A    between atoms: C_14  and  C_30
REMARK   14  A    between atoms: C_33  and  O_36
REMARK                            x       y       z     vdW  Elec       q    Type
REMARK                         _______ _______ _______ _____ _____    ______ ____
ROOT
ATOM      1  N   UNL     1      -5.729  -6.638   0.103  0.00  0.00    -0.284 N 
ATOM      2  C   UNL     1      -6.686  -6.786   1.212  0.00  0.00    +0.144 C 
ATOM      3  C   UNL     1      -7.943  -7.310   0.598  0.00  0.00    +0.072 A 
ATOM      4  C   UNL     1      -9.235  -7.664   1.194  0.00  0.00    +0.199 A 
ATOM      5  O   UNL     1      -9.531  -7.404   2.347  0.00  0.00    -0.287 OA
ATOM      6  C   UNL     1     -10.148  -8.370   0.259  0.00  0.00    +0.066 A 
ATOM      7  C   UNL     1     -11.328  -8.947   0.727  0.00  0.00    +0.035 A 
ATOM      8  C   UNL     1     -12.161  -9.602  -0.154  0.00  0.00    +0.042 A 
ATOM      9  C   UNL     1     -11.823  -9.687  -1.499  0.00  0.00    +0.023 A 
ATOM     10  C   UNL     1     -10.662  -9.120  -1.971  0.00  0.00    +0.048 A 
ATOM     11  C   UNL     1      -9.803  -8.449  -1.100  0.00  0.00    +0.140 A 
ATOM     12  O   UNL     1      -8.673  -7.892  -1.592  0.00  0.00    -0.450 OA
ATOM     13  C   UNL     1      -7.726  -7.444  -0.744  0.00  0.00    +0.199 A 
ATOM     14  C   UNL     1      -6.345  -7.020  -1.034  0.00  0.00    +0.283 C 
ATOM     15  O   UNL     1      -5.835  -7.016  -2.137  0.00  0.00    -0.267 OA
ATOM     16 CL   UNL     1     -13.633 -10.323   0.417  0.00  0.00    -0.084 Cl
ENDROOT
BRANCH   2  17
ATOM     17  C   UNL     1      -6.156  -7.764   2.229  0.00  0.00    -0.022 A 
ATOM     18  C   UNL     1      -5.499  -8.906   1.811  0.00  0.00    +0.009 A 
ATOM     19  C   UNL     1      -5.012  -9.804   2.741  0.00  0.00    +0.046 A 
ATOM     20  C   UNL     1      -5.183  -9.558   4.096  0.00  0.00    +0.117 A 
ATOM     21  C   UNL     1      -5.842  -8.411   4.513  0.00  0.00    +0.046 A 
ATOM     22  C   UNL     1      -6.322  -7.514   3.578  0.00  0.00    +0.009 A 
BRANCH  20  23
ATOM     23  O   UNL     1      -4.705 -10.440   5.013  0.00  0.00    -0.507 OA
ATOM     24  H   UNL     1      -3.798 -10.260   5.297  0.00  0.00    +0.292 HD
ENDBRANCH  20  23
ENDBRANCH   2  17
BRANCH   1  25
ATOM     25  C   UNL     1      -4.351  -6.154   0.214  0.00  0.00    +0.107 C 
BRANCH  25  26
ATOM     26  C   UNL     1      -4.329  -4.633   0.047  0.00  0.00    +0.000 C 
BRANCH  26  27
ATOM     27  C   UNL     1      -2.889  -4.128   0.163  0.00  0.00    -0.077 C 
BRANCH  27  28
ATOM     28  N   UNL     1      -2.855  -2.684  -0.101  0.00  0.00    +0.380 N 
ATOM     29  H   UNL     1      -3.280  -2.495  -0.996  0.00  0.00    -0.082 HD
BRANCH  28  30
ATOM     30  C   UNL     1      -3.595  -1.975   0.952  0.00  0.00    -0.079 C 
BRANCH  30  31
ATOM     31  C   UNL     1      -3.665  -0.485   0.611  0.00  0.00    -0.019 C 
BRANCH  31  33
ATOM     32  C   UNL     1      -4.506   1.742   1.367  0.00  0.00    +0.004 C 
ATOM     33  C   UNL     1      -4.436   0.253   1.708  0.00  0.00    -0.005 C 
ENDBRANCH  31  33
ENDBRANCH  30  31
ENDBRANCH  28  30
BRANCH  28  34
ATOM     34  C   UNL     1      -1.460  -2.222  -0.115  0.00  0.00    -0.079 C 
BRANCH  34  35
ATOM     35  C   UNL     1      -0.731  -2.836  -1.312  0.00  0.00    -0.019 C 
BRANCH  35  36
ATOM     36  C   UNL     1       0.733  -2.393  -1.299  0.00  0.00    -0.005 C 
ATOM     37  C   UNL     1       1.462  -3.007  -2.496  0.00  0.00    +0.004 C 
ENDBRANCH  35  36
ENDBRANCH  34  35
ENDBRANCH  28  34
ENDBRANCH  27  28
ENDBRANCH  26  27
ENDBRANCH  25  26
ENDBRANCH   1  25
TORSDOF 12
