REMARK  Name = ZINC14011586
REMARK  9 active torsions:
REMARK  status: ('A' for Active; 'I' for Inactive)
REMARK    1  A    between atoms: C_4  and  C_7
REMARK    2  A    between atoms: C_7  and  C_8
REMARK    3  A    between atoms: C_8  and  O_9
REMARK    4  A    between atoms: O_9  and  C_10
REMARK    5  A    between atoms: C_10  and  C_12
REMARK    6  A    between atoms: C_12  and  C_13
REMARK    7  A    between atoms: N_20  and  C_21
REMARK    8  A    between atoms: C_21  and  N_23
REMARK    9  A    between atoms: C_24  and  C_26
REMARK                            x       y       z     vdW  Elec       q    Type
REMARK                         _______ _______ _______ _____ _____    ______ ____
ROOT
ATOM      1  C   UNL     1      -2.862  -7.982   0.094  0.00  0.00    +0.171 C 
ATOM      2  C   UNL     1      -2.592  -9.008   1.155  0.00  0.00    +0.234 C 
ATOM      3  O   UNL     1      -3.483  -9.770   1.463  0.00  0.00    -0.274 OA
ATOM      4  N   UNL     1      -1.417  -9.118   1.777  0.00  0.00    -0.312 N 
ATOM      5  C   UNL     1      -0.288  -8.220   1.577  0.00  0.00    +0.123 C 
ATOM      6  C   UNL     1      -0.399  -7.501   0.231  0.00  0.00    +0.126 C 
ATOM      7  N   UNL     1      -1.774  -6.992   0.093  0.00  0.00    -0.299 N 
ATOM      8  H   UNL     1      -1.307  -9.847   2.407  0.00  0.00    +0.149 HD
ENDROOT
BRANCH   7   9
ATOM      9  C   UNL     1      -2.026  -5.673  -0.022  0.00  0.00    +0.140 C 
ATOM     10  S   UNL     1      -0.729  -4.563  -0.151  0.00  0.00    -0.018 S 
BRANCH   9  11
ATOM     11  N   UNL     1      -3.298  -5.229  -0.037  0.00  0.00    -0.263 N 
ATOM     12  C   UNL     1      -3.549  -3.905  -0.048  0.00  0.00    +0.258 C 
ATOM     13  O   UNL     1      -2.627  -3.111  -0.044  0.00  0.00    -0.269 OA
ATOM     14  H   UNL     1      -4.033  -5.862  -0.041  0.00  0.00    +0.157 HD
BRANCH  12  15
ATOM     15  C   UNL     1      -4.934  -3.421  -0.064  0.00  0.00    +0.094 A 
ATOM     16  C   UNL     1      -5.383  -2.136  -0.076  0.00  0.00    +0.068 A 
ATOM     17  C   UNL     1      -6.767  -1.877  -0.091  0.00  0.00    +0.008 A 
ATOM     18  C   UNL     1      -7.425  -0.621  -0.106  0.00  0.00    +0.010 A 
ATOM     19  C   UNL     1      -8.781  -0.547  -0.120  0.00  0.00    +0.001 A 
ATOM     20  C   UNL     1      -9.573  -1.689  -0.120  0.00  0.00    +0.001 A 
ATOM     21  C   UNL     1      -8.973  -2.932  -0.106  0.00  0.00    +0.016 A 
ATOM     22  C   UNL     1      -7.598  -3.023  -0.092  0.00  0.00    +0.021 A 
ATOM     23  S   UNL     1      -6.444  -4.372  -0.073  0.00  0.00    -0.082 S 
ATOM     24 CL   UNL     1      -4.253  -0.819  -0.074  0.00  0.00    -0.082 Cl
ENDBRANCH  12  15
ENDBRANCH   9  11
ENDBRANCH   7   9
BRANCH   1  25
ATOM     25  C   UNL     1      -2.930  -8.669  -1.272  0.00  0.00    +0.152 C 
BRANCH  25  26
ATOM     26  C   UNL     1      -3.340  -7.666  -2.319  0.00  0.00    +0.309 C 
ATOM     27  O   UNL     1      -3.677  -6.553  -1.990  0.00  0.00    -0.251 OA
BRANCH  26  28
ATOM     28  O   UNL     1      -3.330  -8.009  -3.617  0.00  0.00    -0.464 OA
BRANCH  28  29
ATOM     29  C   UNL     1      -3.737  -6.992  -4.570  0.00  0.00    +0.237 C 
BRANCH  29  30
ATOM     30  C   UNL     1      -3.662  -7.563  -5.988  0.00  0.00    +0.076 C 
BRANCH  30  34
ATOM     31  C   UNL     1      -4.859  -4.572  -8.793  0.00  0.00    +0.000 A 
ATOM     32  C   UNL     1      -3.530  -4.686  -8.428  0.00  0.00    +0.000 A 
ATOM     33  C   UNL     1      -3.143  -5.653  -7.520  0.00  0.00    +0.004 A 
ATOM     34  C   UNL     1      -4.084  -6.508  -6.977  0.00  0.00    -0.044 A 
ATOM     35  C   UNL     1      -5.412  -6.397  -7.346  0.00  0.00    +0.004 A 
ATOM     36  C   UNL     1      -5.800  -5.426  -8.250  0.00  0.00    +0.000 A 
ENDBRANCH  30  34
ENDBRANCH  29  30
ENDBRANCH  28  29
ENDBRANCH  26  28
ENDBRANCH  25  26
ENDBRANCH   1  25
TORSDOF 9
