REMARK  Name = ZINC33140873
REMARK  7 active torsions:
REMARK  status: ('A' for Active; 'I' for Inactive)
REMARK    1  A    between atoms: C_1  and  C_2
REMARK    2  A    between atoms: C_8  and  C_23
REMARK    3  A    between atoms: N_10  and  C_13
REMARK    4  A    between atoms: C_13  and  C_14
REMARK    5  A    between atoms: N_16  and  C_17
REMARK    6  A    between atoms: C_17  and  C_18
REMARK    7  A    between atoms: C_25  and  C_28
REMARK                            x       y       z     vdW  Elec       q    Type
REMARK                         _______ _______ _______ _____ _____    ______ ____
ROOT
ATOM      1  C   UNL     1      12.391   1.805  -0.107  0.00  0.00    +0.065 C 
ATOM      2  C   UNL     1      10.886   1.889  -0.092  0.00  0.00    +0.041 A 
ATOM      3  C   UNL     1      10.279   3.136  -0.080  0.00  0.00    +0.024 A 
ATOM      4  C   UNL     1       8.899   3.216  -0.066  0.00  0.00    +0.017 A 
ATOM      5  C   UNL     1       8.173   2.023  -0.065  0.00  0.00    +0.065 A 
ATOM      6  C   UNL     1       6.700   2.022  -0.051  0.00  0.00    +0.203 A 
ATOM      7  O   UNL     1       6.063   3.061  -0.040  0.00  0.00    -0.286 OA
ATOM      8  C   UNL     1       6.030   0.711  -0.051  0.00  0.00    +0.103 A 
ATOM      9  C   UNL     1       6.803  -0.428  -0.058  0.00  0.00    +0.105 A 
ATOM     10  N   UNL     1       8.145  -0.385  -0.075  0.00  0.00    -0.322 N 
ATOM     11  C   UNL     1       8.853   0.793  -0.077  0.00  0.00    +0.145 A 
ATOM     12  N   UNL     1      10.181   0.778  -0.090  0.00  0.00    -0.234 NA
ENDROOT
BRANCH   8  13
ATOM     13  C   UNL     1       4.559   0.621  -0.037  0.00  0.00    +0.264 A 
ATOM     14  N   UNL     1       3.707   1.631  -0.029  0.00  0.00    -0.187 NA
ATOM     15  C   UNL     1       2.481   1.069  -0.015  0.00  0.00    +0.202 A 
ATOM     16  N   UNL     1       2.646  -0.229  -0.023  0.00  0.00    -0.056 NA
ATOM     17  O   UNL     1       3.827  -0.505  -0.036  0.00  0.00    -0.332 OA
BRANCH  15  18
ATOM     18  C   UNL     1       1.184   1.790   0.000  0.00  0.00    +0.023 A 
ATOM     19  C   UNL     1      -0.013   1.076   0.008  0.00  0.00    +0.013 A 
ATOM     20  C   UNL     1      -1.216   1.751   0.017  0.00  0.00    +0.021 A 
ATOM     21  C   UNL     1      -1.236   3.135   0.030  0.00  0.00    +0.041 A 
ATOM     22  C   UNL     1      -0.050   3.849   0.022  0.00  0.00    +0.021 A 
ATOM     23  C   UNL     1       1.159   3.183   0.008  0.00  0.00    +0.013 A 
ATOM     24 CL   UNL     1      -2.753   3.978   0.048  0.00  0.00    -0.084 Cl
ENDBRANCH  15  18
ENDBRANCH   8  13
BRANCH  10  25
ATOM     25  C   UNL     1       8.886  -1.649  -0.089  0.00  0.00    +0.218 C 
BRANCH  25  26
ATOM     26  C   UNL     1       9.262  -2.026   1.321  0.00  0.00    +0.233 C 
ATOM     27  O   UNL     1       8.941  -1.309   2.246  0.00  0.00    -0.274 OA
ATOM     28  N   UNL     1       9.953  -3.159   1.554  0.00  0.00    -0.307 N 
ATOM     29  H   UNL     1      10.244  -3.808   0.715  0.00  0.00    +0.149 HD
BRANCH  28  30
ATOM     30  C   UNL     1      10.318  -3.525   2.925  0.00  0.00    +0.178 C 
BRANCH  30  31
ATOM     31  C   UNL     1      11.081  -4.825   2.911  0.00  0.00    +0.122 A 
ATOM     32  C   UNL     1      12.416  -4.953   2.801  0.00  0.00    +0.046 A 
ATOM     33  C   UNL     1      12.698  -6.338   2.832  0.00  0.00    +0.041 A 
ATOM     34  C   UNL     1      11.520  -6.973   2.958  0.00  0.00    +0.195 A 
ATOM     35  O   UNL     1      10.544  -6.052   3.011  0.00  0.00    -0.466 OA
ENDBRANCH  30  31
ENDBRANCH  28  30
ENDBRANCH  25  26
ENDBRANCH  10  25
TORSDOF 6
