REMARK  Name = ZINC39672925
REMARK  10 active torsions:
REMARK  status: ('A' for Active; 'I' for Inactive)
REMARK    1  A    between atoms: C_1  and  C_2
REMARK    2  A    between atoms: C_4  and  C_11
REMARK    3  A    between atoms: N_5  and  C_7
REMARK    4  A    between atoms: C_7  and  C_8
REMARK    5  A    between atoms: C_7  and  C_9
REMARK    6  A    between atoms: C_7  and  C_10
REMARK    7  A    between atoms: C_15  and  C_24
REMARK    8  A    between atoms: N_26  and  C_27
REMARK    9  A    between atoms: C_27  and  C_28
REMARK   10  A    between atoms: C_28  and  N_34
REMARK                            x       y       z     vdW  Elec       q    Type
REMARK                         _______ _______ _______ _____ _____    ______ ____
ROOT
ATOM      1  C   UNL     1      -2.569  -3.942  -2.919  0.00  0.00    +0.265 C 
ATOM      2  O   UNL     1      -3.057  -4.328  -3.964  0.00  0.00    -0.268 OA
ATOM      3  N   UNL     1      -2.067  -4.832  -2.040  0.00  0.00    -0.295 N 
ATOM      4  C   UNL     1      -1.545  -4.569  -0.678  0.00  0.00    +0.121 C 
ATOM      5  C   UNL     1      -2.046  -5.761   0.169  0.00  0.00    +0.100 C 
ATOM      6  C   UNL     1      -2.284  -6.891  -0.846  0.00  0.00    -0.004 C 
ATOM      7  C   UNL     1      -1.919  -6.297  -2.215  0.00  0.00    +0.115 C 
ATOM      8  C   UNL     1      -3.750  -7.312  -0.834  0.00  0.00    -0.010 C 
ATOM      9  C   UNL     1      -3.950  -8.475  -1.810  0.00  0.00    -0.082 C 
ATOM     10  N   UNL     1      -3.094  -9.600  -1.415  0.00  0.00    +0.379 N 
ATOM     11  C   UNL     1      -1.681  -9.215  -1.518  0.00  0.00    -0.082 C 
ATOM     12  C   UNL     1      -1.385  -8.083  -0.531  0.00  0.00    -0.010 C 
ATOM     13  H   UNL     1      -3.301  -9.861  -0.462  0.00  0.00    -0.086 HD
ATOM     14  H   UNL     1      -3.272 -10.386  -2.022  0.00  0.00    -0.086 HD
ENDROOT
BRANCH   1  18
ATOM     15  C   UNL     1      -1.581   0.568  -0.820  0.00  0.00    +0.067 C 
ATOM     16  C   UNL     1      -2.105  -0.528  -1.711  0.00  0.00    +0.061 A 
ATOM     17  C   UNL     1      -1.834  -1.893  -1.582  0.00  0.00    +0.057 A 
ATOM     18  C   UNL     1      -2.526  -2.503  -2.614  0.00  0.00    +0.124 A 
ATOM     19  N   UNL     1      -3.160  -1.502  -3.293  0.00  0.00    -0.254 N 
ATOM     20  N   UNL     1      -2.898  -0.372  -2.740  0.00  0.00    -0.175 NA
BRANCH  19  21
ATOM     21  C   UNL     1      -4.014  -1.688  -4.469  0.00  0.00    +0.056 C 
ATOM     22  C   UNL     1      -5.088  -2.733  -4.159  0.00  0.00    +0.036 C 
ATOM     23  C   UNL     1      -4.683  -0.360  -4.830  0.00  0.00    +0.036 C 
ATOM     24  C   UNL     1      -3.162  -2.167  -5.646  0.00  0.00    +0.036 C 
ENDBRANCH  19  21
ENDBRANCH   1  18
BRANCH   5  25
ATOM     25  C   UNL     1      -3.330  -5.403   0.870  0.00  0.00    +0.218 C 
ATOM     26  O   UNL     1      -4.118  -4.646   0.344  0.00  0.00    -0.275 OA
ATOM     27  N   UNL     1      -3.604  -5.925   2.082  0.00  0.00    -0.313 N 
ATOM     28  H   UNL     1      -2.944  -6.472   2.535  0.00  0.00    +0.149 HD
BRANCH  27  29
ATOM     29  C   UNL     1      -4.899  -5.665   2.716  0.00  0.00    +0.126 C 
BRANCH  29  30
ATOM     30  C   UNL     1      -4.881  -6.196   4.151  0.00  0.00    +0.038 C 
ATOM     31  C   UNL     1      -4.492  -7.676   4.142  0.00  0.00    +0.024 C 
ATOM     32  C   UNL     1      -5.512  -8.466   3.320  0.00  0.00    +0.002 C 
ATOM     33  C   UNL     1      -6.901  -8.307   3.940  0.00  0.00    +0.000 C 
ATOM     34  C   UNL     1      -7.290  -6.827   3.949  0.00  0.00    +0.002 C 
ATOM     35  C   UNL     1      -6.270  -6.037   4.771  0.00  0.00    +0.024 C 
BRANCH  30  36
ATOM     36  N   UNL     1      -3.902  -5.437   4.941  0.00  0.00    -0.291 NA
ATOM     37  C   UNL     1      -4.232  -4.005   4.954  0.00  0.00    +0.113 C 
ATOM     38  C   UNL     1      -3.224  -3.262   5.834  0.00  0.00    +0.175 C 
ATOM     39  O   UNL     1      -1.901  -3.509   5.348  0.00  0.00    -0.377 OA
ATOM     40  C   UNL     1      -1.546  -4.894   5.323  0.00  0.00    +0.175 C 
ATOM     41  C   UNL     1      -2.538  -5.653   4.437  0.00  0.00    +0.113 C 
ENDBRANCH  30  36
ENDBRANCH  29  30
ENDBRANCH  27  29
ENDBRANCH   5  25
TORSDOF 6
