REMARK  Name = ZINC38768264
REMARK  4 active torsions:
REMARK  status: ('A' for Active; 'I' for Inactive)
REMARK    1  A    between atoms: C_4  and  C_7
REMARK    2  A    between atoms: C_10  and  C_13
REMARK    3  A    between atoms: N_15  and  C_16
REMARK    4  A    between atoms: C_16  and  C_17
REMARK                            x       y       z     vdW  Elec       q    Type
REMARK                         _______ _______ _______ _____ _____    ______ ____
ROOT
ATOM      1  C   UNL     1       8.461  -6.300  -0.130  0.00  0.00    +0.233 C 
ATOM      2  O   UNL     1       7.324  -6.722  -0.124  0.00  0.00    -0.274 OA
ATOM      3  N   UNL     1       9.499  -7.159  -0.146  0.00  0.00    -0.300 N 
ATOM      4  C   UNL     1      10.882  -6.663  -0.148  0.00  0.00    +0.106 C 
ATOM      5  C   UNL     1      11.629  -7.289  -1.330  0.00  0.00    +0.009 C 
ATOM      6  C   UNL     1      11.505  -8.811  -1.259  0.00  0.00    -0.037 C 
ATOM      7  C   UNL     1      10.034  -9.216  -1.345  0.00  0.00    +0.009 C 
ATOM      8  C   UNL     1       9.269  -8.610  -0.158  0.00  0.00    +0.106 C 
ATOM      9  C   UNL     1      12.284  -9.444  -2.413  0.00  0.00    +0.140 C 
ATOM     10  C   UNL     1      13.748  -9.095  -2.163  0.00  0.00    +0.042 C 
ATOM     11  N   UNL     1      14.155  -8.501  -3.216  0.00  0.00    -0.243 NA
ATOM     12  C   UNL     1      13.149  -8.315  -4.107  0.00  0.00    +0.216 C 
ATOM     13  N   UNL     1      12.001  -8.819  -3.706  0.00  0.00    -0.264 NA
ATOM     14  C   UNL     1      14.400  -9.350  -0.828  0.00  0.00    +0.034 C 
ATOM     15  C   UNL     1      13.433  -8.785   0.230  0.00  0.00    -0.076 C 
ATOM     16  N   UNL     1      12.078  -9.293   0.006  0.00  0.00    +0.385 N 
ATOM     17  H   UNL     1      11.486  -8.996   0.768  0.00  0.00    -0.085 HD
ATOM     18  H   UNL     1      12.105 -10.302  -0.010  0.00  0.00    -0.085 HD
ENDROOT
BRANCH   1  19
ATOM     19  C   UNL     1       8.713  -4.814  -0.118  0.00  0.00    +0.200 C 
BRANCH  19  22
ATOM     20  C   UNL     1       7.412  -2.754  -0.088  0.00  0.00    +0.244 C 
ATOM     21  O   UNL     1       8.455  -2.130  -0.091  0.00  0.00    -0.270 OA
ATOM     22  N   UNL     1       7.433  -4.102  -0.101  0.00  0.00    -0.303 N 
ATOM     23  H   UNL     1       6.601  -4.600  -0.098  0.00  0.00    +0.150 HD
BRANCH  20  27
ATOM     24  C   UNL     1       3.698  -0.688  -0.038  0.00  0.00    -0.018 A 
ATOM     25  C   UNL     1       4.895   0.029  -0.041  0.00  0.00    +0.009 A 
ATOM     26  C   UNL     1       6.098  -0.639  -0.057  0.00  0.00    +0.013 A 
ATOM     27  C   UNL     1       6.121  -2.036  -0.070  0.00  0.00    +0.037 A 
ATOM     28  C   UNL     1       4.922  -2.753  -0.067  0.00  0.00    +0.013 A 
ATOM     29  C   UNL     1       3.720  -2.083  -0.046  0.00  0.00    +0.009 A 
BRANCH  24  33
ATOM     30  C   UNL     1      -0.017   1.379   0.010  0.00  0.00    +0.000 A 
ATOM     31  C   UNL     1       1.169   2.092   0.002  0.00  0.00    +0.001 A 
ATOM     32  C   UNL     1       2.377   1.427  -0.013  0.00  0.00    +0.008 A 
ATOM     33  C   UNL     1       2.402   0.033  -0.021  0.00  0.00    -0.018 A 
ATOM     34  C   UNL     1       1.205  -0.680  -0.013  0.00  0.00    +0.008 A 
ATOM     35  C   UNL     1       0.002  -0.004   0.002  0.00  0.00    +0.001 A 
ENDBRANCH  24  33
ENDBRANCH  20  27
ENDBRANCH  19  22
ENDBRANCH   1  19
TORSDOF 4
