REMARK  Name = ZINC19938198
REMARK  4 active torsions:
REMARK  status: ('A' for Active; 'I' for Inactive)
REMARK    1  A    between atoms: C_1  and  C_2
REMARK    2  A    between atoms: C_12  and  C_14
REMARK    3  A    between atoms: N_21  and  C_22
REMARK    4  A    between atoms: C_22  and  C_23
REMARK                            x       y       z     vdW  Elec       q    Type
REMARK                         _______ _______ _______ _____ _____    ______ ____
ROOT
ATOM      1  C   UNL     1       0.675   1.470   0.402  0.00  0.00    +0.066 C 
ATOM      2  C   UNL     1       0.512  -0.024   0.292  0.00  0.00    +0.047 C 
ATOM      3  C   UNL     1      -0.741  -0.569   0.313  0.00  0.00    +0.091 C 
ATOM      4  C   UNL     1      -0.873  -1.965   0.209  0.00  0.00    +0.249 C 
ATOM      5  O   UNL     1      -1.973  -2.493   0.223  0.00  0.00    -0.270 OA
ATOM      6  N   UNL     1       0.264  -2.717   0.090  0.00  0.00    -0.211 N 
ATOM      7  C   UNL     1       1.494  -2.115   0.074  0.00  0.00    +0.229 C 
ATOM      8  N   UNL     1       1.586  -0.792   0.170  0.00  0.00    -0.219 NA
ATOM      9  N   UNL     1       2.608  -2.847  -0.041  0.00  0.00    -0.183 NA
ATOM     10  C   UNL     1       2.621  -4.155  -0.146  0.00  0.00    +0.194 C 
ATOM     11  N   UNL     1       1.474  -4.896  -0.146  0.00  0.00    -0.335 N 
ATOM     12  C   UNL     1       0.191  -4.180  -0.022  0.00  0.00    +0.211 C 
ATOM     13  N   UNL     1       3.821  -4.796  -0.259  0.00  0.00    -0.308 N 
ATOM     14  H   UNL     1       3.849  -5.763  -0.337  0.00  0.00    +0.149 HD
ATOM     15  H   UNL     1       1.502  -5.863  -0.224  0.00  0.00    +0.164 HD
ENDROOT
BRANCH  12  16
ATOM     16  C   UNL     1      -0.523  -4.707   1.196  0.00  0.00    -0.007 A 
ATOM     17  C   UNL     1      -0.046  -4.407   2.459  0.00  0.00    +0.009 A 
ATOM     18  C   UNL     1      -0.700  -4.889   3.577  0.00  0.00    +0.020 A 
ATOM     19  C   UNL     1      -1.831  -5.673   3.432  0.00  0.00    +0.041 A 
ATOM     20  C   UNL     1      -2.308  -5.972   2.168  0.00  0.00    +0.020 A 
ATOM     21  C   UNL     1      -1.656  -5.484   1.051  0.00  0.00    +0.009 A 
ATOM     22 CL   UNL     1      -2.653  -6.279   4.836  0.00  0.00    -0.084 Cl
ENDBRANCH  12  16
BRANCH  13  23
ATOM     23  C   UNL     1       5.067  -4.025  -0.262  0.00  0.00    +0.178 C 
BRANCH  23  24
ATOM     24  C   UNL     1       6.238  -4.963  -0.397  0.00  0.00    +0.122 A 
ATOM     25  C   UNL     1       6.797  -5.362  -1.554  0.00  0.00    +0.046 A 
ATOM     26  C   UNL     1       7.859  -6.233  -1.217  0.00  0.00    +0.041 A 
ATOM     27  C   UNL     1       7.886  -6.313   0.126  0.00  0.00    +0.195 A 
ATOM     28  O   UNL     1       6.905  -5.538   0.617  0.00  0.00    -0.466 OA
ENDBRANCH  23  24
ENDBRANCH  13  23
TORSDOF 3
