REMARK  Name = ZINC23126685
REMARK  4 active torsions:
REMARK  status: ('A' for Active; 'I' for Inactive)
REMARK    1  A    between atoms: C_4  and  C_7
REMARK    2  A    between atoms: C_9  and  C_12
REMARK    3  A    between atoms: C_12  and  N_13
REMARK    4  A    between atoms: N_20  and  C_23
REMARK                            x       y       z     vdW  Elec       q    Type
REMARK                         _______ _______ _______ _____ _____    ______ ____
ROOT
ATOM      1  N   UNL     1       5.866  -4.162  -1.468  0.00  0.00    -0.214 N 
ATOM      2  C   UNL     1       7.034  -4.000  -2.318  0.00  0.00    +0.216 C 
ATOM      3  C   UNL     1       6.852  -5.367  -3.080  0.00  0.00    +0.246 C 
ATOM      4  C   UNL     1       8.139  -5.523  -3.715  0.00  0.00    +0.255 C 
ATOM      5  O   UNL     1       8.375  -6.041  -4.785  0.00  0.00    -0.272 OA
ATOM      6  N   UNL     1       9.039  -4.957  -2.845  0.00  0.00    -0.207 N 
ATOM      7  C   UNL     1       8.427  -4.244  -1.831  0.00  0.00    +0.251 C 
ATOM      8  O   UNL     1       8.905  -3.893  -0.773  0.00  0.00    -0.273 OA
ATOM      9  N   UNL     1       5.476  -5.469  -3.253  0.00  0.00    -0.156 NA
ATOM     10  N   UNL     1       4.934  -4.849  -2.291  0.00  0.00    -0.082 NA
ENDROOT
BRANCH   6  11
ATOM     11  C   UNL     1      10.429  -5.078  -2.975  0.00  0.00    +0.044 A 
ATOM     12  C   UNL     1      11.270  -4.478  -2.047  0.00  0.00    +0.024 A 
ATOM     13  C   UNL     1      12.638  -4.600  -2.179  0.00  0.00    +0.006 A 
ATOM     14  C   UNL     1      13.177  -5.317  -3.235  0.00  0.00    -0.044 A 
ATOM     15  C   UNL     1      12.342  -5.915  -4.161  0.00  0.00    -0.042 A 
ATOM     16  C   UNL     1      10.970  -5.801  -4.028  0.00  0.00    +0.028 A 
ATOM     17  C   UNL     1      13.169  -6.631  -5.208  0.00  0.00    +0.036 C 
ATOM     18  C   UNL     1      14.590  -6.044  -5.072  0.00  0.00    +0.009 C 
ATOM     19  C   UNL     1      14.622  -5.592  -3.596  0.00  0.00    +0.036 C 
ENDBRANCH   6  11
BRANCH   1  20
ATOM     20  C   UNL     1       5.692  -3.722  -0.082  0.00  0.00    +0.227 C 
BRANCH  20  23
ATOM     21  C   UNL     1       3.699  -0.689  -0.037  0.00  0.00    +0.202 A 
ATOM     22  N   UNL     1       3.853  -2.025  -0.051  0.00  0.00    -0.190 NA
ATOM     23  C   UNL     1       5.120  -2.328  -0.065  0.00  0.00    +0.247 A 
ATOM     24  O   UNL     1       5.828  -1.191  -0.059  0.00  0.00    -0.336 OA
ATOM     25  N   UNL     1       4.884  -0.131  -0.046  0.00  0.00    -0.056 NA
BRANCH  21  29
ATOM     26  C   UNL     1      -0.017   1.379   0.010  0.00  0.00    +0.000 A 
ATOM     27  C   UNL     1       1.169   2.092   0.002  0.00  0.00    +0.001 A 
ATOM     28  C   UNL     1       2.377   1.426  -0.013  0.00  0.00    +0.012 A 
ATOM     29  C   UNL     1       2.402   0.033  -0.021  0.00  0.00    +0.022 A 
ATOM     30  C   UNL     1       1.205  -0.680  -0.013  0.00  0.00    +0.012 A 
ATOM     31  C   UNL     1       0.002  -0.004   0.002  0.00  0.00    +0.001 A 
ENDBRANCH  21  29
ENDBRANCH  20  23
ENDBRANCH   1  20
TORSDOF 4
