REMARK  Name = ZINC18398924
REMARK  7 active torsions:
REMARK  status: ('A' for Active; 'I' for Inactive)
REMARK    1  A    between atoms: C_1  and  C_2
REMARK    2  A    between atoms: N_10  and  C_13
REMARK    3  A    between atoms: C_13  and  C_14
REMARK    4  A    between atoms: C_14  and  O_16
REMARK    5  A    between atoms: O_16  and  C_17
REMARK    6  A    between atoms: C_17  and  C_18
REMARK    7  A    between atoms: N_23  and  C_24
REMARK                            x       y       z     vdW  Elec       q    Type
REMARK                         _______ _______ _______ _____ _____    ______ ____
ROOT
ATOM      1  C   UNL     1       5.596  -0.944  -3.192  0.00  0.00    +0.258 C 
ATOM      2  O   UNL     1       6.170  -1.292  -2.182  0.00  0.00    -0.272 OA
ATOM      3  N   UNL     1       6.108  -1.255  -4.399  0.00  0.00    -0.237 N 
ATOM      4  C   UNL     1       7.258  -1.952  -4.484  0.00  0.00    +0.306 C 
ATOM      5  O   UNL     1       7.834  -2.300  -3.472  0.00  0.00    -0.252 OA
ATOM      6  N   UNL     1       7.770  -2.263  -5.691  0.00  0.00    -0.294 N 
ATOM      7  H   UNL     1       5.648  -0.978  -5.207  0.00  0.00    +0.159 HD
ATOM      8  H   UNL     1       7.311  -1.986  -6.499  0.00  0.00    +0.151 HD
ENDROOT
BRANCH   6   9
ATOM      9  C   UNL     1       9.021  -3.021  -5.784  0.00  0.00    +0.037 C 
ATOM     10  C   UNL     1      10.142  -2.240  -5.096  0.00  0.00    +0.029 C 
ATOM     11  C   UNL     1      11.448  -3.031  -5.193  0.00  0.00    -0.008 C 
ATOM     12  C   UNL     1      11.805  -3.248  -6.665  0.00  0.00    +0.007 C 
ATOM     13  C   UNL     1      10.684  -4.030  -7.351  0.00  0.00    -0.008 C 
ATOM     14  C   UNL     1       9.378  -3.239  -7.255  0.00  0.00    +0.029 C 
ATOM     15  C   UNL     1      10.511  -5.385  -6.663  0.00  0.00    +0.007 C 
ATOM     16  C   UNL     1      10.153  -5.168  -5.191  0.00  0.00    -0.008 C 
ATOM     17  C   UNL     1      11.275  -4.386  -4.504  0.00  0.00    +0.007 C 
ATOM     18  C   UNL     1       8.848  -4.377  -5.095  0.00  0.00    +0.029 C 
ENDBRANCH   6   9
BRANCH   1  19
ATOM     19  C   UNL     1       4.309  -0.165  -3.097  0.00  0.00    +0.328 C 
BRANCH  19  20
ATOM     20  O   UNL     1       3.970   0.042  -1.701  0.00  0.00    -0.454 OA
BRANCH  20  21
ATOM     21  C   UNL     1       2.844   0.724  -1.441  0.00  0.00    +0.328 C 
ATOM     22  O   UNL     1       2.164   1.136  -2.351  0.00  0.00    -0.249 OA
BRANCH  21  23
ATOM     23  C   UNL     1       2.428   0.977  -0.015  0.00  0.00    +0.246 C 
BRANCH  23  33
ATOM     24  C   UNL     1      -3.772   2.870   0.053  0.00  0.00    +0.046 C 
ATOM     25  C   UNL     1      -2.498   3.675   0.044  0.00  0.00    -0.024 A 
ATOM     26  C   UNL     1      -2.549   5.051   0.051  0.00  0.00    +0.005 A 
ATOM     27  C   UNL     1      -1.383   5.806   0.043  0.00  0.00    +0.001 A 
ATOM     28  C   UNL     1      -0.150   5.191   0.029  0.00  0.00    +0.015 A 
ATOM     29  C   UNL     1      -0.077   3.800   0.022  0.00  0.00    +0.065 A 
ATOM     30  C   UNL     1      -1.260   3.029   0.029  0.00  0.00    +0.081 A 
ATOM     31  N   UNL     1      -1.164   1.676   0.017  0.00  0.00    -0.237 NA
ATOM     32  C   UNL     1      -0.013   1.076   0.008  0.00  0.00    +0.203 A 
ATOM     33  N   UNL     1       1.175   1.736   0.000  0.00  0.00    -0.288 N 
ATOM     34  C   UNL     1       1.210   3.089   0.006  0.00  0.00    +0.262 A 
ATOM     35  O   UNL     1       2.267   3.694  -0.001  0.00  0.00    -0.267 OA
ENDBRANCH  23  33
ENDBRANCH  21  23
ENDBRANCH  20  21
ENDBRANCH  19  20
ENDBRANCH   1  19
TORSDOF 6
