REMARK  Name = ZINC14992365
REMARK  7 active torsions:
REMARK  status: ('A' for Active; 'I' for Inactive)
REMARK    1  A    between atoms: C_9  and  C_12
REMARK    2  A    between atoms: C_12  and  N_13
REMARK    3  A    between atoms: C_14  and  C_16
REMARK    4  A    between atoms: C_19  and  C_24
REMARK    5  A    between atoms: C_24  and  N_64
REMARK    6  A    between atoms: C_27  and  C_30
REMARK    7  A    between atoms: C_27  and  O_37
REMARK                            x       y       z     vdW  Elec       q    Type
REMARK                         _______ _______ _______ _____ _____    ______ ____
ROOT
ATOM      1  C   UNL     1      -2.408   7.683  -1.906  0.00  0.00    +0.101 A 
ATOM      2  C   UNL     1      -1.473   7.328  -2.877  0.00  0.00    +0.020 A 
ATOM      3  C   UNL     1      -1.145   5.982  -3.037  0.00  0.00    +0.020 A 
ATOM      4  C   UNL     1      -1.739   5.038  -2.263  0.00  0.00    +0.003 A 
ATOM      5  N   UNL     1      -2.648   5.376  -1.317  0.00  0.00    -0.327 N 
ATOM      6  H   UNL     1      -3.054   4.682  -0.775  0.00  0.00    +0.169 HD
ATOM      7  C   UNL     1      -2.997   6.661  -1.117  0.00  0.00    +0.261 A 
ATOM      8  O   UNL     1      -3.817   6.946  -0.261  0.00  0.00    -0.267 OA
ENDROOT
BRANCH   1  10
ATOM      9  N   UNL     1      -3.587   9.436  -0.681  0.00  0.00    -0.308 N 
ATOM     10  C   UNL     1      -2.776   9.092  -1.702  0.00  0.00    +0.249 C 
ATOM     11  O   UNL     1      -2.349   9.948  -2.454  0.00  0.00    -0.270 OA
ATOM     12  H   UNL     1      -3.986   8.748  -0.126  0.00  0.00    +0.149 HD
BRANCH   9  13
ATOM     13  C   UNL     1      -3.866  10.849  -0.412  0.00  0.00    +0.152 C 
BRANCH  13  22
ATOM     14  C   UNL     1      -9.229  11.027   3.019  0.00  0.00    +0.004 A 
ATOM     15  C   UNL     1      -9.236   9.918   2.193  0.00  0.00    +0.004 A 
ATOM     16  C   UNL     1      -8.164   9.671   1.355  0.00  0.00    +0.049 A 
ATOM     17  C   UNL     1      -7.080  10.536   1.341  0.00  0.00    +0.163 A 
ATOM     18  C   UNL     1      -7.072  11.649   2.173  0.00  0.00    +0.162 A 
ATOM     19  C   UNL     1      -8.151  11.891   3.010  0.00  0.00    +0.049 A 
ATOM     20  O   UNL     1      -6.017  12.508   2.178  0.00  0.00    -0.485 OA
ATOM     21  C   UNL     1      -5.126  12.439   1.059  0.00  0.00    +0.275 C 
ATOM     22  C   UNL     1      -4.806  10.962   0.790  0.00  0.00    +0.228 C 
ATOM     23  O   UNL     1      -6.034  10.282   0.508  0.00  0.00    -0.480 OA
ENDBRANCH  13  22
ENDBRANCH   9  13
ENDBRANCH   1  10
BRANCH   4  24
ATOM     24  C   UNL     1      -1.376   3.588  -2.454  0.00  0.00    -0.025 C 
BRANCH  24  30
ATOM     25  C   UNL     1      -1.479   3.113  -0.083  0.00  0.00    -0.075 C 
ATOM     26  C   UNL     1      -0.718   2.476   1.082  0.00  0.00    +0.021 C 
ATOM     27  C   UNL     1       0.567   3.267   1.342  0.00  0.00    +0.088 C 
ATOM     28  C   UNL     1       1.409   3.292   0.063  0.00  0.00    +0.021 C 
ATOM     29  C   UNL     1       0.586   3.905  -1.073  0.00  0.00    -0.075 C 
ATOM     30  N   UNL     1      -0.623   3.083  -1.288  0.00  0.00    +0.383 N 
ATOM     31  H   UNL     1      -0.338   2.113  -1.470  0.00  0.00    -0.081 HD
BRANCH  27  32
ATOM     32  C   UNL     1       1.349   2.609   2.449  0.00  0.00    -0.016 A 
ATOM     33  C   UNL     1       1.260   1.243   2.640  0.00  0.00    +0.008 A 
ATOM     34  C   UNL     1       1.981   0.637   3.651  0.00  0.00    +0.020 A 
ATOM     35  C   UNL     1       2.785   1.401   4.479  0.00  0.00    +0.041 A 
ATOM     36  C   UNL     1       2.870   2.768   4.291  0.00  0.00    +0.020 A 
ATOM     37  C   UNL     1       2.152   3.372   3.276  0.00  0.00    +0.008 A 
ATOM     38 CL   UNL     1       3.687   0.642   5.754  0.00  0.00    -0.084 Cl
ENDBRANCH  27  32
BRANCH  27  39
ATOM     39  O   UNL     1       0.235   4.605   1.720  0.00  0.00    -0.384 OA
ATOM     40  H   UNL     1       1.003   5.164   1.900  0.00  0.00    +0.211 HD
ENDBRANCH  27  39
ENDBRANCH  24  30
ENDBRANCH   4  24
TORSDOF 7
