REMARK  Name = ZINC08919223
REMARK  6 active torsions:
REMARK  status: ('A' for Active; 'I' for Inactive)
REMARK    1  A    between atoms: C_6  and  N_7
REMARK    2  A    between atoms: C_8  and  C_10
REMARK    3  A    between atoms: C_14  and  N_15
REMARK    4  A    between atoms: C_16  and  C_18
REMARK    5  A    between atoms: C_18  and  C_19
REMARK    6  A    between atoms: C_19  and  N_52
REMARK                            x       y       z     vdW  Elec       q    Type
REMARK                         _______ _______ _______ _____ _____    ______ ____
ROOT
ATOM      1  C   UNL     1       2.424  -4.196  -0.255  0.00  0.00    +0.069 A 
ATOM      2  C   UNL     1       2.358  -4.851  -1.561  0.00  0.00    -0.023 A 
ATOM      3  C   UNL     1       2.386  -6.196  -1.527  0.00  0.00    -0.004 A 
ATOM      4  S   UNL     1       2.482  -6.602   0.200  0.00  0.00    -0.077 S 
ATOM      5  C   UNL     1       2.495  -5.005   0.866  0.00  0.00    +0.084 A 
ATOM      6  C   UNL     1       2.325  -6.796  -2.905  0.00  0.00    +0.043 C 
ATOM      7  C   UNL     1       2.693  -5.633  -3.853  0.00  0.00    +0.010 C 
ATOM      8  C   UNL     1       2.274  -4.405  -3.021  0.00  0.00    +0.037 C 
ENDROOT
BRANCH   1  10
ATOM      9  N   UNL     1       1.237  -2.079  -0.021  0.00  0.00    -0.281 N 
ATOM     10  C   UNL     1       2.409  -2.734  -0.137  0.00  0.00    +0.251 C 
ATOM     11  O   UNL     1       3.455  -2.113  -0.144  0.00  0.00    -0.270 OA
ATOM     12  H   UNL     1       0.409  -2.578   0.062  0.00  0.00    +0.155 HD
BRANCH   9  18
ATOM     13  C   UNL     1       2.137   0.031  -0.775  0.00  0.00    +0.024 A 
ATOM     14  C   UNL     1       2.112   1.412  -0.772  0.00  0.00    +0.017 A 
ATOM     15  C   UNL     1       1.169   2.086  -0.017  0.00  0.00    +0.018 A 
ATOM     16  C   UNL     1       0.249   1.380   0.737  0.00  0.00    +0.017 A 
ATOM     17  C   UNL     1       0.269  -0.001   0.738  0.00  0.00    +0.024 A 
ATOM     18  C   UNL     1       1.214  -0.681  -0.019  0.00  0.00    +0.034 A 
ATOM     19 BR   UNL     1       1.138   3.977  -0.015  0.00  0.00    -0.050 Br
ENDBRANCH   9  18
ENDBRANCH   1  10
BRANCH   5  20
ATOM     20  N   UNL     1       2.560  -4.628   2.199  0.00  0.00    -0.279 N 
ATOM     21  C   UNL     1       2.624  -5.568   3.163  0.00  0.00    +0.216 C 
ATOM     22  O   UNL     1       2.626  -6.743   2.864  0.00  0.00    -0.276 OA
ATOM     23  H   UNL     1       2.559  -3.688   2.437  0.00  0.00    +0.155 HD
BRANCH  21  24
ATOM     24  C   UNL     1       2.695  -5.158   4.611  0.00  0.00    +0.077 C 
BRANCH  24  25
ATOM     25  C   UNL     1       2.760  -6.407   5.492  0.00  0.00    -0.070 C 
BRANCH  25  30
ATOM     26  C   UNL     1       1.730  -5.068   7.246  0.00  0.00    -0.079 C 
ATOM     27  C   UNL     1       1.635  -5.179   8.788  0.00  0.00    -0.020 C 
ATOM     28  C   UNL     1       1.899  -6.681   9.043  0.00  0.00    -0.020 C 
ATOM     29  C   UNL     1       2.652  -7.175   7.795  0.00  0.00    -0.079 C 
ATOM     30  N   UNL     1       2.819  -6.006   6.930  0.00  0.00    +0.380 N 
ATOM     31  H   UNL     1       3.725  -5.561   7.118  0.00  0.00    -0.082 HD
ENDBRANCH  25  30
ENDBRANCH  24  25
ENDBRANCH  21  24
ENDBRANCH   5  20
TORSDOF 6
