REMARK  Name = ZINC35549723
REMARK  7 active torsions:
REMARK  status: ('A' for Active; 'I' for Inactive)
REMARK    1  A    between atoms: C_1  and  C_2
REMARK    2  A    between atoms: C_2  and  C_3
REMARK    3  A    between atoms: C_12  and  C_13
REMARK    4  A    between atoms: C_13  and  C_15
REMARK    5  A    between atoms: C_13  and  C_35
REMARK    6  A    between atoms: C_15  and  C_16
REMARK    7  A    between atoms: C_21  and  N_24
REMARK                            x       y       z     vdW  Elec       q    Type
REMARK                         _______ _______ _______ _____ _____    ______ ____
ROOT
ATOM      1  C   UNL     1      -5.233  -1.635  -3.040  0.00  0.00    +0.060 C 
ENDROOT
BRANCH   1  11
ATOM      2  C   UNL     1      -1.412  -0.526   0.013  0.00  0.00    -0.024 A 
ATOM      3  C   UNL     1      -2.015  -0.863   1.205  0.00  0.00    +0.005 A 
ATOM      4  C   UNL     1      -3.316  -1.345   1.228  0.00  0.00    +0.001 A 
ATOM      5  C   UNL     1      -4.023  -1.492   0.067  0.00  0.00    +0.010 A 
ATOM      6  C   UNL     1      -3.432  -1.155  -1.151  0.00  0.00    +0.004 A 
ATOM      7  C   UNL     1      -2.114  -0.662  -1.180  0.00  0.00    +0.050 A 
ATOM      8  N   UNL     1      -1.802  -0.414  -2.498  0.00  0.00    -0.360 N 
ATOM      9  H   UNL     1      -0.952  -0.069  -2.814  0.00  0.00    +0.165 HD
ATOM     10  C   UNL     1      -2.869  -0.725  -3.295  0.00  0.00    +0.088 A 
ATOM     11  C   UNL     1      -3.883  -1.186  -2.545  0.00  0.00    -0.015 A 
BRANCH   2  13
ATOM     12  C   UNL     1      -0.019   1.526   0.010  0.00  0.00    +0.009 C 
ATOM     13  C   UNL     1       0.002  -0.004   0.002  0.00  0.00    +0.034 C 
ENDBRANCH   2  13
ENDBRANCH   1  11
BRANCH   1  14
ATOM     14  C   UNL     1      -5.061  -2.796  -3.985  0.00  0.00    -0.039 A 
ATOM     15  C   UNL     1      -4.311  -2.644  -5.136  0.00  0.00    +0.005 A 
ATOM     16  C   UNL     1      -4.153  -3.709  -6.004  0.00  0.00    +0.020 A 
ATOM     17  C   UNL     1      -4.745  -4.927  -5.719  0.00  0.00    +0.041 A 
ATOM     18  C   UNL     1      -5.496  -5.078  -4.567  0.00  0.00    +0.020 A 
ATOM     19  C   UNL     1      -5.649  -4.014  -3.698  0.00  0.00    +0.005 A 
ATOM     20 CL   UNL     1      -4.547  -6.264  -6.808  0.00  0.00    -0.084 Cl
ENDBRANCH   1  14
BRANCH   1  21
ATOM     21  C   UNL     1      -5.918  -0.479  -3.772  0.00  0.00    +0.109 C 
BRANCH  21  22
ATOM     22  C   UNL     1      -7.316  -0.888  -4.160  0.00  0.00    +0.216 C 
ATOM     23  O   UNL     1      -7.724  -1.995  -3.879  0.00  0.00    -0.276 OA
ATOM     24  N   UNL     1      -8.112  -0.023  -4.820  0.00  0.00    -0.301 N 
ATOM     25  C   UNL     1      -7.630   1.319  -5.173  0.00  0.00    +0.110 C 
ATOM     26  C   UNL     1      -7.829   1.535  -6.676  0.00  0.00    +0.044 C 
ATOM     27  C   UNL     1      -9.294   1.279  -7.035  0.00  0.00    +0.095 C 
ATOM     28  C   UNL     1      -9.657  -0.170  -6.703  0.00  0.00    +0.044 C 
ATOM     29  C   UNL     1      -9.477  -0.407  -5.205  0.00  0.00    +0.110 C 
BRANCH  27  30
ATOM     30  N   UNL     1      -9.495   1.517  -8.466  0.00  0.00    -0.289 N 
ATOM     31  C   UNL     1     -10.358   2.458  -9.023  0.00  0.00    +0.070 A 
ATOM     32  C   UNL     1     -11.227   3.391  -8.479  0.00  0.00    +0.028 A 
ATOM     33  C   UNL     1     -11.970   4.206  -9.311  0.00  0.00    +0.002 A 
ATOM     34  C   UNL     1     -11.850   4.095 -10.686  0.00  0.00    +0.002 A 
ATOM     35  C   UNL     1     -10.987   3.168 -11.237  0.00  0.00    +0.028 A 
ATOM     36  C   UNL     1     -10.236   2.346 -10.409  0.00  0.00    +0.067 A 
ATOM     37  N   UNL     1      -9.304   1.341 -10.652  0.00  0.00    -0.306 N 
ATOM     38  H   UNL     1      -9.011   1.037 -11.525  0.00  0.00    +0.170 HD
ATOM     39  C   UNL     1      -8.873   0.867  -9.468  0.00  0.00    +0.328 A 
ATOM     40  O   UNL     1      -8.049  -0.017  -9.324  0.00  0.00    -0.247 OA
ENDBRANCH  27  30
ENDBRANCH  21  22
ENDBRANCH   1  21
TORSDOF 6
