REMARK  Name = ZINC48942231
REMARK  5 active torsions:
REMARK  status: ('A' for Active; 'I' for Inactive)
REMARK    1  A    between atoms: C_1  and  C_2
REMARK    2  A    between atoms: C_4  and  C_8
REMARK    3  A    between atoms: C_14  and  N_16
REMARK    4  A    between atoms: N_16  and  S_17
REMARK    5  A    between atoms: S_17  and  C_20
REMARK                            x       y       z     vdW  Elec       q    Type
REMARK                         _______ _______ _______ _____ _____    ______ ____
ROOT
ATOM      1  C   UNL     1       0.042  -3.356  -1.443  0.00  0.00    +0.269 C 
ATOM      2  O   UNL     1       0.035  -3.299  -2.658  0.00  0.00    -0.268 OA
ATOM      3  N   UNL     1       0.062  -4.553  -0.824  0.00  0.00    -0.258 N 
ATOM      4  C   UNL     1       0.074  -5.725  -1.576  0.00  0.00    +0.190 A 
ATOM      5  N   UNL     1       0.075  -5.877  -2.885  0.00  0.00    -0.124 NA
ATOM      6  N   UNL     1       0.089  -7.141  -3.428  0.00  0.00    -0.121 NA
ATOM      7  C   UNL     1       0.102  -8.196  -2.634  0.00  0.00    +0.225 A 
ATOM      8  S   UNL     1       0.101  -7.423  -1.024  0.00  0.00    -0.012 S 
ATOM      9  H   UNL     1       0.068  -4.599   0.145  0.00  0.00    +0.157 HD
ENDROOT
BRANCH   1  13
ATOM     10  C   UNL     1      -0.018   1.503   0.010  0.00  0.00    +0.068 C 
ATOM     11  C   UNL     1       0.002  -0.004   0.002  0.00  0.00    +0.074 A 
ATOM     12  C   UNL     1       0.008  -0.821  -1.132  0.00  0.00    +0.070 A 
ATOM     13  C   UNL     1       0.029  -2.119  -0.649  0.00  0.00    +0.135 A 
ATOM     14  N   UNL     1       0.034  -2.018   0.714  0.00  0.00    -0.271 N 
ATOM     15  H   UNL     1       0.048  -2.767   1.330  0.00  0.00    +0.189 HD
ATOM     16  N   UNL     1       0.023  -0.780   1.055  0.00  0.00    -0.177 NA
ATOM     17 BR   UNL     1      -0.009  -0.271  -2.942  0.00  0.00    -0.046 Br
ENDBRANCH   1  13
BRANCH   7  18
ATOM     18  N   UNL     1       0.116  -9.545  -2.964  0.00  0.00    -0.073 NA
BRANCH  18  19
ATOM     19  S   UNL     1       0.120 -10.009  -4.553  0.00  0.00    +0.061 S 
ATOM     20  O   UNL     1      -1.119  -9.546  -5.070  0.00  0.00    -0.154 OA
ATOM     21  O   UNL     1       1.350  -9.519  -5.071  0.00  0.00    -0.154 OA
ATOM     22  C   UNL     1       0.140 -11.822  -4.509  0.00  0.00    +0.220 C 
ENDBRANCH  18  19
ENDBRANCH   7  18
TORSDOF 3
