REMARK  Name = ZINC48484602
REMARK  4 active torsions:
REMARK  status: ('A' for Active; 'I' for Inactive)
REMARK    1  A    between atoms: C_1  and  N_2
REMARK    2  A    between atoms: C_3  and  N_23
REMARK    3  A    between atoms: C_4  and  N_11
REMARK    4  A    between atoms: N_11  and  C_12
REMARK                            x       y       z     vdW  Elec       q    Type
REMARK                         _______ _______ _______ _____ _____    ______ ____
ROOT
ATOM      1  C   UNL     1      -0.001   1.414   0.564  0.00  0.00    +0.155 C 
ATOM      2  N   UNL     1       0.012  -0.031   0.323  0.00  0.00    -0.284 N 
ATOM      3  C   UNL     1      -1.175  -0.728   0.276  0.00  0.00    +0.127 A 
ATOM      4  C   UNL     1      -1.152  -2.077   0.050  0.00  0.00    +0.131 A 
ATOM      5  C   UNL     1       0.087  -2.718  -0.128  0.00  0.00    +0.277 A 
ATOM      6  O   UNL     1       0.133  -3.920  -0.331  0.00  0.00    -0.266 OA
ATOM      7  N   UNL     1       1.224  -1.996  -0.074  0.00  0.00    -0.273 N 
ATOM      8  H   UNL     1       2.079  -2.436  -0.198  0.00  0.00    +0.173 HD
ATOM      9  C   UNL     1       1.183  -0.669   0.144  0.00  0.00    +0.331 A 
ATOM     10  O   UNL     1       2.221  -0.037   0.184  0.00  0.00    -0.246 OA
ENDROOT
BRANCH   3  11
ATOM     11  N   UNL     1      -2.372  -0.073   0.455  0.00  0.00    -0.343 N 
ATOM     12  H   UNL     1      -2.383   0.883   0.616  0.00  0.00    +0.144 HD
ATOM     13  H   UNL     1      -3.205  -0.569   0.421  0.00  0.00    +0.144 HD
ENDBRANCH   3  11
BRANCH   4  14
ATOM     14  N   UNL     1      -2.356  -2.816  -0.002  0.00  0.00    -0.334 N 
ATOM     15  H   UNL     1      -3.210  -2.357   0.041  0.00  0.00    +0.147 HD
BRANCH  14  16
ATOM     16  C   UNL     1      -2.315  -4.276  -0.121  0.00  0.00    +0.075 C 
ATOM     17  C   UNL     1      -3.635  -4.872   0.383  0.00  0.00    +0.027 C 
ATOM     18  C   UNL     1      -3.475  -6.389   0.472  0.00  0.00    +0.037 C 
ATOM     19  C   UNL     1      -2.938  -6.941  -0.823  0.00  0.00    -0.044 A 
ATOM     20  C   UNL     1      -3.087  -8.303  -1.055  0.00  0.00    +0.004 A 
ATOM     21  C   UNL     1      -2.611  -8.871  -2.219  0.00  0.00    +0.000 A 
ATOM     22  C   UNL     1      -1.981  -8.080  -3.162  0.00  0.00    +0.000 A 
ATOM     23  C   UNL     1      -1.835  -6.727  -2.934  0.00  0.00    +0.004 A 
ATOM     24  C   UNL     1      -2.317  -6.152  -1.764  0.00  0.00    -0.042 A 
ATOM     25  C   UNL     1      -2.137  -4.667  -1.587  0.00  0.00    +0.057 C 
ENDBRANCH  14  16
ENDBRANCH   4  14
TORSDOF 3
