REMARK  Name = ZINC51733940
REMARK  4 active torsions:
REMARK  status: ('A' for Active; 'I' for Inactive)
REMARK    1  A    between atoms: C_1  and  C_2
REMARK    2  A    between atoms: N_6  and  C_11
REMARK    3  A    between atoms: C_7  and  C_10
REMARK    4  A    between atoms: C_14  and  C_17
REMARK                            x       y       z     vdW  Elec       q    Type
REMARK                         _______ _______ _______ _____ _____    ______ ____
ROOT
ATOM      1  C   UNL     1      -0.687   1.387  -0.543  0.00  0.00    +0.007 C 
ATOM      2  C   UNL     1      -0.318  -0.071  -0.265  0.00  0.00    -0.011 C 
ATOM      3  C   UNL     1      -1.554  -0.955  -0.454  0.00  0.00    +0.022 C 
ATOM      4  C   UNL     1      -1.173  -2.418  -0.208  0.00  0.00    +0.105 C 
ATOM      5  N   UNL     1      -0.550  -2.528   1.118  0.00  0.00    -0.327 N 
ATOM      6  C   UNL     1       0.590  -1.658   1.437  0.00  0.00    +0.071 C 
ATOM      7  C   UNL     1       0.189  -0.203   1.173  0.00  0.00    +0.025 C 
ATOM      8  C   UNL     1       0.969  -1.829   2.910  0.00  0.00    +0.028 C 
ENDROOT
BRANCH   5   9
ATOM      9  C   UNL     1      -1.031  -3.439   2.054  0.00  0.00    +0.030 A 
ATOM     10  C   UNL     1      -2.084  -3.083   2.891  0.00  0.00    +0.024 A 
ATOM     11  C   UNL     1      -2.563  -3.982   3.817  0.00  0.00    +0.020 A 
ATOM     12  C   UNL     1      -1.989  -5.253   3.918  0.00  0.00    +0.052 A 
ATOM     13  C   UNL     1      -0.930  -5.607   3.075  0.00  0.00    +0.020 A 
ATOM     14  C   UNL     1      -0.461  -4.705   2.147  0.00  0.00    +0.024 A 
BRANCH  12  15
ATOM     15  C   UNL     1      -2.483  -6.190   4.881  0.00  0.00    +0.099 C 
ATOM     16  N   UNL     1      -2.876  -6.933   5.645  0.00  0.00    -0.191 NA
ENDBRANCH  12  15
ENDBRANCH   5   9
TORSDOF 2
