REMARK  Name = ZINC63376212
REMARK  9 active torsions:
REMARK  status: ('A' for Active; 'I' for Inactive)
REMARK    1  A    between atoms: C_1  and  C_2
REMARK    2  A    between atoms: C_4  and  C_32
REMARK    3  A    between atoms: C_6  and  N_8
REMARK    4  A    between atoms: C_9  and  C_11
REMARK    5  A    between atoms: C_11  and  C_12
REMARK    6  A    between atoms: C_12  and  C_13
REMARK    7  A    between atoms: N_17  and  C_21
REMARK    8  A    between atoms: C_21  and  C_22
REMARK    9  A    between atoms: C_22  and  C_23
REMARK                            x       y       z     vdW  Elec       q    Type
REMARK                         _______ _______ _______ _____ _____    ______ ____
ROOT
ATOM      1  C   UNL     1       0.505  -2.694   7.333  0.00  0.00    +0.161 C 
ATOM      2  C   UNL     1       0.671  -1.744   8.503  0.00  0.00    +0.243 C 
ATOM      3  O   UNL     1       1.570  -0.949   8.679  0.00  0.00    -0.273 OA
ATOM      4  N   UNL     1      -0.390  -1.965   9.305  0.00  0.00    -0.224 N 
ATOM      5  C   UNL     1      -1.193  -2.913   8.810  0.00  0.00    +0.309 C 
ATOM      6  O   UNL     1      -2.213  -3.286   9.355  0.00  0.00    -0.252 OA
ATOM      7  N   UNL     1      -0.745  -3.410   7.639  0.00  0.00    -0.288 N 
ATOM      8  H   UNL     1      -1.163  -4.102   7.103  0.00  0.00    +0.151 HD
ENDROOT
BRANCH   1   9
ATOM      9  C   UNL     1       0.374  -1.917   6.022  0.00  0.00    +0.041 C 
BRANCH   9  10
ATOM     10  C   UNL     1       0.280  -2.900   4.854  0.00  0.00    +0.098 C 
BRANCH  10  12
ATOM     11  N   UNL     1       0.052  -2.797   2.393  0.00  0.00    -0.285 N 
ATOM     12  C   UNL     1       0.150  -2.134   3.562  0.00  0.00    +0.217 C 
ATOM     13  O   UNL     1       0.134  -0.922   3.575  0.00  0.00    -0.275 OA
ATOM     14  H   UNL     1      -0.012  -3.765   2.388  0.00  0.00    +0.155 HD
BRANCH  11  20
ATOM     15  C   UNL     1      -1.512  -2.365  -2.248  0.00  0.00    +0.044 C 
ATOM     16  C   UNL     1      -0.707  -1.857  -1.080  0.00  0.00    -0.048 A 
ATOM     17  C   UNL     1       0.025  -0.690  -1.201  0.00  0.00    +0.006 A 
ATOM     18  C   UNL     1       0.765  -0.220  -0.131  0.00  0.00    -0.048 A 
ATOM     19  C   UNL     1       0.776  -0.917   1.061  0.00  0.00    +0.026 A 
ATOM     20  C   UNL     1       0.043  -2.089   1.186  0.00  0.00    +0.034 A 
ATOM     21  C   UNL     1      -0.704  -2.555   0.112  0.00  0.00    +0.026 A 
ATOM     22  C   UNL     1       1.561   1.052  -0.268  0.00  0.00    +0.044 C 
ENDBRANCH  11  20
ENDBRANCH  10  12
ENDBRANCH   9  10
ENDBRANCH   1   9
BRANCH   4  23
ATOM     23  C   UNL     1      -0.631  -1.255  10.563  0.00  0.00    +0.122 C 
BRANCH  23  24
ATOM     24  C   UNL     1      -1.464  -0.001  10.290  0.00  0.00    +0.052 C 
BRANCH  24  25
ATOM     25  C   UNL     1      -1.713   0.729  11.584  0.00  0.00    -0.040 C 
ATOM     26  C   UNL     1      -0.996   1.760  12.087  0.00  0.00    -0.001 A 
ATOM     27  C   UNL     1       0.185   2.482  11.599  0.00  0.00    +0.010 A 
ATOM     28  C   UNL     1       0.689   3.494  12.341  0.00  0.00    +0.001 A 
ATOM     29  C   UNL     1       0.113   3.869  13.563  0.00  0.00    +0.002 A 
ATOM     30  C   UNL     1      -0.973   3.254  14.077  0.00  0.00    +0.026 A 
ATOM     31  C   UNL     1      -1.586   2.176  13.380  0.00  0.00    +0.043 A 
ATOM     32  N   UNL     1      -2.626   1.432  13.665  0.00  0.00    -0.380 N 
ATOM     33  C   UNL     1      -2.818   0.462  12.581  0.00  0.00    +0.144 C 
ATOM     34  H   UNL     1      -3.179   1.512  14.457  0.00  0.00    +0.160 HD
ENDBRANCH  24  25
ENDBRANCH  23  24
ENDBRANCH   4  23
TORSDOF 7
