REMARK  Name = ZINC15050878
REMARK  5 active torsions:
REMARK  status: ('A' for Active; 'I' for Inactive)
REMARK    1  A    between atoms: C_1  and  C_2
REMARK    2  A    between atoms: C_2  and  C_4
REMARK    3  A    between atoms: C_2  and  N_6
REMARK    4  A    between atoms: C_10  and  N_14
REMARK    5  A    between atoms: C_18  and  C_19
REMARK                            x       y       z     vdW  Elec       q    Type
REMARK                         _______ _______ _______ _____ _____    ______ ____
ROOT
ATOM      1  N   UNL     1      -1.171   2.688   0.813  0.00  0.00    -0.243 N 
ATOM      2  C   UNL     1      -0.996   3.955   0.477  0.00  0.00    +0.259 C 
ATOM      3  O   UNL     1      -1.938   4.699   0.277  0.00  0.00    -0.269 OA
ATOM      4  C   UNL     1       0.402   4.419   0.352  0.00  0.00    +0.077 C 
ATOM      5  C   UNL     1       0.880   5.644   0.022  0.00  0.00    +0.028 C 
ATOM      6  S   UNL     1       1.289   2.920   0.755  0.00  0.00    -0.061 S 
ATOM      7  C   UNL     1      -0.125   1.867   1.039  0.00  0.00    +0.121 C 
ATOM      8  S   UNL     1      -0.147   0.214   1.483  0.00  0.00    -0.027 S 
ENDROOT
BRANCH   1  13
ATOM      9  N   UNL     1      -3.021  -0.107   0.802  0.00  0.00    -0.227 N 
ATOM     10  C   UNL     1      -3.064   0.137   2.118  0.00  0.00    +0.225 C 
ATOM     11  O   UNL     1      -3.306  -0.684   2.976  0.00  0.00    -0.275 OA
ATOM     12  C   UNL     1      -2.760   1.599   2.364  0.00  0.00    +0.128 C 
ATOM     13  C   UNL     1      -2.533   2.164   0.947  0.00  0.00    +0.178 C 
ATOM     14  C   UNL     1      -2.733   0.964   0.046  0.00  0.00    +0.244 C 
ATOM     15  O   UNL     1      -2.645   0.972  -1.163  0.00  0.00    -0.273 OA
BRANCH   9  17
ATOM     16  C   UNL     1      -4.682  -1.891   0.608  0.00  0.00    +0.040 C 
ATOM     17  C   UNL     1      -3.271  -1.433   0.233  0.00  0.00    +0.194 C 
BRANCH  17  18
ATOM     18  C   UNL     1      -2.264  -2.412   0.778  0.00  0.00    +0.376 C 
ATOM     19  O   UNL     1      -1.423  -2.040   1.562  0.00  0.00    -0.244 OA
ATOM     20  O   UNL     1      -2.300  -3.697   0.393  0.00  0.00    -0.244 OA
ENDBRANCH  17  18
ENDBRANCH   9  17
ENDBRANCH   1  13
BRANCH   5  21
ATOM     21  C   UNL     1       2.320   5.923   0.121  0.00  0.00    -0.024 A 
ATOM     22  C   UNL     1       3.176   4.995   0.725  0.00  0.00    +0.008 A 
ATOM     23  C   UNL     1       4.526   5.262   0.809  0.00  0.00    +0.001 A 
ATOM     24  C   UNL     1       5.033   6.448   0.309  0.00  0.00    +0.000 A 
ATOM     25  C   UNL     1       4.192   7.374  -0.285  0.00  0.00    +0.001 A 
ATOM     26  C   UNL     1       2.841   7.120  -0.382  0.00  0.00    +0.008 A 
ENDBRANCH   5  21
TORSDOF 4
