REMARK  Name = ZINC39936472
REMARK  10 active torsions:
REMARK  status: ('A' for Active; 'I' for Inactive)
REMARK    1  A    between atoms: C_1  and  C_2
REMARK    2  A    between atoms: C_5  and  N_9
REMARK    3  A    between atoms: C_6  and  C_8
REMARK    4  A    between atoms: C_10  and  C_12
REMARK    5  A    between atoms: C_14  and  C_33
REMARK    6  A    between atoms: C_18  and  C_22
REMARK    7  A    between atoms: C_22  and  S_23
REMARK    8  A    between atoms: S_23  and  C_24
REMARK    9  A    between atoms: C_27  and  C_31
REMARK   10  A    between atoms: N_29  and  C_30
REMARK                            x       y       z     vdW  Elec       q    Type
REMARK                         _______ _______ _______ _____ _____    ______ ____
ROOT
ATOM      1  C   UNL     1      -0.134  -6.343  -1.187  0.00  0.00    +0.165 C 
ATOM      2  C   UNL     1       0.517  -6.925  -2.421  0.00  0.00    -0.036 C 
ATOM      3  C   UNL     1      -0.258  -7.624  -3.264  0.00  0.00    +0.071 C 
ATOM      4  C   UNL     1      -1.688  -7.770  -2.921  0.00  0.00    +0.112 C 
ATOM      5  N   UNL     1      -2.497  -8.441  -3.706  0.00  0.00    -0.227 NA
ATOM      6  C   UNL     1      -2.063  -9.005  -4.823  0.00  0.00    +0.134 C 
ATOM      7  N   UNL     1      -0.817  -8.942  -5.227  0.00  0.00    -0.160 NA
ATOM      8  C   UNL     1       0.135  -8.297  -4.543  0.00  0.00    +0.271 C 
ATOM      9  O   UNL     1       1.284  -8.258  -4.949  0.00  0.00    -0.268 OA
ATOM     10  S   UNL     1      -1.877  -6.894  -1.388  0.00  0.00    -0.088 S 
ATOM     11  C   UNL     1       1.986  -6.727  -2.694  0.00  0.00    +0.041 C 
ENDROOT
BRANCH   1  13
ATOM     12  N   UNL     1       0.059  -4.170  -0.021  0.00  0.00    -0.284 N 
ATOM     13  C   UNL     1      -0.040  -4.839  -1.187  0.00  0.00    +0.235 C 
ATOM     14  O   UNL     1      -0.054  -4.230  -2.236  0.00  0.00    -0.274 OA
ATOM     15  H   UNL     1       0.135  -4.658   0.814  0.00  0.00    +0.155 HD
BRANCH  12  20
ATOM     16  C   UNL     1       0.025   1.503   0.005  0.00  0.00    +0.044 C 
ATOM     17  C   UNL     1       0.034  -0.004  -0.002  0.00  0.00    -0.050 A 
ATOM     18  C   UNL     1       0.632  -0.685  -1.046  0.00  0.00    +0.005 A 
ATOM     19  C   UNL     1       0.641  -2.066  -1.055  0.00  0.00    +0.024 A 
ATOM     20  C   UNL     1       0.051  -2.771  -0.014  0.00  0.00    +0.036 A 
ATOM     21  C   UNL     1      -0.548  -2.083   1.033  0.00  0.00    -0.029 A 
ATOM     22  C   UNL     1      -0.550  -0.702   1.039  0.00  0.00    +0.008 A 
ATOM     23  C   UNL     1      -1.190  -2.843   2.165  0.00  0.00    +0.045 C 
ENDBRANCH  12  20
ENDBRANCH   1  13
BRANCH   6  24
ATOM     24  C   UNL     1      -3.052  -9.760  -5.673  0.00  0.00    +0.150 C 
BRANCH  24  25
ATOM     25  S   UNL     1      -2.208 -10.430  -7.132  0.00  0.00    -0.081 S 
BRANCH  25  26
ATOM     26  C   UNL     1      -3.481 -11.273  -8.012  0.00  0.00    +0.175 C 
ATOM     27  N   UNL     1      -4.709 -11.335  -7.622  0.00  0.00    -0.163 NA
ATOM     28  N   UNL     1      -5.495 -12.069  -8.518  0.00  0.00    -0.247 N 
ATOM     29  C   UNL     1      -4.590 -12.503  -9.597  0.00  0.00    +0.173 C 
ATOM     30  N   UNL     1      -3.284 -11.944  -9.209  0.00  0.00    -0.292 N 
ATOM     31  C   UNL     1      -2.023 -12.074  -9.943  0.00  0.00    +0.133 C 
ATOM     32  C   UNL     1      -4.531 -14.030  -9.666  0.00  0.00    +0.051 C 
ATOM     33  H   UNL     1      -6.444 -12.255  -8.444  0.00  0.00    +0.170 HD
ENDBRANCH  25  26
ENDBRANCH  24  25
ENDBRANCH   6  24
TORSDOF 5
