REMARK  Name = ZINC38936301
REMARK  8 active torsions:
REMARK  status: ('A' for Active; 'I' for Inactive)
REMARK    1  A    between atoms: C_1  and  C_2
REMARK    2  A    between atoms: C_2  and  O_3
REMARK    3  A    between atoms: O_3  and  C_4
REMARK    4  A    between atoms: C_8  and  C_10
REMARK    5  A    between atoms: C_12  and  C_16
REMARK    6  A    between atoms: N_18  and  N_19
REMARK    7  A    between atoms: C_20  and  C_21
REMARK    8  A    between atoms: C_26  and  O_27
REMARK                            x       y       z     vdW  Elec       q    Type
REMARK                         _______ _______ _______ _____ _____    ______ ____
ROOT
ATOM      1  C   UNL     1       2.307  -6.297  -6.439  0.00  0.00    +0.263 C 
ATOM      2  O   UNL     1       1.691  -5.642  -7.253  0.00  0.00    -0.271 OA
ATOM      3  N   UNL     1       2.266  -7.643  -6.487  0.00  0.00    -0.205 N 
ATOM      4  H   UNL     1       2.759  -8.168  -5.837  0.00  0.00    +0.177 HD
ENDROOT
BRANCH   1   7
ATOM      5  C   UNL     1       2.212  -4.262  -3.804  0.00  0.00    +0.092 C 
ATOM      6  C   UNL     1       2.364  -5.576  -4.058  0.00  0.00    +0.041 C 
ATOM      7  C   UNL     1       3.120  -5.606  -5.375  0.00  0.00    +0.240 C 
ATOM      8  N   UNL     1       3.296  -4.180  -5.694  0.00  0.00    -0.170 NA
ATOM      9  N   UNL     1       2.770  -3.519  -4.796  0.00  0.00    -0.153 NA
BRANCH   5  14
ATOM     10  C   UNL     1       0.777  -1.810  -1.336  0.00  0.00    +0.121 A 
ATOM     11  C   UNL     1       0.242  -2.668  -0.385  0.00  0.00    +0.045 A 
ATOM     12  C   UNL     1       0.347  -4.037  -0.546  0.00  0.00    +0.004 A 
ATOM     13  C   UNL     1       0.985  -4.558  -1.654  0.00  0.00    +0.010 A 
ATOM     14  C   UNL     1       1.525  -3.704  -2.613  0.00  0.00    +0.005 A 
ATOM     15  C   UNL     1       1.413  -2.325  -2.453  0.00  0.00    +0.055 A 
BRANCH  10  16
ATOM     16  O   UNL     1       0.671  -0.465  -1.174  0.00  0.00    -0.492 OA
BRANCH  16  18
ATOM     17  C   UNL     1      -0.019   1.526   0.010  0.00  0.00    +0.048 C 
ATOM     18  C   UNL     1       0.002  -0.004   0.002  0.00  0.00    +0.225 C 
ENDBRANCH  16  18
ENDBRANCH  10  16
ENDBRANCH   5  14
ENDBRANCH   1   7
BRANCH   3  19
ATOM     19  N   UNL     1       1.510  -8.286  -7.477  0.00  0.00    -0.188 NA
ATOM     20  C   UNL     1       1.470  -9.582  -7.524  0.00  0.00    +0.142 C 
BRANCH  20  21
ATOM     21  C   UNL     1       0.675 -10.258  -8.565  0.00  0.00    +0.037 A 
ATOM     22  C   UNL     1       0.624 -11.653  -8.615  0.00  0.00    +0.028 A 
ATOM     23  C   UNL     1      -0.122 -12.279  -9.592  0.00  0.00    +0.019 A 
ATOM     24  C   UNL     1      -0.822 -11.530 -10.523  0.00  0.00    +0.019 A 
ATOM     25  C   UNL     1      -0.779 -10.149 -10.484  0.00  0.00    +0.047 A 
ATOM     26  C   UNL     1      -0.039  -9.504  -9.506  0.00  0.00    +0.126 A 
ATOM     27 BR   UNL     1      -0.190 -14.168  -9.659  0.00  0.00    -0.050 Br
BRANCH  26  28
ATOM     28  O   UNL     1      -0.001  -8.147  -9.463  0.00  0.00    -0.506 OA
ATOM     29  H   UNL     1       0.713  -7.757  -9.986  0.00  0.00    +0.292 HD
ENDBRANCH  26  28
ENDBRANCH  20  21
ENDBRANCH   3  19
TORSDOF 7
