REMARK  Name = ZINC32708056
REMARK  7 active torsions:
REMARK  status: ('A' for Active; 'I' for Inactive)
REMARK    1  A    between atoms: C_1  and  C_2
REMARK    2  A    between atoms: C_2  and  N_3
REMARK    3  A    between atoms: C_7  and  S_25
REMARK    4  A    between atoms: C_11  and  S_12
REMARK    5  A    between atoms: S_12  and  C_13
REMARK    6  A    between atoms: C_13  and  C_14
REMARK    7  A    between atoms: S_25  and  N_28
REMARK                            x       y       z     vdW  Elec       q    Type
REMARK                         _______ _______ _______ _____ _____    ______ ____
ROOT
ATOM      1  N   UNL     1       0.711  -0.489   1.189  0.00  0.00    -0.319 N 
ATOM      2  C   UNL     1       2.069  -0.740   1.290  0.00  0.00    +0.070 A 
ATOM      3  C   UNL     1       3.134  -0.636   0.407  0.00  0.00    +0.030 A 
ATOM      4  C   UNL     1       4.406  -0.972   0.823  0.00  0.00    +0.030 A 
ATOM      5  C   UNL     1       4.628  -1.413   2.119  0.00  0.00    +0.108 A 
ATOM      6  C   UNL     1       3.583  -1.523   3.009  0.00  0.00    +0.058 A 
ATOM      7  C   UNL     1       2.288  -1.186   2.603  0.00  0.00    +0.092 A 
ATOM      8  N   UNL     1       1.084  -1.188   3.232  0.00  0.00    -0.222 NA
ATOM      9  C   UNL     1       0.155  -0.773   2.405  0.00  0.00    +0.170 A 
ENDROOT
BRANCH   5  10
ATOM     10  S   UNL     1       6.260  -1.837   2.631  0.00  0.00    +0.061 S 
ATOM     11  O   UNL     1       6.122  -2.740   3.720  0.00  0.00    -0.153 OA
ATOM     12  O   UNL     1       6.981  -2.169   1.453  0.00  0.00    -0.153 OA
BRANCH  10  13
ATOM     13  N   UNL     1       6.955  -0.463   3.240  0.00  0.00    -0.177 NA
ATOM     14  C   UNL     1       7.700   0.451   2.364  0.00  0.00    +0.109 C 
ATOM     15  C   UNL     1       7.129   1.863   2.524  0.00  0.00    +0.017 C 
ATOM     16  C   UNL     1       7.152   2.253   4.004  0.00  0.00    +0.003 C 
ATOM     17  C   UNL     1       6.276   1.285   4.802  0.00  0.00    +0.017 C 
ATOM     18  C   UNL     1       6.832  -0.131   4.666  0.00  0.00    +0.109 C 
ENDBRANCH  10  13
ENDBRANCH   5  10
BRANCH   1  20
ATOM     19  C   UNL     1      -0.019   1.526   0.010  0.00  0.00    +0.027 C 
ATOM     20  C   UNL     1       0.002  -0.004   0.002  0.00  0.00    +0.121 C 
ENDBRANCH   1  20
BRANCH   9  21
ATOM     21  S   UNL     1      -1.554  -0.611   2.800  0.00  0.00    -0.080 S 
BRANCH  21  22
ATOM     22  C   UNL     1      -1.655  -1.132   4.535  0.00  0.00    +0.151 C 
BRANCH  22  23
ATOM     23  C   UNL     1      -3.083  -1.039   5.005  0.00  0.00    +0.121 A 
ATOM     24  N   UNL     1      -3.365  -1.384   6.289  0.00  0.00    -0.309 N 
ATOM     25  H   UNL     1      -2.657  -1.681   6.883  0.00  0.00    +0.170 HD
ATOM     26  C   UNL     1      -4.643  -1.309   6.732  0.00  0.00    +0.266 A 
ATOM     27  O   UNL     1      -4.928  -1.611   7.879  0.00  0.00    -0.267 OA
ATOM     28  C   UNL     1      -5.623  -0.875   5.840  0.00  0.00    +0.102 A 
ATOM     29  C   UNL     1      -5.306  -0.524   4.516  0.00  0.00    +0.085 A 
ATOM     30  N   UNL     1      -3.982  -0.631   4.167  0.00  0.00    -0.232 NA
ATOM     31  C   UNL     1      -6.386  -0.106   3.727  0.00  0.00    +0.036 A 
ATOM     32  C   UNL     1      -7.631  -0.059   4.249  0.00  0.00    +0.048 A 
ATOM     33  S   UNL     1      -7.375  -0.613   5.926  0.00  0.00    -0.090 S 
ENDBRANCH  22  23
ENDBRANCH  21  22
ENDBRANCH   9  21
TORSDOF 6
