REMARK  Name = ZINC12920156
REMARK  9 active torsions:
REMARK  status: ('A' for Active; 'I' for Inactive)
REMARK    1  A    between atoms: C_1  and  C_2
REMARK    2  A    between atoms: C_2  and  C_3
REMARK    3  A    between atoms: C_2  and  C_4
REMARK    4  A    between atoms: C_2  and  C_5
REMARK    5  A    between atoms: C_7  and  N_18
REMARK    6  A    between atoms: N_8  and  C_10
REMARK    7  A    between atoms: C_19  and  C_21
REMARK    8  A    between atoms: C_21  and  O_22
REMARK    9  A    between atoms: O_22  and  C_23
REMARK                            x       y       z     vdW  Elec       q    Type
REMARK                         _______ _______ _______ _____ _____    ______ ____
ROOT
ATOM      1  N   UNL     1      -0.011   0.966   0.007  0.00  0.00    -0.268 N 
ATOM      2  C   UNL     1       1.147   1.655   0.000  0.00  0.00    +0.256 C 
ATOM      3  O   UNL     1       1.130   2.868   0.007  0.00  0.00    -0.272 OA
ATOM      4  H   UNL     1       0.002  -0.004   0.002  0.00  0.00    +0.156 HD
ENDROOT
BRANCH   1   7
ATOM      5  C   UNL     1      -2.767   3.260   0.032  0.00  0.00    +0.070 A 
ATOM      6  C   UNL     1      -1.394   2.998   0.025  0.00  0.00    +0.069 A 
ATOM      7  C   UNL     1      -1.228   1.647   0.017  0.00  0.00    +0.124 A 
ATOM      8  N   UNL     1      -2.458   1.085   0.014  0.00  0.00    -0.246 N 
ATOM      9  N   UNL     1      -3.404   2.118   0.029  0.00  0.00    -0.174 NA
BRANCH   8  10
ATOM     10  C   UNL     1      -2.750  -0.351   0.001  0.00  0.00    +0.132 C 
ATOM     11  C   UNL     1      -3.593  -0.699  -1.237  0.00  0.00    +0.051 C 
ATOM     12  C   UNL     1      -4.172  -2.127  -1.097  0.00  0.00    +0.168 C 
ATOM     13  S   UNL     1      -4.302  -2.334   0.725  0.00  0.00    -0.029 S 
ATOM     14  O   UNL     1      -3.447  -3.394   1.132  0.00  0.00    -0.174 OA
ATOM     15  O   UNL     1      -5.674  -2.362   1.091  0.00  0.00    -0.174 OA
ATOM     16  C   UNL     1      -3.569  -0.732   1.267  0.00  0.00    +0.192 C 
ENDBRANCH   8  10
BRANCH   5  18
ATOM     17  C   UNL     1      -3.287   5.254  -1.348  0.00  0.00    +0.017 C 
ATOM     18  C   UNL     1      -3.404   4.626   0.042  0.00  0.00    +0.006 C 
ATOM     19  C   UNL     1      -4.880   4.497   0.421  0.00  0.00    +0.017 C 
ATOM     20  C   UNL     1      -2.690   5.514   1.064  0.00  0.00    +0.017 C 
ENDBRANCH   5  18
ENDBRANCH   1   7
BRANCH   2  21
ATOM     21  C   UNL     1       2.462   0.920  -0.017  0.00  0.00    +0.324 C 
BRANCH  21  22
ATOM     22  O   UNL     1       3.535   1.863  -0.022  0.00  0.00    -0.483 OA
BRANCH  22  23
ATOM     23  C   UNL     1       4.799   1.361  -0.036  0.00  0.00    +0.122 A 
ATOM     24  C   UNL     1       4.998  -0.017  -0.040  0.00  0.00    +0.049 A 
ATOM     25  C   UNL     1       6.272  -0.541  -0.061  0.00  0.00    +0.050 A 
ATOM     26  C   UNL     1       7.373   0.305  -0.066  0.00  0.00    +0.136 A 
ATOM     27  C   UNL     1       7.175   1.697  -0.058  0.00  0.00    +0.027 A 
ATOM     28  C   UNL     1       5.881   2.219  -0.042  0.00  0.00    +0.057 A 
ATOM     29  C   UNL     1       8.517   2.276  -0.068  0.00  0.00    +0.001 A 
ATOM     30  C   UNL     1       9.382   1.248  -0.082  0.00  0.00    +0.109 A 
ATOM     31  O   UNL     1       8.706   0.088  -0.079  0.00  0.00    -0.459 OA
ATOM     32  C   UNL     1      10.883   1.420  -0.099  0.00  0.00    +0.075 C 
ATOM     33  C   UNL     1      11.204   2.858  -0.522  0.00  0.00    +0.008 C 
ATOM     34  C   UNL     1      10.386   3.836   0.327  0.00  0.00    +0.005 C 
ATOM     35  C   UNL     1       8.906   3.731  -0.063  0.00  0.00    +0.039 C 
ENDBRANCH  22  23
ENDBRANCH  21  22
ENDBRANCH   2  21
TORSDOF 6
