REMARK  Name = ZINC16010240
REMARK  6 active torsions:
REMARK  status: ('A' for Active; 'I' for Inactive)
REMARK    1  A    between atoms: C_1  and  C_2
REMARK    2  A    between atoms: C_2  and  C_3
REMARK    3  A    between atoms: N_21  and  C_24
REMARK    4  A    between atoms: C_26  and  N_32
REMARK    5  A    between atoms: C_29  and  O_30
REMARK    6  A    between atoms: O_30  and  C_31
REMARK                            x       y       z     vdW  Elec       q    Type
REMARK                         _______ _______ _______ _____ _____    ______ ____
ROOT
ATOM      1  C   UNL     1       4.337   9.134   1.724  0.00  0.00    -0.047 A 
ATOM      2  C   UNL     1       4.918   9.265   2.973  0.00  0.00    +0.005 A 
ATOM      3  C   UNL     1       5.621   8.215   3.525  0.00  0.00    +0.024 A 
ATOM      4  C   UNL     1       5.752   7.015   2.829  0.00  0.00    +0.036 A 
ATOM      5  C   UNL     1       5.163   6.894   1.574  0.00  0.00    -0.027 A 
ATOM      6  C   UNL     1       4.462   7.946   1.027  0.00  0.00    +0.008 A 
ATOM      7  C   UNL     1       5.481   5.503   1.099  0.00  0.00    +0.053 C 
ATOM      8  C   UNL     1       4.324   4.703   0.684  0.00  0.00    +0.089 C 
ATOM      9  C   UNL     1       3.976   5.355  -0.713  0.00  0.00    +0.074 C 
ATOM     10  C   UNL     1       5.389   5.345  -1.308  0.00  0.00    -0.054 C 
ATOM     11  C   UNL     1       7.295   4.474  -0.121  0.00  0.00    -0.076 C 
ATOM     12  C   UNL     1       7.260   3.838  -1.532  0.00  0.00    -0.020 C 
ATOM     13  C   UNL     1       5.758   3.973  -1.902  0.00  0.00    -0.016 C 
ATOM     14  C   UNL     1       2.999   4.292  -1.141  0.00  0.00    +0.229 C 
ATOM     15  O   UNL     1       2.818   3.871  -2.264  0.00  0.00    -0.275 OA
ATOM     16  N   UNL     1       2.358   3.901   0.001  0.00  0.00    -0.206 N 
ATOM     17  C   UNL     1       3.020   4.287   1.140  0.00  0.00    +0.230 C 
ATOM     18  O   UNL     1       2.601   4.279   2.277  0.00  0.00    -0.275 OA
ATOM     19  C   UNL     1       6.297   4.894   2.212  0.00  0.00    +0.212 C 
ATOM     20  O   UNL     1       6.764   3.775   2.237  0.00  0.00    -0.277 OA
ATOM     21  N   UNL     1       6.406   5.831   3.172  0.00  0.00    -0.286 N 
ATOM     22  H   UNL     1       6.884   5.698   4.005  0.00  0.00    +0.155 HD
ATOM     23  N   UNL     1       6.291   5.548  -0.148  0.00  0.00    +0.395 N 
ATOM     24  H   UNL     1       6.760   6.458  -0.226  0.00  0.00    -0.079 HD
ENDROOT
BRANCH  16  25
ATOM     25  C   UNL     1       1.155   3.177   0.008  0.00  0.00    +0.088 A 
ATOM     26  C   UNL     1      -0.059   3.847   0.022  0.00  0.00    +0.060 A 
ATOM     27  C   UNL     1      -1.242   3.133   0.030  0.00  0.00    +0.128 A 
ATOM     28  C   UNL     1      -1.219   1.750   0.017  0.00  0.00    +0.036 A 
ATOM     29  C   UNL     1      -0.013   1.076   0.008  0.00  0.00    +0.050 A 
ATOM     30  C   UNL     1       1.178   1.785   0.000  0.00  0.00    +0.142 A 
BRANCH  27  31
ATOM     31  N   UNL     1      -2.537   3.850   0.046  0.00  0.00    +0.056 N 
ATOM     32  O   UNL     1      -2.559   5.068   0.053  0.00  0.00    -0.126 OA
ATOM     33  O   UNL     1      -3.580   3.222   0.053  0.00  0.00    -0.126 OA
ENDBRANCH  27  31
BRANCH  30  34
ATOM     34  O   UNL     1       2.365   1.123  -0.014  0.00  0.00    -0.493 OA
ATOM     35  C   UNL     1       2.312  -0.305  -0.020  0.00  0.00    +0.277 C 
ENDBRANCH  30  34
ENDBRANCH  16  25
BRANCH   1  37
ATOM     36  C   UNL     1       2.099  10.185   1.536  0.00  0.00    +0.009 C 
ATOM     37  C   UNL     1       3.569  10.284   1.125  0.00  0.00    +0.032 C 
ENDBRANCH   1  37
TORSDOF 4
