REMARK  Name = ZINC38994384
REMARK  6 active torsions:
REMARK  status: ('A' for Active; 'I' for Inactive)
REMARK    1  A    between atoms: C_4  and  C_7
REMARK    2  A    between atoms: C_7  and  O_8
REMARK    3  A    between atoms: O_8  and  C_9
REMARK    4  A    between atoms: C_13  and  C_15
REMARK    5  A    between atoms: C_17  and  C_21
REMARK    6  A    between atoms: N_23  and  N_24
REMARK                            x       y       z     vdW  Elec       q    Type
REMARK                         _______ _______ _______ _____ _____    ______ ____
ROOT
ATOM      1  C   UNL     1       7.510  -2.843   4.264  0.00  0.00    +0.092 C 
ATOM      2  C   UNL     1       8.664  -3.484   4.530  0.00  0.00    +0.041 C 
ATOM      3  C   UNL     1       8.717  -3.525   6.047  0.00  0.00    +0.240 C 
ATOM      4  N   UNL     1       7.476  -2.840   6.444  0.00  0.00    -0.170 NA
ATOM      5  N   UNL     1       6.883  -2.498   5.419  0.00  0.00    -0.153 NA
ENDROOT
BRANCH   1  10
ATOM      6  C   UNL     1       5.319  -1.605   1.466  0.00  0.00    +0.122 A 
ATOM      7  C   UNL     1       6.048  -2.007   0.356  0.00  0.00    +0.046 A 
ATOM      8  C   UNL     1       7.246  -2.677   0.516  0.00  0.00    +0.004 A 
ATOM      9  C   UNL     1       7.724  -2.951   1.782  0.00  0.00    +0.010 A 
ATOM     10  C   UNL     1       6.998  -2.550   2.902  0.00  0.00    +0.005 A 
ATOM     11  C   UNL     1       5.794  -1.870   2.740  0.00  0.00    +0.055 A 
BRANCH   6  12
ATOM     12  O   UNL     1       4.141  -0.946   1.304  0.00  0.00    -0.487 OA
BRANCH  12  13
ATOM     13  C   UNL     1       3.711  -0.707  -0.038  0.00  0.00    +0.264 C 
BRANCH  13  17
ATOM     14  C   UNL     1      -0.017   1.378   0.010  0.00  0.00    +0.000 A 
ATOM     15  C   UNL     1       1.171   2.086   0.002  0.00  0.00    +0.000 A 
ATOM     16  C   UNL     1       2.377   1.411  -0.013  0.00  0.00    +0.007 A 
ATOM     17  C   UNL     1       2.396   0.029  -0.020  0.00  0.00    -0.010 A 
ATOM     18  C   UNL     1       1.208  -0.679  -0.012  0.00  0.00    +0.007 A 
ATOM     19  C   UNL     1       0.002  -0.004   0.002  0.00  0.00    +0.000 A 
ENDBRANCH  13  17
ENDBRANCH  12  13
ENDBRANCH   6  12
ENDBRANCH   1  10
BRANCH   3  20
ATOM     20  C   UNL     1       8.726  -4.948   6.541  0.00  0.00    +0.263 C 
ATOM     21  O   UNL     1       7.702  -5.455   6.949  0.00  0.00    -0.271 OA
ATOM     22  N   UNL     1       9.871  -5.658   6.531  0.00  0.00    -0.204 N 
ATOM     23  H   UNL     1      10.690  -5.253   6.205  0.00  0.00    +0.177 HD
BRANCH  22  24
ATOM     24  N   UNL     1       9.880  -6.981   6.991  0.00  0.00    -0.174 NA
ATOM     25  C   UNL     1      10.993  -7.672   6.981  0.00  0.00    +0.153 C 
ATOM     26  C   UNL     1      11.191  -9.073   7.419  0.00  0.00    +0.029 A 
ATOM     27  C   UNL     1      10.334 -10.037   7.940  0.00  0.00    +0.027 A 
ATOM     28  C   UNL     1      10.825 -11.288   8.261  0.00  0.00    +0.019 A 
ATOM     29  C   UNL     1      12.165 -11.579   8.064  0.00  0.00    +0.017 A 
ATOM     30  C   UNL     1      13.022 -10.628   7.547  0.00  0.00    +0.025 A 
ATOM     31  C   UNL     1      12.546  -9.364   7.218  0.00  0.00    +0.043 A 
ATOM     32  N   UNL     1      13.183  -8.245   6.692  0.00  0.00    -0.280 N 
ATOM     33  C   UNL     1      12.325  -7.224   6.524  0.00  0.00    +0.269 C 
ATOM     34  O   UNL     1      12.598  -6.125   6.079  0.00  0.00    -0.268 OA
ATOM     35 BR   UNL     1       9.667 -12.603   8.971  0.00  0.00    -0.050 Br
ATOM     36  H   UNL     1      14.127  -8.208   6.470  0.00  0.00    +0.155 HD
ENDBRANCH  22  24
ENDBRANCH   3  20
TORSDOF 6
