REMARK  Name = ZINC40037931
REMARK  9 active torsions:
REMARK  status: ('A' for Active; 'I' for Inactive)
REMARK    1  A    between atoms: C_1  and  C_2
REMARK    2  A    between atoms: C_10  and  C_11
REMARK    3  A    between atoms: N_13  and  C_14
REMARK    4  A    between atoms: C_15  and  C_23
REMARK    5  A    between atoms: N_25  and  C_26
REMARK    6  A    between atoms: C_26  and  C_27
REMARK    7  A    between atoms: C_27  and  C_28
REMARK    8  A    between atoms: C_28  and  O_29
REMARK    9  A    between atoms: O_29  and  C_30
REMARK                            x       y       z     vdW  Elec       q    Type
REMARK                         _______ _______ _______ _____ _____    ______ ____
ROOT
ATOM      1  C   UNL     1       0.061  -0.873   4.799  0.00  0.00    +0.085 A 
ATOM      2  C   UNL     1       0.089  -1.657   5.941  0.00  0.00    +0.069 A 
ATOM      3  C   UNL     1       0.091  -0.968   7.220  0.00  0.00    -0.023 A 
ATOM      4  C   UNL     1       0.065   0.379   7.122  0.00  0.00    -0.004 A 
ATOM      5  S   UNL     1       0.046   0.702   5.383  0.00  0.00    -0.077 S 
ATOM      6  C   UNL     1       0.059   1.363   8.250  0.00  0.00    +0.043 C 
ATOM      7  C   UNL     1      -0.294   0.613   9.543  0.00  0.00    +0.005 C 
ATOM      8  C   UNL     1       0.567  -0.650   9.633  0.00  0.00    +0.005 C 
ATOM      9  C   UNL     1       0.121  -1.661   8.574  0.00  0.00    +0.037 C 
ENDROOT
BRANCH   1  12
ATOM     10  C   UNL     1       0.032  -0.383   2.483  0.00  0.00    +0.284 C 
ATOM     11  O   UNL     1       0.018   0.805   2.745  0.00  0.00    -0.266 OA
ATOM     12  N   UNL     1       0.054  -1.291   3.478  0.00  0.00    -0.273 N 
ATOM     13  H   UNL     1       0.065  -2.239   3.270  0.00  0.00    +0.156 HD
BRANCH  10  23
ATOM     14  C   UNL     1      -0.018   1.503   0.010  0.00  0.00    +0.048 C 
ATOM     15  C   UNL     1       0.002  -0.004   0.002  0.00  0.00    +0.008 A 
ATOM     16  C   UNL     1       0.009  -0.877  -1.171  0.00  0.00    +0.025 A 
ATOM     17  C   UNL     1      -0.001  -0.654  -2.550  0.00  0.00    +0.027 A 
ATOM     18  C   UNL     1       0.009  -1.718  -3.409  0.00  0.00    +0.019 A 
ATOM     19  C   UNL     1       0.029  -3.018  -2.918  0.00  0.00    +0.019 A 
ATOM     20  C   UNL     1       0.039  -3.258  -1.561  0.00  0.00    +0.048 A 
ATOM     21  C   UNL     1       0.029  -2.191  -0.669  0.00  0.00    +0.136 A 
ATOM     22  O   UNL     1       0.035  -2.113   0.676  0.00  0.00    -0.450 OA
ATOM     23  C   UNL     1       0.024  -0.827   1.083  0.00  0.00    +0.194 A 
ATOM     24 BR   UNL     1      -0.004  -1.419  -5.276  0.00  0.00    -0.050 Br
ENDBRANCH  10  23
ENDBRANCH   1  12
BRANCH   2  25
ATOM     25  C   UNL     1       0.114  -3.121   5.863  0.00  0.00    +0.247 C 
ATOM     26  O   UNL     1       1.179  -3.710   5.818  0.00  0.00    -0.270 OA
ATOM     27  N   UNL     1      -1.041  -3.814   5.840  0.00  0.00    -0.311 N 
ATOM     28  H   UNL     1      -1.889  -3.345   5.876  0.00  0.00    +0.149 HD
BRANCH  27  29
ATOM     29  C   UNL     1      -1.016  -5.277   5.762  0.00  0.00    +0.107 C 
BRANCH  29  30
ATOM     30  C   UNL     1      -2.449  -5.812   5.751  0.00  0.00    +0.047 C 
BRANCH  30  31
ATOM     31  C   UNL     1      -2.423  -7.340   5.669  0.00  0.00    +0.161 C 
BRANCH  31  32
ATOM     32  O   UNL     1      -3.762  -7.839   5.659  0.00  0.00    -0.383 OA
ATOM     33  C   UNL     1      -3.850  -9.264   5.584  0.00  0.00    +0.193 C 
ENDBRANCH  31  32
ENDBRANCH  30  31
ENDBRANCH  29  30
ENDBRANCH  27  29
ENDBRANCH   2  25
TORSDOF 7
