REMARK  Name = ZINC33937096
REMARK  11 active torsions:
REMARK  status: ('A' for Active; 'I' for Inactive)
REMARK    1  A    between atoms: C_1  and  C_2
REMARK    2  A    between atoms: C_2  and  C_3
REMARK    3  A    between atoms: C_3  and  C_5
REMARK    4  A    between atoms: C_3  and  N_17
REMARK    5  A    between atoms: N_9  and  C_10
REMARK    6  A    between atoms: C_10  and  C_11
REMARK    7  A    between atoms: N_17  and  C_18
REMARK    8  A    between atoms: N_17  and  C_26
REMARK    9  A    between atoms: C_18  and  C_19
REMARK   10  A    between atoms: C_22  and  C_25
REMARK   11  A    between atoms: C_26  and  C_27
REMARK                            x       y       z     vdW  Elec       q    Type
REMARK                         _______ _______ _______ _____ _____    ______ ____
ROOT
ATOM      1  N   UNL     1      -2.713   0.123  -2.465  0.00  0.00    +0.392 N 
ATOM      2  H   UNL     1      -2.348   0.400  -3.364  0.00  0.00    -0.080 HD
ENDROOT
BRANCH   1   3
ATOM      3  C   UNL     1      -2.611  -1.335  -2.322  0.00  0.00    +0.003 C 
BRANCH   3   4
ATOM      4  C   UNL     1      -3.242  -2.002  -3.517  0.00  0.00    +0.138 A 
ATOM      5  N   UNL     1      -3.074  -1.675  -4.775  0.00  0.00    -0.115 NA
ATOM      6  N   UNL     1      -3.779  -2.480  -5.493  0.00  0.00    -0.023 NA
ATOM      7  N   UNL     1      -4.391  -3.313  -4.726  0.00  0.00    -0.044 NA
ATOM      8  N   UNL     1      -4.081  -3.054  -3.500  0.00  0.00    -0.228 N 
BRANCH   8   9
ATOM      9  C   UNL     1      -4.557  -3.769  -2.313  0.00  0.00    +0.178 C 
BRANCH   9  10
ATOM     10  C   UNL     1      -5.847  -3.119  -1.809  0.00  0.00    +0.140 C 
ATOM     11  C   UNL     1      -6.417  -3.914  -0.608  0.00  0.00    +0.035 C 
ATOM     12  C   UNL     1      -7.245  -2.813   0.109  0.00  0.00    +0.031 C 
ATOM     13  C   UNL     1      -6.402  -1.547  -0.154  0.00  0.00    +0.160 C 
ATOM     14  O   UNL     1      -5.576  -1.804  -1.297  0.00  0.00    -0.375 OA
ENDBRANCH   9  10
ENDBRANCH   8   9
ENDBRANCH   3   4
BRANCH   3  16
ATOM     15  C   UNL     1      -0.809  -2.152  -0.796  0.00  0.00    +0.002 C 
ATOM     16  C   UNL     1      -1.138  -1.737  -2.231  0.00  0.00    -0.011 C 
ENDBRANCH   3  16
ENDBRANCH   1   3
BRANCH   1  17
ATOM     17  C   UNL     1      -4.122   0.528  -2.364  0.00  0.00    -0.042 C 
BRANCH  17  18
ATOM     18  C   UNL     1      -4.267   1.958  -2.817  0.00  0.00    -0.064 A 
ATOM     19  C   UNL     1      -4.226   2.984  -1.891  0.00  0.00    +0.002 A 
ATOM     20  C   UNL     1      -4.360   4.296  -2.306  0.00  0.00    +0.003 A 
ATOM     21  C   UNL     1      -4.534   4.582  -3.648  0.00  0.00    -0.050 A 
ATOM     22  C   UNL     1      -4.574   3.556  -4.574  0.00  0.00    +0.003 A 
ATOM     23  C   UNL     1      -4.436   2.244  -4.159  0.00  0.00    +0.002 A 
ATOM     24  C   UNL     1      -4.680   6.011  -4.100  0.00  0.00    +0.044 C 
ENDBRANCH  17  18
ENDBRANCH   1  17
BRANCH   1  25
ATOM     25  C   UNL     1      -1.939   0.775  -1.400  0.00  0.00    -0.036 C 
BRANCH  25  26
ATOM     26  C   UNL     1      -0.559   1.100  -1.909  0.00  0.00    +0.001 A 
ATOM     27  C   UNL     1      -0.387   1.481  -3.201  0.00  0.00    +0.017 A 
ATOM     28  C   UNL     1       0.965   1.789  -3.665  0.00  0.00    +0.002 A 
ATOM     29  C   UNL     1       1.202   2.185  -4.987  0.00  0.00    +0.059 A 
ATOM     30  C   UNL     1       2.486   2.468  -5.396  0.00  0.00    +0.167 A 
ATOM     31  C   UNL     1       3.553   2.362  -4.495  0.00  0.00    +0.168 A 
ATOM     32  C   UNL     1       3.329   1.971  -3.187  0.00  0.00    +0.075 A 
ATOM     33  C   UNL     1       2.039   1.682  -2.760  0.00  0.00    +0.053 A 
ATOM     34  N   UNL     1       1.796   1.290  -1.459  0.00  0.00    -0.322 N 
ATOM     35  H   UNL     1       2.536   1.217  -0.836  0.00  0.00    +0.169 HD
ATOM     36  C   UNL     1       0.548   1.013  -1.041  0.00  0.00    +0.251 A 
ATOM     37  O   UNL     1       0.371   0.673   0.116  0.00  0.00    -0.268 OA
ATOM     38  O   UNL     1       4.705   2.694  -5.146  0.00  0.00    -0.453 OA
ATOM     39  C   UNL     1       4.394   2.606  -6.549  0.00  0.00    +0.466 C 
ATOM     40  O   UNL     1       2.979   2.867  -6.606  0.00  0.00    -0.453 OA
ENDBRANCH  25  26
ENDBRANCH   1  25
TORSDOF 9
