REMARK  Name = ZINC06178029
REMARK  7 active torsions:
REMARK  status: ('A' for Active; 'I' for Inactive)
REMARK    1  A    between atoms: C_1  and  C_2
REMARK    2  A    between atoms: C_4  and  C_38
REMARK    3  A    between atoms: C_9  and  C_14
REMARK    4  A    between atoms: C_14  and  C_16
REMARK    5  A    between atoms: C_14  and  N_69
REMARK    6  A    between atoms: N_20  and  C_21
REMARK    7  A    between atoms: N_28  and  C_31
REMARK                            x       y       z     vdW  Elec       q    Type
REMARK                         _______ _______ _______ _____ _____    ______ ____
ROOT
ATOM      1  C   UNL     1       1.669   7.546  -1.035  0.00  0.00    +0.039 C 
ENDROOT
BRANCH   1  10
ATOM      2  C   UNL     1      -3.882  11.589  -3.944  0.00  0.00    +0.044 C 
ATOM      3  C   UNL     1      -2.717  10.648  -4.107  0.00  0.00    -0.050 A 
ATOM      4  C   UNL     1      -2.358  10.210  -5.375  0.00  0.00    +0.008 A 
ATOM      5  C   UNL     1      -1.296   9.350  -5.547  0.00  0.00    -0.026 A 
ATOM      6  C   UNL     1      -0.575   8.913  -4.440  0.00  0.00    +0.052 A 
ATOM      7  C   UNL     1      -0.942   9.359  -3.157  0.00  0.00    -0.001 A 
ATOM      8  C   UNL     1      -2.023  10.232  -3.006  0.00  0.00    +0.013 A 
ATOM      9  C   UNL     1      -0.180   8.889  -1.998  0.00  0.00    +0.017 A 
ATOM     10  C   UNL     1       0.861   8.045  -2.206  0.00  0.00    +0.011 A 
ATOM     11  C   UNL     1       1.188   7.629  -3.514  0.00  0.00    +0.251 A 
ATOM     12  O   UNL     1       2.125   6.867  -3.678  0.00  0.00    -0.268 OA
ATOM     13  N   UNL     1       0.492   8.051  -4.584  0.00  0.00    -0.322 N 
ATOM     14  H   UNL     1       0.743   7.745  -5.469  0.00  0.00    +0.169 HD
ATOM     15  C   UNL     1      -0.916   8.883  -6.929  0.00  0.00    +0.046 C 
ENDBRANCH   1  10
BRANCH   1  21
ATOM     16  C   UNL     1       2.466   5.554   0.088  0.00  0.00    -0.058 C 
ATOM     17  C   UNL     1       2.526   4.028  -0.001  0.00  0.00    +0.086 C 
ATOM     18  N   UNL     1       1.161   3.485   0.009  0.00  0.00    -0.333 N 
ATOM     19  C   UNL     1       0.381   4.008  -1.121  0.00  0.00    +0.086 C 
ATOM     20  C   UNL     1       0.320   5.535  -1.032  0.00  0.00    -0.058 C 
ATOM     21  N   UNL     1       1.698   6.069  -1.066  0.00  0.00    +0.391 N 
ATOM     22  H   UNL     1       2.154   5.762  -1.933  0.00  0.00    -0.080 HD
BRANCH  18  23
ATOM     23  C   UNL     1       1.177   2.087   0.002  0.00  0.00    +0.030 A 
ATOM     24  C   UNL     1      -0.017   1.377   0.010  0.00  0.00    +0.026 A 
ATOM     25  C   UNL     1       0.002  -0.004   0.002  0.00  0.00    +0.040 A 
ATOM     26  C   UNL     1       1.210  -0.681  -0.013  0.00  0.00    +0.124 A 
ATOM     27  C   UNL     1       2.401   0.025  -0.021  0.00  0.00    +0.040 A 
ATOM     28  C   UNL     1       2.387   1.406  -0.013  0.00  0.00    +0.026 A 
ATOM     29  F   UNL     1       1.226  -2.032  -0.020  0.00  0.00    -0.205 F 
ENDBRANCH  18  23
ENDBRANCH   1  21
BRANCH   1  30
ATOM     30  C   UNL     1       3.079   8.066  -1.140  0.00  0.00    +0.143 A 
ATOM     31  N   UNL     1       4.011   7.642  -1.958  0.00  0.00    -0.115 NA
ATOM     32  N   UNL     1       5.075   8.335  -1.744  0.00  0.00    -0.023 NA
ATOM     33  N   UNL     1       4.847   9.191  -0.809  0.00  0.00    -0.044 NA
ATOM     34  N   UNL     1       3.625   9.060  -0.415  0.00  0.00    -0.227 N 
BRANCH  34  35
ATOM     35  C   UNL     1       2.959   9.844   0.628  0.00  0.00    +0.111 C 
ATOM     36  C   UNL     1       3.002  11.344   0.271  0.00  0.00    +0.027 C 
ATOM     37  C   UNL     1       3.209  12.053   1.634  0.00  0.00    +0.002 C 
ATOM     38  C   UNL     1       4.180  11.098   2.372  0.00  0.00    +0.002 C 
ATOM     39  C   UNL     1       3.707   9.687   1.964  0.00  0.00    +0.027 C 
ENDBRANCH  34  35
ENDBRANCH   1  30
TORSDOF 5
