REMARK  Name = ZINC05016929
REMARK  3 active torsions:
REMARK  status: ('A' for Active; 'I' for Inactive)
REMARK    1  A    between atoms: C_3  and  N_20
REMARK    2  A    between atoms: C_6  and  C_7
REMARK    3  A    between atoms: C_10  and  C_12
REMARK                            x       y       z     vdW  Elec       q    Type
REMARK                         _______ _______ _______ _____ _____    ______ ____
ROOT
ATOM      1  C   UNL     1       1.018   3.240   0.009  0.00  0.00    +0.020 A 
ATOM      2  C   UNL     1       1.115   1.776   0.001  0.00  0.00    +0.017 A 
ATOM      3  C   UNL     1      -0.013   1.076   0.008  0.00  0.00    +0.016 A 
ATOM      4  C   UNL     1      -1.285   1.820   0.018  0.00  0.00    +0.014 A 
ATOM      5  S   UNL     1      -0.744   3.521   0.027  0.00  0.00    -0.089 S 
ENDROOT
BRANCH   4   6
ATOM      6  C   UNL     1      -2.580   1.322   0.022  0.00  0.00    +0.035 C 
ATOM      7  C   UNL     1      -3.671   2.204   0.031  0.00  0.00    +0.080 C 
ATOM      8  C   UNL     1      -5.135   1.898   0.037  0.00  0.00    +0.258 C 
ATOM      9  O   UNL     1      -5.554   0.759   0.033  0.00  0.00    -0.269 OA
ATOM     10  N   UNL     1      -5.947   2.944   0.046  0.00  0.00    -0.243 N 
ATOM     11  C   UNL     1      -5.444   4.194   0.050  0.00  0.00    +0.283 C 
ATOM     12  O   UNL     1      -6.051   5.247   0.058  0.00  0.00    -0.262 OA
ATOM     13  S   UNL     1      -3.679   3.940   0.048  0.00  0.00    -0.026 S 
ATOM     14  H   UNL     1      -6.907   2.810   0.050  0.00  0.00    +0.159 HD
ENDBRANCH   4   6
BRANCH   1  20
ATOM     15  C   UNL     1       3.441   3.806  -0.005  0.00  0.00    +0.011 A 
ATOM     16  C   UNL     1       4.450   4.741  -0.016  0.00  0.00    +0.033 A 
ATOM     17  C   UNL     1       4.147   6.095  -0.006  0.00  0.00    +0.126 A 
ATOM     18  C   UNL     1       2.827   6.520   0.009  0.00  0.00    +0.033 A 
ATOM     19  C   UNL     1       1.803   5.601   0.014  0.00  0.00    +0.011 A 
ATOM     20  C   UNL     1       2.099   4.226   0.004  0.00  0.00    -0.011 A 
BRANCH  17  21
ATOM     21  N   UNL     1       5.241   7.093  -0.012  0.00  0.00    +0.056 N 
ATOM     22  O   UNL     1       4.959   8.379  -0.003  0.00  0.00    -0.126 OA
ATOM     23  O   UNL     1       6.496   6.694  -0.026  0.00  0.00    -0.126 OA
ENDBRANCH  17  21
ENDBRANCH   1  20
TORSDOF 3
