REMARK  Name = ZINC16293902
REMARK  9 active torsions:
REMARK  status: ('A' for Active; 'I' for Inactive)
REMARK    1  A    between atoms: C_1  and  C_2
REMARK    2  A    between atoms: C_2  and  O_3
REMARK    3  A    between atoms: O_3  and  C_4
REMARK    4  A    between atoms: C_4  and  C_6
REMARK    5  A    between atoms: C_7  and  C_37
REMARK    6  A    between atoms: C_11  and  C_13
REMARK    7  A    between atoms: C_17  and  O_19
REMARK    8  A    between atoms: O_19  and  C_20
REMARK    9  A    between atoms: C_29  and  C_32
REMARK                            x       y       z     vdW  Elec       q    Type
REMARK                         _______ _______ _______ _____ _____    ______ ____
ROOT
ATOM      1  C   UNL     1      -3.828   4.130  -2.572  0.00  0.00    +0.154 C 
ATOM      2  C   UNL     1      -4.102   4.973  -1.561  0.00  0.00    +0.031 C 
ATOM      3  N   UNL     1      -3.202   5.156  -0.549  0.00  0.00    -0.260 NA
ATOM      4  C   UNL     1      -2.216   4.236  -0.316  0.00  0.00    +0.049 C 
ATOM      5  C   UNL     1      -1.864   3.353  -1.274  0.00  0.00    +0.025 C 
ATOM      6  C   UNL     1      -2.535   3.371  -2.624  0.00  0.00    +0.073 C 
ATOM      7  C   UNL     1      -0.864   2.392  -1.043  0.00  0.00    +0.162 C 
ATOM      8  O   UNL     1      -0.562   1.619  -1.930  0.00  0.00    -0.292 OA
ATOM      9  C   UNL     1      -0.159   2.304   0.283  0.00  0.00    +0.091 C 
ATOM     10  C   UNL     1      -1.099   2.809   1.384  0.00  0.00    +0.068 C 
ATOM     11  C   UNL     1      -1.536   4.234   1.030  0.00  0.00    +0.067 C 
ATOM     12  C   UNL     1      -5.410   5.722  -1.545  0.00  0.00    +0.061 C 
ENDROOT
BRANCH   6  13
ATOM     13  C   UNL     1      -1.620   4.031  -3.623  0.00  0.00    -0.035 A 
ATOM     14  C   UNL     1      -1.212   5.338  -3.429  0.00  0.00    +0.004 A 
ATOM     15  C   UNL     1      -0.372   5.946  -4.344  0.00  0.00    +0.004 A 
ATOM     16  C   UNL     1       0.062   5.248  -5.454  0.00  0.00    +0.046 A 
ATOM     17  C   UNL     1      -0.346   3.937  -5.652  0.00  0.00    +0.129 A 
ATOM     18  C   UNL     1      -1.184   3.327  -4.729  0.00  0.00    +0.050 A 
BRANCH  17  19
ATOM     19  O   UNL     1       0.080   3.249  -6.743  0.00  0.00    -0.456 OA
BRANCH  19  20
ATOM     20  C   UNL     1       0.913   3.881  -7.611  0.00  0.00    +0.128 A 
ATOM     21  C   UNL     1       0.393   4.598  -8.678  0.00  0.00    +0.046 A 
ATOM     22  C   UNL     1       1.242   5.243  -9.555  0.00  0.00    +0.004 A 
ATOM     23  C   UNL     1       2.611   5.167  -9.376  0.00  0.00    +0.000 A 
ATOM     24  C   UNL     1       3.133   4.448  -8.316  0.00  0.00    +0.004 A 
ATOM     25  C   UNL     1       2.288   3.805  -7.433  0.00  0.00    +0.046 A 
ENDBRANCH  19  20
ENDBRANCH  17  19
ENDBRANCH   6  13
BRANCH  10  26
ATOM     26  C   UNL     1      -0.374   2.813   2.705  0.00  0.00    +0.109 A 
ATOM     27  C   UNL     1      -0.733   2.119   3.801  0.00  0.00    +0.045 A 
ATOM     28  C   UNL     1       0.219   2.416   4.803  0.00  0.00    +0.041 A 
ATOM     29  C   UNL     1       1.103   3.272   4.260  0.00  0.00    +0.195 A 
ATOM     30  O   UNL     1       0.742   3.505   2.987  0.00  0.00    -0.468 OA
ENDBRANCH  10  26
BRANCH   1  31
ATOM     31  C   UNL     1      -4.779   3.953  -3.604  0.00  0.00    +0.317 C 
ATOM     32  O   UNL     1      -5.832   4.561  -3.572  0.00  0.00    -0.250 OA
BRANCH  31  33
ATOM     33  O   UNL     1      -4.517   3.109  -4.625  0.00  0.00    -0.464 OA
BRANCH  33  35
ATOM     34  C   UNL     1      -5.050   1.987  -6.698  0.00  0.00    +0.048 C 
ATOM     35  C   UNL     1      -5.522   2.979  -5.633  0.00  0.00    +0.229 C 
ENDBRANCH  33  35
ENDBRANCH  31  33
ENDBRANCH   1  31
TORSDOF 7
