REMARK  Name = ZINC10240548
REMARK  8 active torsions:
REMARK  status: ('A' for Active; 'I' for Inactive)
REMARK    1  A    between atoms: C_1  and  C_2
REMARK    2  A    between atoms: C_5  and  N_8
REMARK    3  A    between atoms: C_9  and  C_26
REMARK    4  A    between atoms: C_12  and  S_13
REMARK    5  A    between atoms: S_13  and  C_14
REMARK    6  A    between atoms: C_14  and  C_16
REMARK    7  A    between atoms: C_14  and  C_17
REMARK    8  A    between atoms: N_22  and  C_23
REMARK                            x       y       z     vdW  Elec       q    Type
REMARK                         _______ _______ _______ _____ _____    ______ ____
ROOT
ATOM      1  N   UNL     1       0.038  -0.004  -0.020  0.00  0.00    -0.270 N 
ATOM      2  C   UNL     1      -0.549  -0.840  -0.945  0.00  0.00    +0.169 A 
ATOM      3  N   UNL     1      -0.332  -2.071  -0.544  0.00  0.00    -0.128 NA
ATOM      4  N   UNL     1       0.333  -2.065   0.556  0.00  0.00    -0.122 NA
ATOM      5  C   UNL     1       0.587  -0.829   0.924  0.00  0.00    +0.197 A 
ENDROOT
BRANCH   1  10
ATOM      6  C   UNL     1       0.138   5.670  -0.097  0.00  0.00    +0.044 C 
ATOM      7  C   UNL     1       0.112   4.163  -0.076  0.00  0.00    -0.050 A 
ATOM      8  C   UNL     1       1.282   3.450  -0.262  0.00  0.00    +0.005 A 
ATOM      9  C   UNL     1       1.260   2.069  -0.243  0.00  0.00    +0.026 A 
ATOM     10  C   UNL     1       0.063   1.397  -0.038  0.00  0.00    +0.051 A 
ATOM     11  C   UNL     1      -1.111   2.116   0.142  0.00  0.00    +0.026 A 
ATOM     12  C   UNL     1      -1.083   3.497   0.128  0.00  0.00    +0.005 A 
ENDBRANCH   1  10
BRANCH   2  13
ATOM     13  C   UNL     1      -1.282  -0.428  -2.161  0.00  0.00    +0.020 A 
ATOM     14  C   UNL     1      -1.131   0.865  -2.666  0.00  0.00    +0.013 A 
ATOM     15  C   UNL     1      -1.813   1.242  -3.803  0.00  0.00    +0.021 A 
ATOM     16  C   UNL     1      -2.655   0.345  -4.438  0.00  0.00    +0.041 A 
ATOM     17  C   UNL     1      -2.814  -0.937  -3.939  0.00  0.00    +0.021 A 
ATOM     18  C   UNL     1      -2.132  -1.328  -2.805  0.00  0.00    +0.013 A 
ATOM     19 CL   UNL     1      -3.517   0.829  -5.865  0.00  0.00    -0.084 Cl
ENDBRANCH   2  13
BRANCH   5  20
ATOM     20  S   UNL     1       1.470  -0.328   2.364  0.00  0.00    -0.073 S 
BRANCH  20  21
ATOM     21  C   UNL     1       1.857  -1.947   3.075  0.00  0.00    +0.137 C 
ATOM     22  C   UNL     1       2.798  -2.704   2.135  0.00  0.00    +0.029 C 
BRANCH  21  23
ATOM     23  C   UNL     1       2.526  -1.761   4.412  0.00  0.00    +0.233 C 
ATOM     24  O   UNL     1       3.046  -0.702   4.688  0.00  0.00    -0.274 OA
ATOM     25  N   UNL     1       2.545  -2.773   5.302  0.00  0.00    -0.239 N 
ATOM     26  C   UNL     1       3.143  -2.608   6.499  0.00  0.00    +0.306 C 
ATOM     27  O   UNL     1       3.664  -1.545   6.775  0.00  0.00    -0.252 OA
ATOM     28  N   UNL     1       3.162  -3.620   7.389  0.00  0.00    -0.296 N 
ATOM     29  H   UNL     1       2.128  -3.621   5.082  0.00  0.00    +0.159 HD
ATOM     30  H   UNL     1       2.745  -4.467   7.168  0.00  0.00    +0.151 HD
BRANCH  28  31
ATOM     31  C   UNL     1       3.811  -3.439   8.689  0.00  0.00    +0.075 C 
ATOM     32  C   UNL     1       4.700  -4.576   9.199  0.00  0.00    +0.024 C 
ATOM     33  C   UNL     1       3.336  -4.322   9.845  0.00  0.00    +0.024 C 
ENDBRANCH  28  31
ENDBRANCH  21  23
ENDBRANCH  20  21
ENDBRANCH   5  20
TORSDOF 6
