REMARK  Name = ZINC51367028
REMARK  4 active torsions:
REMARK  status: ('A' for Active; 'I' for Inactive)
REMARK    1  A    between atoms: C_1  and  N_2
REMARK    2  A    between atoms: C_13  and  C_16
REMARK    3  A    between atoms: C_17  and  C_18
REMARK    4  A    between atoms: C_21  and  N_24
REMARK                            x       y       z     vdW  Elec       q    Type
REMARK                         _______ _______ _______ _____ _____    ______ ____
ROOT
ATOM      1  C   UNL     1      -0.018   1.465   0.010  0.00  0.00    -0.096 C 
ATOM      2  N   UNL     1       0.002  -0.004   0.002  0.00  0.00    +0.381 N 
ATOM      3  C   UNL     1      -1.376  -0.512   0.009  0.00  0.00    -0.074 C 
ATOM      4  C   UNL     1      -1.389  -2.010  -0.312  0.00  0.00    +0.018 C 
ATOM      5  C   UNL     1      -0.410  -2.699   0.629  0.00  0.00    -0.027 A 
ATOM      6  C   UNL     1       0.521  -1.972   1.290  0.00  0.00    -0.021 A 
ATOM      7  S   UNL     1       1.420  -3.155   2.251  0.00  0.00    -0.080 S 
ATOM      8  C   UNL     1       0.619  -4.539   1.805  0.00  0.00    +0.080 A 
ATOM      9  C   UNL     1      -0.373  -4.123   0.904  0.00  0.00    +0.068 A 
ATOM     10  C   UNL     1      -1.269  -5.160   0.342  0.00  0.00    +0.248 C 
ATOM     11  O   UNL     1      -2.259  -4.861  -0.301  0.00  0.00    -0.270 OA
ATOM     12  N   UNL     1      -0.943  -6.449   0.571  0.00  0.00    -0.290 N 
ATOM     13  C   UNL     1       0.309  -6.864   1.195  0.00  0.00    +0.183 C 
ATOM     14  N   UNL     1       0.789  -5.856   2.156  0.00  0.00    -0.317 N 
ATOM     15  C   UNL     1       0.715  -0.492   1.197  0.00  0.00    -0.036 C 
ATOM     16  H   UNL     1      -1.574  -7.137   0.307  0.00  0.00    +0.151 HD
ATOM     17  H   UNL     1       1.205  -6.109   2.995  0.00  0.00    +0.149 HD
ATOM     18  H   UNL     1       0.475  -0.329  -0.828  0.00  0.00    -0.082 HD
ENDROOT
BRANCH  13  19
ATOM     19  C   UNL     1       1.353  -7.060   0.125  0.00  0.00    +0.015 C 
ATOM     20  C   UNL     1       1.924  -8.245  -0.034  0.00  0.00    +0.007 C 
BRANCH  20  21
ATOM     21  C   UNL     1       2.947  -8.437  -1.083  0.00  0.00    -0.025 A 
ATOM     22  C   UNL     1       3.318  -7.371  -1.904  0.00  0.00    +0.010 A 
ATOM     23  C   UNL     1       4.274  -7.557  -2.882  0.00  0.00    +0.033 A 
ATOM     24  C   UNL     1       4.864  -8.797  -3.049  0.00  0.00    +0.126 A 
ATOM     25  C   UNL     1       4.501  -9.858  -2.239  0.00  0.00    +0.033 A 
ATOM     26  C   UNL     1       3.551  -9.684  -1.254  0.00  0.00    +0.010 A 
BRANCH  24  27
ATOM     27  N   UNL     1       5.889  -8.989  -4.100  0.00  0.00    +0.056 N 
ATOM     28  O   UNL     1       6.208  -8.063  -4.810  0.00  0.00    -0.126 OA
ATOM     29  O   UNL     1       6.407 -10.071  -4.249  0.00  0.00    -0.126 OA
ENDBRANCH  24  27
ENDBRANCH  20  21
ENDBRANCH  13  19
TORSDOF 3
