REMARK  Name = ZINC02646974
REMARK  8 active torsions:
REMARK  status: ('A' for Active; 'I' for Inactive)
REMARK    1  A    between atoms: C_1  and  C_2
REMARK    2  A    between atoms: C_2  and  O_3
REMARK    3  A    between atoms: O_3  and  C_4
REMARK    4  A    between atoms: C_4  and  C_6
REMARK    5  A    between atoms: C_7  and  C_30
REMARK    6  A    between atoms: C_10  and  N_11
REMARK    7  A    between atoms: C_12  and  C_14
REMARK    8  A    between atoms: C_14  and  N_15
REMARK                            x       y       z     vdW  Elec       q    Type
REMARK                         _______ _______ _______ _____ _____    ______ ____
ROOT
ATOM      1  N   UNL     1      -2.224   5.891   3.803  0.00  0.00    -0.278 N 
ATOM      2  C   UNL     1      -1.542   5.290   2.808  0.00  0.00    +0.236 C 
ATOM      3  O   UNL     1      -1.891   4.201   2.405  0.00  0.00    -0.274 OA
ATOM      4  H   UNL     1      -1.944   6.762   4.125  0.00  0.00    +0.155 HD
ENDROOT
BRANCH   1   9
ATOM      5  C   UNL     1      -4.144   5.722   5.388  0.00  0.00    +0.095 A 
ATOM      6  C   UNL     1      -5.237   4.854   5.786  0.00  0.00    +0.005 A 
ATOM      7  C   UNL     1      -5.355   3.677   5.120  0.00  0.00    +0.056 A 
ATOM      8  S   UNL     1      -4.009   3.729   3.955  0.00  0.00    -0.080 S 
ATOM      9  C   UNL     1      -3.324   5.265   4.365  0.00  0.00    +0.086 A 
BRANCH   6  10
ATOM     10  C   UNL     1      -6.178   5.234   6.866  0.00  0.00    -0.017 A 
ATOM     11  C   UNL     1      -5.691   5.668   8.098  0.00  0.00    +0.008 A 
ATOM     12  C   UNL     1      -6.572   6.026   9.098  0.00  0.00    +0.001 A 
ATOM     13  C   UNL     1      -7.937   5.943   8.884  0.00  0.00    +0.000 A 
ATOM     14  C   UNL     1      -8.426   5.508   7.665  0.00  0.00    +0.001 A 
ATOM     15  C   UNL     1      -7.554   5.154   6.655  0.00  0.00    +0.008 A 
ENDBRANCH   6  10
BRANCH   5  16
ATOM     16  C   UNL     1      -3.917   7.015   6.034  0.00  0.00    +0.342 C 
ATOM     17  O   UNL     1      -4.449   8.016   5.594  0.00  0.00    -0.245 OA
BRANCH  16  18
ATOM     18  O   UNL     1      -3.118   7.096   7.118  0.00  0.00    -0.461 OA
BRANCH  18  20
ATOM     19  C   UNL     1      -2.007   8.305   8.917  0.00  0.00    +0.048 C 
ATOM     20  C   UNL     1      -2.938   8.411   7.707  0.00  0.00    +0.229 C 
ENDBRANCH  18  20
ENDBRANCH  16  18
ENDBRANCH   5  16
ENDBRANCH   1   9
BRANCH   2  21
ATOM     21  C   UNL     1      -0.344   5.971   2.196  0.00  0.00    +0.214 C 
BRANCH  21  22
ATOM     22  N   UNL     1       0.217   5.120   1.144  0.00  0.00    -0.215 N 
ATOM     23  C   UNL     1       1.171   4.187   1.351  0.00  0.00    +0.251 C 
ATOM     24  O   UNL     1       1.708   3.903   2.401  0.00  0.00    -0.272 OA
ATOM     25  C   UNL     1       1.427   3.575  -0.001  0.00  0.00    +0.138 C 
ATOM     26  C   UNL     1       2.889   3.756  -0.427  0.00  0.00    +0.045 C 
ATOM     27  C   UNL     1       3.521   2.410  -0.005  0.00  0.00    +0.038 C 
ATOM     28  C   UNL     1       2.378   1.416  -0.009  0.00  0.00    -0.042 A 
ATOM     29  C   UNL     1       1.169   2.092   0.002  0.00  0.00    -0.012 A 
ATOM     30  C   UNL     1      -0.017   1.377   0.010  0.00  0.00    +0.006 A 
ATOM     31  C   UNL     1       0.002  -0.004   0.002  0.00  0.00    +0.000 A 
ATOM     32  C   UNL     1       1.209  -0.678  -0.013  0.00  0.00    +0.000 A 
ATOM     33  C   UNL     1       2.393   0.032  -0.018  0.00  0.00    +0.004 A 
ATOM     34  N   UNL     1       0.517   4.282  -0.904  0.00  0.00    -0.281 N 
ATOM     35  C   UNL     1      -0.152   5.171  -0.142  0.00  0.00    +0.310 C 
ATOM     36  O   UNL     1      -0.996   5.931  -0.574  0.00  0.00    -0.252 OA
ATOM     37  H   UNL     1       0.416   4.139  -1.858  0.00  0.00    +0.152 HD
ENDBRANCH  21  22
ENDBRANCH   2  21
TORSDOF 7
