REMARK  Name = ZINC39664135
REMARK  13 active torsions:
REMARK  status: ('A' for Active; 'I' for Inactive)
REMARK    1  A    between atoms: C_1  and  C_2
REMARK    2  A    between atoms: C_2  and  C_3
REMARK    3  A    between atoms: C_3  and  C_4
REMARK    4  A    between atoms: C_4  and  C_5
REMARK    5  A    between atoms: C_5  and  C_6
REMARK    6  A    between atoms: C_6  and  C_7
REMARK    7  A    between atoms: C_11  and  C_20
REMARK    8  A    between atoms: N_22  and  C_23
REMARK    9  A    between atoms: C_23  and  C_24
REMARK   10  A    between atoms: C_24  and  C_26
REMARK   11  A    between atoms: C_24  and  N_34
REMARK   12  A    between atoms: C_29  and  O_32
REMARK   13  A    between atoms: O_32  and  C_33
REMARK                            x       y       z     vdW  Elec       q    Type
REMARK                         _______ _______ _______ _____ _____    ______ ____
ROOT
ATOM      1  C   UNL     1      -5.160  -4.852  -0.134  0.00  0.00    +0.216 C 
ATOM      2  O   UNL     1      -6.172  -4.188  -0.059  0.00  0.00    -0.276 OA
ATOM      3  N   UNL     1      -5.231  -6.197  -0.076  0.00  0.00    -0.300 N 
ATOM      4  C   UNL     1      -4.115  -7.169  -0.143  0.00  0.00    +0.121 C 
ATOM      5  C   UNL     1      -4.487  -8.261   0.885  0.00  0.00    +0.100 C 
ATOM      6  C   UNL     1      -6.016  -8.171   1.018  0.00  0.00    -0.004 C 
ATOM      7  C   UNL     1      -6.444  -7.037   0.075  0.00  0.00    +0.115 C 
ATOM      8  C   UNL     1      -6.403  -7.829   2.454  0.00  0.00    -0.010 C 
ATOM      9  C   UNL     1      -7.929  -7.801   2.573  0.00  0.00    -0.082 C 
ATOM     10  N   UNL     1      -8.475  -9.110   2.197  0.00  0.00    +0.379 N 
ATOM     11  C   UNL     1      -8.178  -9.391   0.787  0.00  0.00    -0.082 C 
ATOM     12  C   UNL     1      -6.663  -9.486   0.592  0.00  0.00    -0.010 C 
ATOM     13  H   UNL     1      -8.060  -9.825   2.776  0.00  0.00    -0.086 HD
ATOM     14  H   UNL     1      -9.475  -9.108   2.335  0.00  0.00    -0.086 HD
ENDROOT
BRANCH   5  15
ATOM     15  C   UNL     1      -4.082  -9.621   0.376  0.00  0.00    +0.218 C 
ATOM     16  O   UNL     1      -4.077  -9.846  -0.816  0.00  0.00    -0.275 OA
ATOM     17  N   UNL     1      -3.724 -10.587   1.245  0.00  0.00    -0.316 N 
ATOM     18  H   UNL     1      -3.727 -10.407   2.199  0.00  0.00    +0.149 HD
BRANCH  17  19
ATOM     19  C   UNL     1      -3.330 -11.908   0.750  0.00  0.00    +0.093 C 
BRANCH  19  20
ATOM     20  C   UNL     1      -3.106 -12.850   1.935  0.00  0.00    -0.020 C 
BRANCH  20  21
ATOM     21  C   UNL     1      -4.412 -13.075   2.652  0.00  0.00    -0.059 A 
ATOM     22  C   UNL     1      -5.326 -13.984   2.152  0.00  0.00    +0.005 A 
ATOM     23  C   UNL     1      -6.525 -14.192   2.807  0.00  0.00    +0.046 A 
ATOM     24  C   UNL     1      -6.811 -13.487   3.968  0.00  0.00    +0.120 A 
ATOM     25  C   UNL     1      -5.892 -12.576   4.467  0.00  0.00    +0.046 A 
ATOM     26  C   UNL     1      -4.692 -12.376   3.812  0.00  0.00    +0.005 A 
BRANCH  24  27
ATOM     27  O   UNL     1      -7.989 -13.689   4.614  0.00  0.00    -0.495 OA
ATOM     28  C   UNL     1      -8.216 -12.929   5.802  0.00  0.00    +0.277 C 
ENDBRANCH  24  27
ENDBRANCH  20  21
BRANCH  20  29
ATOM     29  N   UNL     1      -2.588 -14.135   1.447  0.00  0.00    +0.385 N 
ATOM     30  C   UNL     1      -1.265 -13.942   0.800  0.00  0.00    -0.078 C 
ATOM     31  C   UNL     1      -0.628 -15.353   0.865  0.00  0.00    -0.020 C 
ATOM     32  C   UNL     1      -1.098 -15.881   2.240  0.00  0.00    -0.020 C 
ATOM     33  C   UNL     1      -2.351 -15.053   2.583  0.00  0.00    -0.078 C 
ATOM     34  H   UNL     1      -3.238 -14.549   0.796  0.00  0.00    -0.081 HD
ENDBRANCH  20  29
ENDBRANCH  19  20
ENDBRANCH  17  19
ENDBRANCH   5  15
BRANCH   1  35
ATOM     35  C   UNL     1      -3.824  -4.175  -0.291  0.00  0.00    +0.096 C 
BRANCH  35  36
ATOM     36  C   UNL     1      -4.022  -2.658  -0.329  0.00  0.00    +0.009 C 
BRANCH  36  37
ATOM     37  C   UNL     1      -2.665  -1.970  -0.488  0.00  0.00    +0.000 C 
BRANCH  37  38
ATOM     38  C   UNL     1      -2.863  -0.453  -0.526  0.00  0.00    -0.000 C 
BRANCH  38  40
ATOM     39  C   UNL     1      -1.704   1.751  -0.723  0.00  0.00    +0.004 C 
ATOM     40  C   UNL     1      -1.506   0.235  -0.685  0.00  0.00    -0.003 C 
ENDBRANCH  38  40
ENDBRANCH  37  38
ENDBRANCH  36  37
ENDBRANCH  35  36
ENDBRANCH   1  35
TORSDOF 11
