REMARK  Name = ZINC21232081
REMARK  11 active torsions:
REMARK  status: ('A' for Active; 'I' for Inactive)
REMARK    1  A    between atoms: C_1  and  C_2
REMARK    2  A    between atoms: C_2  and  C_3
REMARK    3  A    between atoms: C_3  and  C_4
REMARK    4  A    between atoms: C_4  and  C_5
REMARK    5  A    between atoms: C_5  and  N_6
REMARK    6  A    between atoms: C_16  and  S_17
REMARK    7  A    between atoms: S_17  and  C_18
REMARK    8  A    between atoms: C_18  and  C_20
REMARK    9  A    between atoms: C_18  and  C_23
REMARK   10  A    between atoms: C_20  and  C_21
REMARK   11  A    between atoms: C_20  and  C_22
REMARK                            x       y       z     vdW  Elec       q    Type
REMARK                         _______ _______ _______ _____ _____    ______ ____
ROOT
ATOM      1  N   UNL     1       0.002  -0.004   0.002  0.00  0.00    -0.287 N 
ATOM      2  C   UNL     1       1.177  -0.675  -0.013  0.00  0.00    +0.262 A 
ATOM      3  O   UNL     1       1.208  -1.892  -0.019  0.00  0.00    -0.267 OA
ATOM      4  C   UNL     1       2.413   0.118  -0.020  0.00  0.00    +0.066 A 
ATOM      5  C   UNL     1       3.672  -0.481  -0.035  0.00  0.00    +0.030 A 
ATOM      6  C   UNL     1       4.799   0.313  -0.041  0.00  0.00    +0.019 A 
ATOM      7  C   UNL     1       4.688   1.699  -0.033  0.00  0.00    +0.017 A 
ATOM      8  C   UNL     1       3.464   2.305  -0.018  0.00  0.00    +0.029 A 
ATOM      9  C   UNL     1       2.302   1.527  -0.012  0.00  0.00    +0.079 A 
ATOM     10  N   UNL     1       1.072   2.091   0.003  0.00  0.00    -0.223 NA
ATOM     11  C   UNL     1      -0.016   1.361   0.009  0.00  0.00    +0.173 A 
ATOM     12 BR   UNL     1       6.511  -0.489  -0.061  0.00  0.00    -0.050 Br
ENDROOT
BRANCH   1  13
ATOM     13  C   UNL     1      -1.260  -0.748   0.011  0.00  0.00    +0.127 C 
BRANCH  13  14
ATOM     14  C   UNL     1      -1.714  -0.999  -1.429  0.00  0.00    +0.022 C 
BRANCH  14  15
ATOM     15  C   UNL     1      -3.032  -1.776  -1.420  0.00  0.00    +0.001 C 
BRANCH  15  17
ATOM     16  C   UNL     1      -4.803  -2.804  -2.851  0.00  0.00    +0.004 C 
ATOM     17  C   UNL     1      -3.485  -2.027  -2.859  0.00  0.00    -0.003 C 
ENDBRANCH  15  17
ENDBRANCH  14  15
ENDBRANCH  13  14
ENDBRANCH   1  13
BRANCH  11  18
ATOM     18  S   UNL     1      -1.577   2.180   0.021  0.00  0.00    -0.075 S 
BRANCH  18  19
ATOM     19  C   UNL     1      -1.027   3.905   0.028  0.00  0.00    +0.143 C 
BRANCH  19  20
ATOM     20  C   UNL     1      -2.222   4.812   0.162  0.00  0.00    +0.234 C 
ATOM     21  O   UNL     1      -3.329   4.402  -0.114  0.00  0.00    -0.274 OA
ATOM     22  N   UNL     1      -2.061   6.080   0.590  0.00  0.00    -0.239 N 
ATOM     23  C   UNL     1      -3.130   6.892   0.710  0.00  0.00    +0.303 C 
ATOM     24  O   UNL     1      -4.239   6.481   0.433  0.00  0.00    -0.253 OA
ATOM     25  N   UNL     1      -2.968   8.160   1.137  0.00  0.00    -0.313 N 
ATOM     26  H   UNL     1      -1.056   6.453   0.841  0.00  0.00    +0.159 HD
ATOM     27  H   UNL     1      -3.840   8.823   1.235  0.00  0.00    +0.146 HD
ATOM     28  H   UNL     1      -1.964   8.533   1.388  0.00  0.00    +0.146 HD
ENDBRANCH  19  20
BRANCH  19  29
ATOM     29  C   UNL     1      -0.297   4.212  -1.281  0.00  0.00    +0.005 C 
ATOM     30  C   UNL     1      -1.279   4.105  -2.450  0.00  0.00    +0.009 C 
ATOM     31  C   UNL     1       0.276   5.630  -1.224  0.00  0.00    +0.009 C 
ENDBRANCH  19  29
ENDBRANCH  18  19
ENDBRANCH  11  18
TORSDOF 8
