REMARK  Name = ZINC06092276
REMARK  6 active torsions:
REMARK  status: ('A' for Active; 'I' for Inactive)
REMARK    1  A    between atoms: C_1  and  C_2
REMARK    2  A    between atoms: C_2  and  N_3
REMARK    3  A    between atoms: C_13  and  S_14
REMARK    4  A    between atoms: S_14  and  C_15
REMARK    5  A    between atoms: C_15  and  C_16
REMARK    6  A    between atoms: C_18  and  N_26
REMARK                            x       y       z     vdW  Elec       q    Type
REMARK                         _______ _______ _______ _____ _____    ______ ____
ROOT
ATOM      1  S   UNL     1       1.157   4.186   1.720  0.00  0.00    -0.083 S 
ENDROOT
BRANCH   1  12
ATOM      2  N   UNL     1       1.123   6.759   2.522  0.00  0.00    -0.288 N 
ATOM      3  C   UNL     1       1.107   8.102   2.353  0.00  0.00    +0.262 A 
ATOM      4  O   UNL     1       1.106   8.859   3.307  0.00  0.00    -0.267 OA
ATOM      5  C   UNL     1       1.087   8.613   0.976  0.00  0.00    +0.065 A 
ATOM      6  C   UNL     1       1.065   9.978   0.696  0.00  0.00    +0.015 A 
ATOM      7  C   UNL     1       1.048  10.399  -0.605  0.00  0.00    +0.001 A 
ATOM      8  C   UNL     1       1.051   9.482  -1.648  0.00  0.00    +0.002 A 
ATOM      9  C   UNL     1       1.072   8.139  -1.403  0.00  0.00    +0.028 A 
ATOM     10  C   UNL     1       1.090   7.676  -0.083  0.00  0.00    +0.079 A 
ATOM     11  N   UNL     1       1.111   6.359   0.204  0.00  0.00    -0.223 NA
ATOM     12  C   UNL     1       1.129   5.926   1.440  0.00  0.00    +0.172 A 
BRANCH   2  14
ATOM     13  C   UNL     1       2.585   6.022   4.338  0.00  0.00    +0.027 C 
ATOM     14  C   UNL     1       1.137   6.196   3.874  0.00  0.00    +0.124 C 
ENDBRANCH   2  14
ENDBRANCH   1  12
BRANCH   1  15
ATOM     15  C   UNL     1       1.149   3.593   0.011  0.00  0.00    +0.116 C 
BRANCH  15  16
ATOM     16  C   UNL     1       1.170   2.086   0.002  0.00  0.00    +0.007 A 
ATOM     17  C   UNL     1      -0.017   1.378   0.010  0.00  0.00    +0.040 A 
ATOM     18  C   UNL     1       0.002  -0.004   0.002  0.00  0.00    +0.127 A 
ATOM     19  C   UNL     1       1.208  -0.681  -0.012  0.00  0.00    +0.042 A 
ATOM     20  C   UNL     1       2.397   0.022  -0.018  0.00  0.00    +0.022 A 
ATOM     21  C   UNL     1       2.381   1.409  -0.013  0.00  0.00    +0.133 A 
ATOM     22  O   UNL     1       3.544   2.113  -0.025  0.00  0.00    -0.466 OA
ATOM     23  C   UNL     1       4.734   1.401   0.326  0.00  0.00    +0.394 C 
ATOM     24  O   UNL     1       4.759   0.167  -0.401  0.00  0.00    -0.339 OA
ATOM     25  C   UNL     1       3.706  -0.726  -0.025  0.00  0.00    +0.202 C 
BRANCH  18  26
ATOM     26  N   UNL     1      -1.270  -0.760   0.009  0.00  0.00    +0.056 N 
ATOM     27  O   UNL     1      -2.333  -0.165   0.021  0.00  0.00    -0.126 OA
ATOM     28  O   UNL     1      -1.254  -1.978   0.002  0.00  0.00    -0.126 OA
ENDBRANCH  18  26
ENDBRANCH  15  16
ENDBRANCH   1  15
TORSDOF 5
