REMARK  Name = ZINC06651482
REMARK  5 active torsions:
REMARK  status: ('A' for Active; 'I' for Inactive)
REMARK    1  A    between atoms: C_6  and  C_7
REMARK    2  A    between atoms: N_14  and  C_17
REMARK    3  A    between atoms: C_17  and  C_18
REMARK    4  A    between atoms: N_20  and  C_21
REMARK    5  A    between atoms: C_21  and  C_26
REMARK                            x       y       z     vdW  Elec       q    Type
REMARK                         _______ _______ _______ _____ _____    ______ ____
ROOT
ATOM      1  C   UNL     1      -2.322   5.189   0.052  0.00  0.00    +0.022 A 
ATOM      2  C   UNL     1      -2.421   3.829   0.046  0.00  0.00    +0.044 A 
ATOM      3  C   UNL     1      -1.263   3.046   0.030  0.00  0.00    +0.086 A 
ATOM      4  C   UNL     1      -0.048   3.756   0.023  0.00  0.00    +0.103 A 
ATOM      5  S   UNL     1      -0.557   5.454   0.037  0.00  0.00    -0.081 S 
ATOM      6  C   UNL     1       1.179   3.093   0.007  0.00  0.00    +0.269 A 
ATOM      7  O   UNL     1       2.228   3.716   0.001  0.00  0.00    -0.266 OA
ATOM      8  N   UNL     1       1.174   1.738   0.000  0.00  0.00    -0.289 N 
ATOM      9  C   UNL     1      -0.013   1.076   0.008  0.00  0.00    +0.203 A 
ATOM     10  N   UNL     1      -1.159   1.675   0.017  0.00  0.00    -0.236 NA
ENDROOT
BRANCH   1  16
ATOM     11  C   UNL     1      -4.741   5.785   0.072  0.00  0.00    +0.010 A 
ATOM     12  C   UNL     1      -5.749   6.727   0.091  0.00  0.00    +0.020 A 
ATOM     13  C   UNL     1      -5.439   8.076   0.096  0.00  0.00    +0.041 A 
ATOM     14  C   UNL     1      -4.117   8.489   0.086  0.00  0.00    +0.020 A 
ATOM     15  C   UNL     1      -3.100   7.556   0.072  0.00  0.00    +0.010 A 
ATOM     16  C   UNL     1      -3.407   6.194   0.067  0.00  0.00    -0.011 A 
ATOM     17 CL   UNL     1      -6.712   9.256   0.114  0.00  0.00    -0.084 Cl
ENDBRANCH   1  16
BRANCH   8  18
ATOM     18  C   UNL     1       2.436   0.994  -0.016  0.00  0.00    +0.222 C 
BRANCH  18  19
ATOM     19  C   UNL     1       2.855   0.747  -1.443  0.00  0.00    +0.234 C 
ATOM     20  O   UNL     1       2.167   1.153  -2.356  0.00  0.00    -0.274 OA
ATOM     21  N   UNL     1       3.994   0.075  -1.704  0.00  0.00    -0.296 N 
ATOM     22  H   UNL     1       4.544  -0.249  -0.974  0.00  0.00    +0.150 HD
BRANCH  21  23
ATOM     23  C   UNL     1       4.401  -0.165  -3.091  0.00  0.00    +0.121 C 
ATOM     24  C   UNL     1       3.344  -1.029  -3.810  0.00  0.00    +0.041 C 
ATOM     25  C   UNL     1       4.176  -1.956  -4.731  0.00  0.00    +0.003 C 
ATOM     26  C   UNL     1       5.415  -2.282  -3.860  0.00  0.00    +0.003 C 
ATOM     27  C   UNL     1       5.717  -0.961  -3.123  0.00  0.00    +0.041 C 
BRANCH  23  28
ATOM     28  C   UNL     1       4.569   1.116  -3.795  0.00  0.00    +0.088 C 
ATOM     29  N   UNL     1       4.699   2.105  -4.339  0.00  0.00    -0.194 NA
ENDBRANCH  23  28
ENDBRANCH  21  23
ENDBRANCH  18  19
ENDBRANCH   8  18
TORSDOF 5
