REMARK  Name = ZINC36206286
REMARK  13 active torsions:
REMARK  status: ('A' for Active; 'I' for Inactive)
REMARK    1  A    between atoms: C_1  and  C_2
REMARK    2  A    between atoms: C_2  and  C_3
REMARK    3  A    between atoms: C_3  and  C_4
REMARK    4  A    between atoms: C_4  and  C_6
REMARK    5  A    between atoms: C_4  and  O_34
REMARK    6  A    between atoms: C_6  and  N_7
REMARK    7  A    between atoms: N_7  and  C_8
REMARK    8  A    between atoms: N_7  and  C_14
REMARK    9  A    between atoms: C_8  and  C_9
REMARK   10  A    between atoms: C_14  and  C_15
REMARK   11  A    between atoms: C_21  and  C_26
REMARK   12  A    between atoms: C_29  and  O_32
REMARK   13  A    between atoms: O_32  and  C_33
REMARK                            x       y       z     vdW  Elec       q    Type
REMARK                         _______ _______ _______ _____ _____    ______ ____
ROOT
ATOM      1  C   UNL     1       2.495  -6.397   2.718  0.00  0.00    +0.094 A 
ATOM      2  N   UNL     1       3.207  -7.253   3.495  0.00  0.00    -0.312 N 
ATOM      3  H   UNL     1       3.751  -6.900   4.216  0.00  0.00    +0.170 HD
ATOM      4  C   UNL     1       3.173  -8.582   3.284  0.00  0.00    +0.260 A 
ATOM      5  O   UNL     1       3.817  -9.338   3.992  0.00  0.00    -0.267 OA
ATOM      6  C   UNL     1       2.368  -9.095   2.217  0.00  0.00    +0.080 A 
ATOM      7  C   UNL     1       2.168 -10.476   1.794  0.00  0.00    +0.004 A 
ATOM      8  C   UNL     1       1.349 -10.723   0.744  0.00  0.00    +0.056 A 
ATOM      9  S   UNL     1       0.796  -9.099   0.260  0.00  0.00    -0.076 S 
ATOM     10  C   UNL     1       1.668  -8.135   1.468  0.00  0.00    +0.116 A 
ATOM     11  N   UNL     1       1.748  -6.835   1.740  0.00  0.00    -0.229 NA
ENDROOT
BRANCH   7  12
ATOM     12  C   UNL     1       2.848 -11.588   2.500  0.00  0.00    -0.016 A 
ATOM     13  C   UNL     1       4.220 -11.528   2.740  0.00  0.00    +0.012 A 
ATOM     14  C   UNL     1       4.850 -12.564   3.397  0.00  0.00    +0.046 A 
ATOM     15  C   UNL     1       4.119 -13.667   3.819  0.00  0.00    +0.120 A 
ATOM     16  C   UNL     1       2.753 -13.730   3.581  0.00  0.00    +0.046 A 
ATOM     17  C   UNL     1       2.116 -12.694   2.930  0.00  0.00    +0.012 A 
BRANCH  15  18
ATOM     18  O   UNL     1       4.742 -14.686   4.466  0.00  0.00    -0.495 OA
ATOM     19  C   UNL     1       3.930 -15.790   4.873  0.00  0.00    +0.277 C 
ENDBRANCH  15  18
ENDBRANCH   7  12
BRANCH   1  20
ATOM     20  C   UNL     1       2.563  -4.917   2.992  0.00  0.00    -0.003 C 
BRANCH  20  21
ATOM     21  N   UNL     1       1.711  -4.202   2.032  0.00  0.00    +0.391 N 
ATOM     22  H   UNL     1       1.981  -4.450   1.092  0.00  0.00    -0.080 HD
BRANCH  21  23
ATOM     23  C   UNL     1       1.870  -2.754   2.221  0.00  0.00    -0.046 C 
BRANCH  23  24
ATOM     24  C   UNL     1       3.298  -2.345   1.853  0.00  0.00    +0.098 C 
BRANCH  24  25
ATOM     25  O   UNL     1       3.539  -2.644   0.477  0.00  0.00    -0.394 OA
ATOM     26  H   UNL     1       2.990  -2.138  -0.138  0.00  0.00    +0.210 HD
ENDBRANCH  24  25
BRANCH  24  27
ATOM     27  C   UNL     1       3.475  -0.843   2.087  0.00  0.00    +0.029 C 
BRANCH  27  29
ATOM     28  C   UNL     1       5.111   1.045   2.073  0.00  0.00    +0.004 C 
ATOM     29  C   UNL     1       4.934  -0.457   1.839  0.00  0.00    -0.001 C 
ENDBRANCH  27  29
ENDBRANCH  24  27
ENDBRANCH  23  24
ENDBRANCH  21  23
BRANCH  21  30
ATOM     30  C   UNL     1       0.307  -4.573   2.253  0.00  0.00    -0.002 C 
BRANCH  30  31
ATOM     31  C   UNL     1      -0.551  -3.953   1.180  0.00  0.00    +0.089 A 
ATOM     32  C   UNL     1      -0.776  -4.468  -0.042  0.00  0.00    +0.042 A 
ATOM     33  C   UNL     1      -1.631  -3.565  -0.716  0.00  0.00    +0.041 A 
ATOM     34  C   UNL     1      -1.877  -2.553   0.135  0.00  0.00    +0.195 A 
ATOM     35  O   UNL     1      -1.224  -2.796   1.284  0.00  0.00    -0.470 OA
ENDBRANCH  30  31
ENDBRANCH  21  30
ENDBRANCH  20  21
ENDBRANCH   1  20
TORSDOF 11
