REMARK  Name = ZINC06441988
REMARK  8 active torsions:
REMARK  status: ('A' for Active; 'I' for Inactive)
REMARK    1  A    between atoms: C_1  and  C_2
REMARK    2  A    between atoms: C_7  and  C_15
REMARK    3  A    between atoms: C_13  and  C_14
REMARK    4  A    between atoms: C_15  and  C_17
REMARK    5  A    between atoms: C_15  and  N_70
REMARK    6  A    between atoms: N_21  and  C_22
REMARK    7  A    between atoms: C_22  and  C_23
REMARK    8  A    between atoms: N_31  and  C_34
REMARK                            x       y       z     vdW  Elec       q    Type
REMARK                         _______ _______ _______ _____ _____    ______ ____
ROOT
ATOM      1  C   UNL     1       2.849   4.724   1.887  0.00  0.00    +0.039 C 
ENDROOT
BRANCH   1   8
ATOM      2  C   UNL     1       7.239  10.823  -0.787  0.00  0.00    +0.044 C 
ATOM      3  C   UNL     1       6.534   9.540  -0.430  0.00  0.00    -0.046 A 
ATOM      4  C   UNL     1       6.905   8.356  -1.053  0.00  0.00    +0.004 A 
ATOM      5  C   UNL     1       6.279   7.182  -0.743  0.00  0.00    +0.010 A 
ATOM      6  C   UNL     1       5.255   7.172   0.209  0.00  0.00    -0.001 A 
ATOM      7  C   UNL     1       4.568   5.931   0.569  0.00  0.00    +0.017 A 
ATOM      8  C   UNL     1       3.580   5.983   1.497  0.00  0.00    +0.011 A 
ATOM      9  C   UNL     1       3.238   7.211   2.102  0.00  0.00    +0.251 A 
ATOM     10  O   UNL     1       2.349   7.235   2.937  0.00  0.00    -0.268 OA
ATOM     11  N   UNL     1       3.867   8.355   1.782  0.00  0.00    -0.322 N 
ATOM     12  H   UNL     1       3.607   9.182   2.218  0.00  0.00    +0.169 HD
ATOM     13  C   UNL     1       4.876   8.370   0.843  0.00  0.00    +0.052 A 
ATOM     14  C   UNL     1       5.527   9.554   0.511  0.00  0.00    -0.024 A 
ATOM     15  C   UNL     1       5.134  10.847   1.179  0.00  0.00    +0.046 C 
ENDBRANCH   1   8
BRANCH   1  21
ATOM     16  C   UNL     1       4.330   4.519   3.791  0.00  0.00    -0.058 C 
ATOM     17  C   UNL     1       4.371   4.406   5.317  0.00  0.00    +0.086 C 
ATOM     18  N   UNL     1       3.668   3.185   5.735  0.00  0.00    -0.333 N 
ATOM     19  C   UNL     1       2.269   3.207   5.285  0.00  0.00    +0.086 C 
ATOM     20  C   UNL     1       2.228   3.320   3.760  0.00  0.00    -0.058 C 
ATOM     21  N   UNL     1       2.919   4.562   3.355  0.00  0.00    +0.391 N 
ATOM     22  H   UNL     1       2.456   5.362   3.801  0.00  0.00    -0.080 HD
BRANCH  18  23
ATOM     23  C   UNL     1       3.747   3.011   7.120  0.00  0.00    +0.030 A 
ATOM     24  C   UNL     1       2.586   2.891   7.873  0.00  0.00    +0.026 A 
ATOM     25  C   UNL     1       2.666   2.714   9.240  0.00  0.00    +0.040 A 
ATOM     26  C   UNL     1       3.902   2.666   9.862  0.00  0.00    +0.124 A 
ATOM     27  C   UNL     1       5.061   2.790   9.114  0.00  0.00    +0.040 A 
ATOM     28  C   UNL     1       4.985   2.962   7.745  0.00  0.00    +0.026 A 
ATOM     29  F   UNL     1       3.978   2.497  11.200  0.00  0.00    -0.205 F 
ENDBRANCH  18  23
ENDBRANCH   1  21
BRANCH   1  30
ATOM     30  C   UNL     1       1.403   4.835   1.476  0.00  0.00    +0.143 A 
ATOM     31  N   UNL     1       0.475   5.550   2.063  0.00  0.00    -0.115 NA
ATOM     32  N   UNL     1      -0.626   5.381   1.416  0.00  0.00    -0.023 NA
ATOM     33  N   UNL     1      -0.424   4.581   0.428  0.00  0.00    -0.044 NA
ATOM     34  N   UNL     1       0.814   4.218   0.434  0.00  0.00    -0.228 N 
BRANCH  34  35
ATOM     35  C   UNL     1       1.459   3.310  -0.517  0.00  0.00    +0.178 C 
BRANCH  35  36
ATOM     36  C   UNL     1       1.358   1.873  -0.001  0.00  0.00    +0.140 C 
ATOM     37  C   UNL     1       2.044   0.890  -0.983  0.00  0.00    +0.035 C 
ATOM     38  C   UNL     1       1.318  -0.441  -0.670  0.00  0.00    +0.031 C 
ATOM     39  C   UNL     1       0.002  -0.004   0.002  0.00  0.00    +0.160 C 
ATOM     40  O   UNL     1      -0.017   1.433   0.010  0.00  0.00    -0.375 OA
ENDBRANCH  35  36
ENDBRANCH  34  35
ENDBRANCH   1  30
TORSDOF 6
