REMARK  Name = ZINC02052797
REMARK  9 active torsions:
REMARK  status: ('A' for Active; 'I' for Inactive)
REMARK    1  A    between atoms: C_1  and  C_2
REMARK    2  A    between atoms: C_2  and  O_3
REMARK    3  A    between atoms: O_3  and  C_4
REMARK    4  A    between atoms: C_4  and  C_6
REMARK    5  A    between atoms: C_10  and  N_11
REMARK    6  A    between atoms: N_11  and  C_12
REMARK    7  A    between atoms: C_12  and  C_14
REMARK    8  A    between atoms: C_12  and  N_18
REMARK    9  A    between atoms: C_19  and  C_21
REMARK                            x       y       z     vdW  Elec       q    Type
REMARK                         _______ _______ _______ _____ _____    ______ ____
ROOT
ATOM      1  N   UNL     1      -1.967   6.939  -1.647  0.00  0.00    -0.316 N 
ATOM      2  H   UNL     1      -1.983   7.646  -0.983  0.00  0.00    +0.148 HD
ENDROOT
BRANCH   1   7
ATOM      3  C   UNL     1      -1.273   5.179  -0.020  0.00  0.00    +0.090 A 
ATOM      4  C   UNL     1      -0.952   3.765   0.098  0.00  0.00    -0.021 A 
ATOM      5  C   UNL     1      -1.032   3.059  -1.049  0.00  0.00    -0.004 A 
ATOM      6  S   UNL     1      -1.524   4.238  -2.275  0.00  0.00    -0.078 S 
ATOM      7  C   UNL     1      -1.623   5.653  -1.279  0.00  0.00    +0.082 A 
ATOM      8  C   UNL     1      -0.761   1.597  -1.232  0.00  0.00    +0.043 C 
ATOM      9  C   UNL     1      -0.013   1.086   0.008  0.00  0.00    +0.005 C 
ATOM     10  C   UNL     1      -0.735   1.583   1.264  0.00  0.00    +0.005 C 
ATOM     11  C   UNL     1      -0.552   3.094   1.406  0.00  0.00    +0.037 C 
BRANCH   3  12
ATOM     12  C   UNL     1      -1.229   6.067   1.141  0.00  0.00    +0.342 C 
ATOM     13  O   UNL     1      -2.222   6.224   1.825  0.00  0.00    -0.245 OA
BRANCH  12  14
ATOM     14  O   UNL     1      -0.086   6.713   1.453  0.00  0.00    -0.461 OA
BRANCH  14  16
ATOM     15  C   UNL     1       1.261   8.205   2.794  0.00  0.00    +0.048 C 
ATOM     16  C   UNL     1      -0.115   7.564   2.600  0.00  0.00    +0.229 C 
ENDBRANCH  14  16
ENDBRANCH  12  14
ENDBRANCH   3  12
ENDBRANCH   1   7
BRANCH   1  17
ATOM     17  C   UNL     1      -2.308   7.236  -3.040  0.00  0.00    +0.211 C 
BRANCH  17  18
ATOM     18  C   UNL     1      -3.563   8.111  -3.083  0.00  0.00    +0.225 C 
ATOM     19 CL   UNL     1      -3.252   9.651  -2.199  0.00  0.00    -0.080 Cl
ATOM     20 CL   UNL     1      -3.982   8.476  -4.798  0.00  0.00    -0.080 Cl
ATOM     21 CL   UNL     1      -4.932   7.236  -2.303  0.00  0.00    -0.080 Cl
ENDBRANCH  17  18
BRANCH  17  22
ATOM     22  N   UNL     1      -1.195   7.947  -3.675  0.00  0.00    -0.290 N 
ATOM     23  C   UNL     1      -0.392   7.303  -4.544  0.00  0.00    +0.246 C 
ATOM     24  O   UNL     1      -0.591   6.131  -4.802  0.00  0.00    -0.270 OA
ATOM     25  H   UNL     1      -1.036   8.882  -3.469  0.00  0.00    +0.151 HD
BRANCH  23  26
ATOM     26  C   UNL     1       0.731   8.020  -5.184  0.00  0.00    +0.038 A 
ATOM     27  C   UNL     1       1.565   7.355  -6.085  0.00  0.00    +0.013 A 
ATOM     28  C   UNL     1       2.611   8.030  -6.680  0.00  0.00    +0.002 A 
ATOM     29  C   UNL     1       2.835   9.363  -6.385  0.00  0.00    +0.020 A 
ATOM     30  C   UNL     1       2.012  10.029  -5.493  0.00  0.00    +0.042 A 
ATOM     31  C   UNL     1       0.959   9.366  -4.895  0.00  0.00    +0.033 A 
ATOM     32 CL   UNL     1       2.301  11.702  -5.131  0.00  0.00    -0.084 Cl
ENDBRANCH  23  26
ENDBRANCH  17  22
ENDBRANCH   1  17
TORSDOF 8
