REMARK  Name = ZINC38658072
REMARK  10 active torsions:
REMARK  status: ('A' for Active; 'I' for Inactive)
REMARK    1  A    between atoms: C_2  and  C_3
REMARK    2  A    between atoms: C_3  and  O_4
REMARK    3  A    between atoms: O_4  and  C_5
REMARK    4  A    between atoms: C_8  and  C_11
REMARK    5  A    between atoms: C_16  and  O_25
REMARK    6  A    between atoms: C_20  and  N_24
REMARK    7  A    between atoms: C_21  and  C_22
REMARK    8  A    between atoms: O_25  and  C_26
REMARK    9  A    between atoms: C_26  and  C_28
REMARK   10  A    between atoms: C_29  and  C_30
REMARK                            x       y       z     vdW  Elec       q    Type
REMARK                         _______ _______ _______ _____ _____    ______ ____
ROOT
ATOM      1  C   UNL     1       5.871  -4.972   1.339  0.00  0.00    +0.098 C 
ATOM      2  C   UNL     1       5.540  -6.404   1.009  0.00  0.00    +0.008 A 
ATOM      3  C   UNL     1       5.282  -6.758  -0.303  0.00  0.00    +0.012 A 
ATOM      4  C   UNL     1       4.977  -8.065  -0.624  0.00  0.00    +0.047 A 
ATOM      5  C   UNL     1       4.928  -9.031   0.372  0.00  0.00    +0.135 A 
ATOM      6  C   UNL     1       5.186  -8.680   1.687  0.00  0.00    +0.093 A 
ATOM      7  C   UNL     1       5.492  -7.363   2.008  0.00  0.00    +0.138 A 
ATOM      8  O   UNL     1       5.742  -7.036   3.300  0.00  0.00    -0.441 OA
ATOM      9  C   UNL     1       6.403  -5.903   3.588  0.00  0.00    +0.199 C 
ATOM     10  C   UNL     1       6.500  -4.888   2.701  0.00  0.00    +0.098 C 
ENDROOT
BRANCH   1  14
ATOM     11  C   UNL     1       2.289  -2.642   1.285  0.00  0.00    +0.121 A 
ATOM     12  C   UNL     1       3.330  -2.336   0.420  0.00  0.00    +0.046 A 
ATOM     13  C   UNL     1       4.487  -3.091   0.440  0.00  0.00    +0.008 A 
ATOM     14  C   UNL     1       4.608  -4.150   1.320  0.00  0.00    -0.034 A 
ATOM     15  C   UNL     1       3.572  -4.458   2.182  0.00  0.00    +0.008 A 
ATOM     16  C   UNL     1       2.415  -3.703   2.170  0.00  0.00    +0.046 A 
BRANCH  11  17
ATOM     17  O   UNL     1       1.150  -1.901   1.268  0.00  0.00    -0.488 OA
BRANCH  17  18
ATOM     18  C   UNL     1       1.090  -0.825   0.330  0.00  0.00    +0.256 C 
BRANCH  18  20
ATOM     19  C   UNL     1      -0.286   1.187   0.475  0.00  0.00    +0.007 C 
ATOM     20  C   UNL     1      -0.237  -0.122   0.455  0.00  0.00    +0.006 C 
ENDBRANCH  18  20
ENDBRANCH  17  18
ENDBRANCH  11  17
ENDBRANCH   1  14
BRANCH   9  21
ATOM     21  N   UNL     1       6.997  -5.772   4.819  0.00  0.00    -0.328 N 
ATOM     22  H   UNL     1       6.935  -6.493   5.466  0.00  0.00    +0.145 HD
ATOM     23  H   UNL     1       7.478  -4.960   5.042  0.00  0.00    +0.145 HD
ENDBRANCH   9  21
BRANCH  10  24
ATOM     24  C   UNL     1       7.218  -3.705   3.071  0.00  0.00    +0.101 C 
ATOM     25  N   UNL     1       7.788  -2.768   3.364  0.00  0.00    -0.191 NA
ENDBRANCH  10  24
BRANCH   5  26
ATOM     26  O   UNL     1       4.628 -10.318   0.058  0.00  0.00    -0.423 OA
BRANCH  26  27
ATOM     27  C   UNL     1       5.533 -11.026  -0.649  0.00  0.00    +0.337 C 
ATOM     28  O   UNL     1       6.623 -10.545  -0.895  0.00  0.00    -0.245 OA
BRANCH  27  29
ATOM     29  C   UNL     1       5.205 -12.371  -1.119  0.00  0.00    +0.092 C 
ATOM     30  C   UNL     1       6.111 -13.078  -1.826  0.00  0.00    +0.016 C 
BRANCH  30  31
ATOM     31  C   UNL     1       5.781 -14.432  -2.298  0.00  0.00    -0.006 A 
ATOM     32  C   UNL     1       4.527 -14.986  -2.022  0.00  0.00    +0.009 A 
ATOM     33  C   UNL     1       4.225 -16.255  -2.469  0.00  0.00    +0.001 A 
ATOM     34  C   UNL     1       5.159 -16.981  -3.189  0.00  0.00    +0.001 A 
ATOM     35  C   UNL     1       6.402 -16.441  -3.466  0.00  0.00    +0.020 A 
ATOM     36  C   UNL     1       6.718 -15.169  -3.032  0.00  0.00    +0.048 A 
ATOM     37 CL   UNL     1       8.275 -14.489  -3.388  0.00  0.00    -0.083 Cl
ENDBRANCH  30  31
ENDBRANCH  27  29
ENDBRANCH  26  27
ENDBRANCH   5  26
TORSDOF 10
