REMARK  Name = ZINC09478739
REMARK  5 active torsions:
REMARK  status: ('A' for Active; 'I' for Inactive)
REMARK    1  A    between atoms: C_3  and  S_8
REMARK    2  A    between atoms: S_8  and  N_11
REMARK    3  A    between atoms: C_16  and  C_17
REMARK    4  A    between atoms: C_16  and  N_45
REMARK    5  A    between atoms: C_20  and  C_22
REMARK                            x       y       z     vdW  Elec       q    Type
REMARK                         _______ _______ _______ _____ _____    ______ ____
ROOT
ATOM      1  N   UNL     1       2.922   8.907  -3.693  0.00  0.00    -0.180 NA
ATOM      2  C   UNL     1       1.791   9.236  -2.813  0.00  0.00    +0.091 C 
ATOM      3  C   UNL     1       2.154   8.828  -1.381  0.00  0.00    -0.061 C 
ATOM      4  C   UNL     1       3.773   7.204  -2.171  0.00  0.00    -0.061 C 
ATOM      5  C   UNL     1       3.477   7.546  -3.635  0.00  0.00    +0.091 C 
ATOM      6  N   UNL     1       2.540   7.400  -1.378  0.00  0.00    +0.385 N 
ATOM      7  H   UNL     1       1.782   6.850  -1.800  0.00  0.00    -0.081 HD
ENDROOT
BRANCH   1   8
ATOM      8  S   UNL     1       3.555  10.039  -4.724  0.00  0.00    +0.061 S 
ATOM      9  O   UNL     1       4.189   9.322  -5.774  0.00  0.00    -0.153 OA
ATOM     10  O   UNL     1       2.527  10.990  -4.963  0.00  0.00    -0.153 OA
BRANCH   8  13
ATOM     11  C   UNL     1       5.531  12.682  -2.431  0.00  0.00    +0.003 A 
ATOM     12  C   UNL     1       4.532  12.021  -3.121  0.00  0.00    +0.028 A 
ATOM     13  C   UNL     1       4.830  10.884  -3.849  0.00  0.00    +0.107 A 
ATOM     14  C   UNL     1       6.129  10.414  -3.896  0.00  0.00    +0.043 A 
ATOM     15  C   UNL     1       7.130  11.078  -3.210  0.00  0.00    +0.020 A 
ATOM     16  C   UNL     1       6.830  12.212  -2.477  0.00  0.00    +0.015 A 
ATOM     17 BR   UNL     1       8.907  10.436  -3.274  0.00  0.00    -0.050 Br
ENDBRANCH   8  13
ENDBRANCH   1   8
BRANCH   6  18
ATOM     18  C   UNL     1       2.753   6.938   0.009  0.00  0.00    -0.019 C 
BRANCH  18  19
ATOM     19  C   UNL     1       2.928   5.441   0.001  0.00  0.00    +0.063 A 
ATOM     20  C   UNL     1       4.100   4.782  -0.014  0.00  0.00    +0.219 A 
ATOM     21  O   UNL     1       3.818   3.462  -0.017  0.00  0.00    -0.443 OA
ATOM     22  C   UNL     1       2.479   3.330  -0.004  0.00  0.00    +0.234 A 
ATOM     23  N   UNL     1       1.942   4.531   0.002  0.00  0.00    -0.216 NA
BRANCH  22  24
ATOM     24  C   UNL     1       1.741   2.059  -0.004  0.00  0.00    +0.074 A 
ATOM     25  C   UNL     1       2.232   0.766  -0.015  0.00  0.00    +0.021 A 
ATOM     26  C   UNL     1       1.333  -0.275  -0.012  0.00  0.00    +0.008 A 
ATOM     27  C   UNL     1       0.002  -0.004   0.002  0.00  0.00    +0.046 A 
ATOM     28  S   UNL     1      -0.022   1.781   0.012  0.00  0.00    -0.092 S 
ENDBRANCH  22  24
ENDBRANCH  18  19
ENDBRANCH   6  18
TORSDOF 5
