REMARK  Name = ZINC09777875
REMARK  5 active torsions:
REMARK  status: ('A' for Active; 'I' for Inactive)
REMARK    1  A    between atoms: C_3  and  S_9
REMARK    2  A    between atoms: C_6  and  C_7
REMARK    3  A    between atoms: S_9  and  N_12
REMARK    4  A    between atoms: C_17  and  N_18
REMARK    5  A    between atoms: C_17  and  N_56
REMARK                            x       y       z     vdW  Elec       q    Type
REMARK                         _______ _______ _______ _____ _____    ______ ____
ROOT
ATOM      1  N   UNL     1      -0.893   3.055  -1.129  0.00  0.00    -0.180 NA
ATOM      2  C   UNL     1      -0.755   1.594  -1.233  0.00  0.00    +0.091 C 
ATOM      3  C   UNL     1      -0.013   1.086   0.008  0.00  0.00    -0.059 C 
ATOM      4  C   UNL     1      -0.681   3.026   1.300  0.00  0.00    -0.059 C 
ATOM      5  C   UNL     1      -1.450   3.614   0.112  0.00  0.00    +0.091 C 
ATOM      6  N   UNL     1      -0.730   1.551   1.215  0.00  0.00    +0.392 N 
ATOM      7  H   UNL     1      -1.711   1.254   1.154  0.00  0.00    -0.079 HD
ENDROOT
BRANCH   1   8
ATOM      8  S   UNL     1      -0.434   4.043  -2.376  0.00  0.00    +0.061 S 
ATOM      9  O   UNL     1      -0.158   5.314  -1.806  0.00  0.00    -0.153 OA
ATOM     10  O   UNL     1       0.528   3.321  -3.132  0.00  0.00    -0.153 OA
BRANCH   8  13
ATOM     11  C   UNL     1      -3.821   5.466  -3.998  0.00  0.00    +0.021 A 
ATOM     12  C   UNL     1      -2.719   5.296  -3.186  0.00  0.00    +0.030 A 
ATOM     13  C   UNL     1      -1.840   4.253  -3.418  0.00  0.00    +0.106 A 
ATOM     14  C   UNL     1      -2.055   3.378  -4.468  0.00  0.00    +0.030 A 
ATOM     15  C   UNL     1      -3.156   3.534  -5.285  0.00  0.00    +0.021 A 
ATOM     16  C   UNL     1      -4.048   4.584  -5.056  0.00  0.00    +0.052 A 
BRANCH  16  17
ATOM     17  C   UNL     1      -5.190   4.755  -5.903  0.00  0.00    +0.099 C 
ATOM     18  N   UNL     1      -6.096   4.891  -6.575  0.00  0.00    -0.191 NA
ENDBRANCH  16  17
ENDBRANCH   8  13
ENDBRANCH   1   8
BRANCH   6  19
ATOM     19  C   UNL     1      -0.123   0.955   2.423  0.00  0.00    +0.041 C 
BRANCH  19  20
ATOM     20  N   UNL     1      -0.371   1.828   3.573  0.00  0.00    -0.259 N 
ATOM     21  C   UNL     1      -1.465   1.725   4.340  0.00  0.00    +0.221 C 
ATOM     22  O   UNL     1      -2.359   0.921   4.183  0.00  0.00    -0.275 OA
ATOM     23  C   UNL     1      -1.406   2.771   5.434  0.00  0.00    +0.112 C 
ATOM     24  C   UNL     1      -0.079   3.498   5.160  0.00  0.00    +0.056 C 
ATOM     25  C   UNL     1       0.480   2.792   3.950  0.00  0.00    +0.227 C 
ATOM     26  O   UNL     1       1.530   3.056   3.404  0.00  0.00    -0.275 OA
ATOM     27  C   UNL     1       0.862   3.344   6.349  0.00  0.00    +0.016 C 
ATOM     28  C   UNL     1       2.184   4.056   6.053  0.00  0.00    +0.001 C 
ATOM     29  C   UNL     1       1.915   5.537   5.781  0.00  0.00    +0.000 C 
ATOM     30  C   UNL     1       0.991   5.674   4.569  0.00  0.00    +0.001 C 
ATOM     31  C   UNL     1      -0.337   4.970   4.859  0.00  0.00    +0.016 C 
ENDBRANCH  19  20
ENDBRANCH   6  19
TORSDOF 5
