REMARK  Name = ZINC39678294
REMARK  8 active torsions:
REMARK  status: ('A' for Active; 'I' for Inactive)
REMARK    1  A    between atoms: C_1  and  C_2
REMARK    2  A    between atoms: C_2  and  O_3
REMARK    3  A    between atoms: O_3  and  C_4
REMARK    4  A    between atoms: C_9  and  C_10
REMARK    5  A    between atoms: C_14  and  C_23
REMARK    6  A    between atoms: N_25  and  C_26
REMARK    7  A    between atoms: C_26  and  C_27
REMARK    8  A    between atoms: C_32  and  N_33
REMARK                            x       y       z     vdW  Elec       q    Type
REMARK                         _______ _______ _______ _____ _____    ______ ____
ROOT
ATOM      1  C   UNL     1      -4.294  -1.166  -0.064  0.00  0.00    +0.250 C 
ATOM      2  O   UNL     1      -4.240   0.021   0.190  0.00  0.00    -0.270 OA
ATOM      3  N   UNL     1      -5.481  -1.804  -0.056  0.00  0.00    -0.296 N 
ATOM      4  C   UNL     1      -5.735  -3.254  -0.233  0.00  0.00    +0.121 C 
ATOM      5  C   UNL     1      -6.862  -3.579   0.772  0.00  0.00    +0.100 C 
ATOM      6  C   UNL     1      -7.577  -2.237   1.007  0.00  0.00    -0.004 C 
ATOM      7  C   UNL     1      -6.827  -1.216   0.140  0.00  0.00    +0.115 C 
ATOM      8  C   UNL     1      -7.485  -1.840   2.478  0.00  0.00    -0.010 C 
ATOM      9  C   UNL     1      -8.252  -0.533   2.697  0.00  0.00    -0.082 C 
ATOM     10  N   UNL     1      -9.654  -0.715   2.305  0.00  0.00    +0.379 N 
ATOM     11  C   UNL     1      -9.740  -1.005   0.869  0.00  0.00    -0.082 C 
ATOM     12  C   UNL     1      -9.036  -2.333   0.572  0.00  0.00    -0.010 C 
ATOM     13  H   UNL     1     -10.051  -1.482   2.826  0.00  0.00    -0.086 HD
ATOM     14  H   UNL     1     -10.171   0.128   2.507  0.00  0.00    -0.086 HD
ENDROOT
BRANCH   1  20
ATOM     15  C   UNL     1      -1.853  -1.573   0.247  0.00  0.00    +0.133 A 
ATOM     16  C   UNL     1      -0.700  -2.282  -0.055  0.00  0.00    +0.046 A 
ATOM     17  C   UNL     1      -0.740  -3.310  -0.975  0.00  0.00    +0.004 A 
ATOM     18  C   UNL     1      -1.930  -3.642  -1.603  0.00  0.00    +0.001 A 
ATOM     19  C   UNL     1      -3.085  -2.949  -1.315  0.00  0.00    +0.017 A 
ATOM     20  C   UNL     1      -3.059  -1.909  -0.382  0.00  0.00    +0.078 A 
BRANCH  15  21
ATOM     21  O   UNL     1      -1.814  -0.562   1.151  0.00  0.00    -0.491 OA
BRANCH  21  23
ATOM     22  C   UNL     1      -0.702   0.886   2.734  0.00  0.00    +0.048 C 
ATOM     23  C   UNL     1      -0.549  -0.276   1.750  0.00  0.00    +0.226 C 
ENDBRANCH  21  23
ENDBRANCH  15  21
ENDBRANCH   1  20
BRANCH   5  24
ATOM     24  C   UNL     1      -7.814  -4.588   0.184  0.00  0.00    +0.218 C 
ATOM     25  O   UNL     1      -8.160  -4.492  -0.975  0.00  0.00    -0.275 OA
ATOM     26  N   UNL     1      -8.283  -5.596   0.946  0.00  0.00    -0.311 N 
ATOM     27  H   UNL     1      -8.007  -5.672   1.873  0.00  0.00    +0.149 HD
BRANCH  26  28
ATOM     28  C   UNL     1      -9.209  -6.577   0.374  0.00  0.00    +0.141 C 
BRANCH  28  29
ATOM     29  C   UNL     1      -9.578  -7.591   1.426  0.00  0.00    -0.009 A 
ATOM     30  C   UNL     1      -8.953  -8.823   1.448  0.00  0.00    +0.007 A 
ATOM     31  C   UNL     1      -9.292  -9.754   2.412  0.00  0.00    +0.000 A 
ATOM     32  C   UNL     1     -10.257  -9.456   3.357  0.00  0.00    +0.002 A 
ATOM     33  C   UNL     1     -10.885  -8.227   3.341  0.00  0.00    +0.023 A 
ATOM     34  C   UNL     1     -10.543  -7.287   2.377  0.00  0.00    +0.034 A 
BRANCH  34  35
ATOM     35  N   UNL     1     -11.173  -6.040   2.361  0.00  0.00    -0.330 N 
ATOM     36  C   UNL     1     -12.411  -5.836   1.596  0.00  0.00    +0.105 C 
ATOM     37  C   UNL     1     -13.476  -5.252   2.528  0.00  0.00    +0.019 C 
ATOM     38  C   UNL     1     -12.930  -3.984   3.189  0.00  0.00    +0.003 C 
ATOM     39  C   UNL     1     -11.696  -4.333   4.024  0.00  0.00    +0.019 C 
ATOM     40  C   UNL     1     -10.614  -4.909   3.114  0.00  0.00    +0.105 C 
ENDBRANCH  34  35
ENDBRANCH  28  29
ENDBRANCH  26  28
ENDBRANCH   5  24
TORSDOF 7
