REMARK  Name = ZINC13506347
REMARK  10 active torsions:
REMARK  status: ('A' for Active; 'I' for Inactive)
REMARK    1  A    between atoms: C_1  and  C_2
REMARK    2  A    between atoms: C_2  and  C_3
REMARK    3  A    between atoms: C_8  and  N_9
REMARK    4  A    between atoms: N_9  and  C_10
REMARK    5  A    between atoms: C_10  and  C_12
REMARK    6  A    between atoms: C_10  and  C_18
REMARK    7  A    between atoms: N_20  and  C_21
REMARK    8  A    between atoms: C_26  and  C_28
REMARK    9  A    between atoms: C_28  and  N_29
REMARK   10  A    between atoms: C_30  and  C_32
REMARK                            x       y       z     vdW  Elec       q    Type
REMARK                         _______ _______ _______ _____ _____    ______ ____
ROOT
ATOM      1  N   UNL     1      -0.103   1.771   6.837  0.00  0.00    -0.254 N 
ATOM      2  C   UNL     1       0.355   0.863   7.722  0.00  0.00    +0.238 C 
ATOM      3  O   UNL     1       1.476   0.416   7.606  0.00  0.00    -0.274 OA
ENDROOT
BRANCH   1   9
ATOM      4  C   UNL     1      -2.462   1.925   6.338  0.00  0.00    -0.026 A 
ATOM      5  C   UNL     1      -3.691   2.520   6.541  0.00  0.00    +0.005 A 
ATOM      6  C   UNL     1      -3.814   3.571   7.431  0.00  0.00    +0.000 A 
ATOM      7  C   UNL     1      -2.707   4.025   8.125  0.00  0.00    +0.002 A 
ATOM      8  C   UNL     1      -1.476   3.431   7.930  0.00  0.00    +0.024 A 
ATOM      9  C   UNL     1      -1.350   2.375   7.037  0.00  0.00    +0.041 A 
BRANCH   4  11
ATOM     10  C   UNL     1      -2.254  -0.538   6.130  0.00  0.00    +0.009 C 
ATOM     11  C   UNL     1      -2.328   0.784   5.362  0.00  0.00    +0.033 C 
ENDBRANCH   4  11
ENDBRANCH   1   9
BRANCH   1  12
ATOM     12  C   UNL     1       0.703   2.125   5.666  0.00  0.00    +0.199 C 
BRANCH  12  13
ATOM     13  C   UNL     1       1.873   2.969   6.099  0.00  0.00    +0.000 A 
ATOM     14  C   UNL     1       3.155   2.672   5.659  0.00  0.00    +0.009 A 
ATOM     15  C   UNL     1       4.201   3.476   6.083  0.00  0.00    +0.020 A 
ATOM     16  C   UNL     1       3.935   4.540   6.924  0.00  0.00    +0.111 A 
ATOM     17  N   UNL     1       2.703   4.793   7.322  0.00  0.00    -0.263 NA
ATOM     18  C   UNL     1       1.683   4.053   6.934  0.00  0.00    +0.116 A 
ENDBRANCH  12  13
BRANCH  12  19
ATOM     19  C   UNL     1      -0.143   2.901   4.690  0.00  0.00    +0.239 C 
ATOM     20  O   UNL     1      -0.961   3.698   5.096  0.00  0.00    -0.273 OA
ATOM     21  N   UNL     1       0.011   2.709   3.364  0.00  0.00    -0.311 N 
ATOM     22  H   UNL     1       0.665   2.071   3.039  0.00  0.00    +0.149 HD
BRANCH  21  23
ATOM     23  C   UNL     1      -0.811   3.463   2.415  0.00  0.00    +0.073 C 
ATOM     24  C   UNL     1      -0.940   2.696   1.083  0.00  0.00    +0.022 C 
ATOM     25  C   UNL     1      -0.900   3.749  -0.038  0.00  0.00    +0.002 C 
ATOM     26  C   UNL     1      -0.749   5.121   0.651  0.00  0.00    +0.002 C 
ATOM     27  C   UNL     1      -0.110   4.788   2.023  0.00  0.00    +0.022 C 
ENDBRANCH  21  23
ENDBRANCH  12  19
ENDBRANCH   1  12
BRANCH   2  28
ATOM     28  C   UNL     1      -0.526   0.405   8.855  0.00  0.00    +0.201 C 
BRANCH  28  29
ATOM     29  N   UNL     1       0.213  -0.540   9.697  0.00  0.00    -0.302 N 
ATOM     30  C   UNL     1      -0.378  -1.085  10.778  0.00  0.00    +0.251 C 
ATOM     31  O   UNL     1      -1.527  -0.793  11.055  0.00  0.00    -0.270 OA
ATOM     32  H   UNL     1       1.129  -0.773   9.475  0.00  0.00    +0.150 HD
BRANCH  30  33
ATOM     33  C   UNL     1       0.361  -2.030  11.620  0.00  0.00    +0.074 A 
ATOM     34  C   UNL     1      -0.055  -2.691  12.765  0.00  0.00    +0.021 A 
ATOM     35  C   UNL     1       0.848  -3.533  13.364  0.00  0.00    +0.008 A 
ATOM     36  C   UNL     1       2.088  -3.670  12.823  0.00  0.00    +0.046 A 
ATOM     37  S   UNL     1       2.034  -2.623  11.442  0.00  0.00    -0.092 S 
ENDBRANCH  30  33
ENDBRANCH  28  29
ENDBRANCH   2  28
TORSDOF 9
