REMARK  Name = ZINC42358864
REMARK  5 active torsions:
REMARK  status: ('A' for Active; 'I' for Inactive)
REMARK    1  A    between atoms: C_1  and  C_2
REMARK    2  A    between atoms: C_3  and  C_8
REMARK    3  A    between atoms: C_8  and  N_9
REMARK    4  A    between atoms: N_9  and  C_10
REMARK    5  A    between atoms: C_15  and  N_16
REMARK                            x       y       z     vdW  Elec       q    Type
REMARK                         _______ _______ _______ _____ _____    ______ ____
ROOT
ATOM      1  C   UNL     1       1.585   0.538  -4.256  0.00  0.00    +0.049 A 
ATOM      2  C   UNL     1       0.541   0.639  -5.162  0.00  0.00    +0.030 A 
ATOM      3  C   UNL     1       0.775   1.112  -6.439  0.00  0.00    -0.024 A 
ATOM      4  C   UNL     1       2.057   1.488  -6.819  0.00  0.00    +0.038 A 
ATOM      5  C   UNL     1       3.107   1.389  -5.916  0.00  0.00    +0.048 A 
ATOM      6  C   UNL     1       2.873   0.920  -4.632  0.00  0.00    +0.047 A 
ATOM      7  N   UNL     1       2.290   1.966  -8.115  0.00  0.00    -0.285 N 
ATOM      8  C   UNL     1       1.270   2.416  -8.869  0.00  0.00    +0.218 C 
ATOM      9  O   UNL     1       1.486   2.813  -9.994  0.00  0.00    -0.275 OA
ATOM     10  C   UNL     1      -0.136   2.432  -8.331  0.00  0.00    +0.101 C 
ATOM     11  C   UNL     1      -0.360   1.221  -7.424  0.00  0.00    +0.046 C 
ATOM     12  H   UNL     1       3.192   1.973  -8.472  0.00  0.00    +0.155 HD
ENDROOT
BRANCH   6  13
ATOM     13  N   UNL     1       3.928   0.825  -3.717  0.00  0.00    -0.356 N 
ATOM     14  H   UNL     1       3.764   0.493  -2.821  0.00  0.00    +0.142 HD
ATOM     15  H   UNL     1       4.823   1.091  -3.980  0.00  0.00    +0.142 HD
ENDBRANCH   6  13
BRANCH   1  16
ATOM     16  N   UNL     1       1.347   0.058  -2.960  0.00  0.00    -0.338 N 
ATOM     17  H   UNL     1       2.077  -0.009  -2.325  0.00  0.00    +0.146 HD
BRANCH  16  18
ATOM     18  C   UNL     1      -0.006  -0.343  -2.566  0.00  0.00    +0.140 C 
BRANCH  18  21
ATOM     19  C   UNL     1      -0.018   1.503   0.010  0.00  0.00    +0.068 C 
ATOM     20  C   UNL     1       0.002  -0.004   0.002  0.00  0.00    +0.064 A 
ATOM     21  C   UNL     1       0.008  -0.818  -1.135  0.00  0.00    +0.010 A 
ATOM     22  C   UNL     1       0.028  -2.107  -0.725  0.00  0.00    +0.110 A 
ATOM     23  N   UNL     1       0.034  -2.109   0.625  0.00  0.00    -0.284 N 
ATOM     24  H   UNL     1       0.048  -2.894   1.194  0.00  0.00    +0.188 HD
ATOM     25  N   UNL     1       0.023  -0.777   1.058  0.00  0.00    -0.179 NA
ENDBRANCH  18  21
ENDBRANCH  16  18
ENDBRANCH   1  16
TORSDOF 4
