REMARK  Name = ZINC65867340
REMARK  8 active torsions:
REMARK  status: ('A' for Active; 'I' for Inactive)
REMARK    1  A    between atoms: C_1  and  N_2
REMARK    2  A    between atoms: N_2  and  C_3
REMARK    3  A    between atoms: C_3  and  C_4
REMARK    4  A    between atoms: C_7  and  C_9
REMARK    5  A    between atoms: C_9  and  S_10
REMARK    6  A    between atoms: S_10  and  N_13
REMARK    7  A    between atoms: N_13  and  C_14
REMARK    8  A    between atoms: C_17  and  N_20
REMARK                            x       y       z     vdW  Elec       q    Type
REMARK                         _______ _______ _______ _____ _____    ______ ____
ROOT
ATOM      1  S   UNL     1      -0.039  -1.083  -3.855  0.00  0.00    +0.071 S 
ATOM      2  O   UNL     1       1.196  -1.783  -3.907  0.00  0.00    -0.153 OA
ATOM      3  O   UNL     1      -1.273  -1.786  -3.898  0.00  0.00    -0.153 OA
ENDROOT
BRANCH   1   4
ATOM      4  C   UNL     1      -0.036   0.089  -2.470  0.00  0.00    +0.286 C 
BRANCH   4   7
ATOM      5  C   UNL     1      -0.028   1.461   0.010  0.00  0.00    +0.132 C 
ATOM      6  N   UNL     1      -0.026  -0.004   0.002  0.00  0.00    -0.294 N 
ATOM      7  C   UNL     1      -0.030  -0.672  -1.169  0.00  0.00    +0.239 C 
ATOM      8  O   UNL     1      -0.029  -1.885  -1.175  0.00  0.00    -0.274 OA
BRANCH   6   9
ATOM      9  C   UNL     1      -0.021  -0.744   1.267  0.00  0.00    +0.202 C 
BRANCH   9  10
ATOM     10  C   UNL     1      -1.440  -0.999   1.706  0.00  0.00    +0.228 C 
ATOM     11  O   UNL     1      -2.365  -0.602   1.029  0.00  0.00    -0.274 OA
ATOM     12  N   UNL     1      -1.681  -1.668   2.851  0.00  0.00    -0.328 N 
ATOM     13  H   UNL     1      -0.941  -1.985   3.392  0.00  0.00    +0.145 HD
ATOM     14  H   UNL     1      -2.594  -1.832   3.133  0.00  0.00    +0.145 HD
ENDBRANCH   9  10
ENDBRANCH   6   9
ENDBRANCH   4   7
ENDBRANCH   1   4
BRANCH   1  15
ATOM     15  N   UNL     1      -0.046  -0.135  -5.213  0.00  0.00    -0.102 NA
BRANCH  15  16
ATOM     16  C   UNL     1      -0.050  -0.730  -6.481  0.00  0.00    +0.074 A 
ATOM     17  C   UNL     1      -0.054  -2.113  -6.599  0.00  0.00    +0.028 A 
ATOM     18  C   UNL     1      -0.057  -2.699  -7.849  0.00  0.00    +0.025 A 
ATOM     19  C   UNL     1      -0.057  -1.905  -8.989  0.00  0.00    +0.030 A 
ATOM     20  C   UNL     1      -0.053  -0.521  -8.870  0.00  0.00    +0.025 A 
ATOM     21  C   UNL     1      -0.055   0.065  -7.620  0.00  0.00    +0.028 A 
BRANCH  19  22
ATOM     22  N   UNL     1      -0.060  -2.499 -10.256  0.00  0.00    -0.330 N 
ATOM     23  C   UNL     1      -0.180  -1.677 -11.468  0.00  0.00    +0.105 C 
ATOM     24  C   UNL     1       0.981  -2.012 -12.409  0.00  0.00    +0.019 C 
ATOM     25  C   UNL     1       1.001  -3.519 -12.672  0.00  0.00    +0.003 C 
ATOM     26  C   UNL     1       1.217  -4.266 -11.353  0.00  0.00    +0.019 C 
ATOM     27  C   UNL     1       0.064  -3.956 -10.400  0.00  0.00    +0.105 C 
ENDBRANCH  19  22
ENDBRANCH  15  16
ENDBRANCH   1  15
TORSDOF 7
