REMARK  Name = ZINC49693510
REMARK  6 active torsions:
REMARK  status: ('A' for Active; 'I' for Inactive)
REMARK    1  A    between atoms: C_1  and  C_2
REMARK    2  A    between atoms: C_2  and  C_3
REMARK    3  A    between atoms: C_3  and  C_4
REMARK    4  A    between atoms: C_4  and  C_6
REMARK    5  A    between atoms: C_4  and  N_7
REMARK    6  A    between atoms: C_12  and  C_15
REMARK                            x       y       z     vdW  Elec       q    Type
REMARK                         _______ _______ _______ _____ _____    ______ ____
ROOT
ATOM      1  N   UNL     1      -0.667  -2.646   1.503  0.00  0.00    +0.382 N 
ATOM      2  C   UNL     1      -0.610  -4.092   1.747  0.00  0.00    -0.071 C 
ATOM      3  C   UNL     1      -1.992  -4.592   2.182  0.00  0.00    +0.056 C 
ATOM      4  C   UNL     1      -2.999  -4.170   1.132  0.00  0.00    +0.133 C 
ATOM      5  O   UNL     1      -3.798  -4.956   0.680  0.00  0.00    -0.297 OA
ATOM      6  C   UNL     1      -2.969  -2.729   0.668  0.00  0.00    +0.035 C 
ATOM      7  C   UNL     1      -1.517  -2.362   0.341  0.00  0.00    -0.068 C 
ATOM      8  C   UNL     1      -3.836  -2.571  -0.583  0.00  0.00    +0.013 C 
ATOM      9  H   UNL     1      -1.048  -2.187   2.317  0.00  0.00    -0.081 HD
ENDROOT
BRANCH   1  10
ATOM     10  C   UNL     1       0.689  -2.142   1.249  0.00  0.00    -0.072 C 
ATOM     11  C   UNL     1       1.319  -2.929   0.099  0.00  0.00    -0.013 C 
BRANCH  10  12
ATOM     12  C   UNL     1       1.541  -2.311   2.509  0.00  0.00    -0.016 C 
BRANCH  12  14
ATOM     13  C   UNL     1       1.784  -1.653   4.907  0.00  0.00    +0.004 C 
ATOM     14  C   UNL     1       0.986  -1.420   3.623  0.00  0.00    -0.005 C 
ENDBRANCH  12  14
ENDBRANCH  10  12
ENDBRANCH   1  10
TORSDOF 3
