REMARK  Name = ZINC20568335
REMARK  8 active torsions:
REMARK  status: ('A' for Active; 'I' for Inactive)
REMARK    1  A    between atoms: C_1  and  C_2
REMARK    2  A    between atoms: C_2  and  C_34
REMARK    3  A    between atoms: C_6  and  C_21
REMARK    4  A    between atoms: C_8  and  C_19
REMARK    5  A    between atoms: C_9  and  N_18
REMARK    6  A    between atoms: N_10  and  C_11
REMARK    7  A    between atoms: C_24  and  S_27
REMARK    8  A    between atoms: S_27  and  N_30
REMARK                            x       y       z     vdW  Elec       q    Type
REMARK                         _______ _______ _______ _____ _____    ______ ____
ROOT
ATOM      1  C   UNL     1       0.148   5.117   2.081  0.00  0.00    +0.011 C 
ATOM      2  C   UNL     1       0.072   5.482   0.598  0.00  0.00    -0.023 C 
ATOM      3  C   UNL     1      -0.008   4.206  -0.243  0.00  0.00    +0.058 C 
ATOM      4  C   UNL     1      -1.258   3.441   0.116  0.00  0.00    +0.025 C 
ATOM      5  C   UNL     1      -2.370   4.082   0.534  0.00  0.00    +0.025 C 
ATOM      6  C   UNL     1      -3.618   3.315   0.894  0.00  0.00    +0.097 C 
ATOM      7  C   UNL     1      -3.583   1.926   0.329  0.00  0.00    +0.077 C 
ATOM      8  C   UNL     1      -2.416   1.366  -0.089  0.00  0.00    +0.107 C 
ATOM      9  N   UNL     1      -1.240   2.075   0.005  0.00  0.00    -0.260 N 
ATOM     10  C   UNL     1      -2.399   5.483   0.650  0.00  0.00    +0.162 C 
ATOM     11  O   UNL     1      -3.421   6.031   1.011  0.00  0.00    -0.292 OA
ATOM     12  C   UNL     1      -1.186   6.316   0.336  0.00  0.00    +0.086 C 
ATOM     13  C   UNL     1       1.316   6.281   0.201  0.00  0.00    +0.011 C 
ENDROOT
BRANCH   9  14
ATOM     14  C   UNL     1      -0.016   1.396  -0.019  0.00  0.00    +0.040 A 
ATOM     15  C   UNL     1       0.617   1.145  -1.230  0.00  0.00    +0.025 A 
ATOM     16  C   UNL     1       1.821   0.470  -1.251  0.00  0.00    +0.022 A 
ATOM     17  C   UNL     1       2.398   0.044  -0.068  0.00  0.00    +0.041 A 
ATOM     18  C   UNL     1       1.770   0.293   1.140  0.00  0.00    +0.022 A 
ATOM     19  C   UNL     1       0.565   0.967   1.167  0.00  0.00    +0.025 A 
ATOM     20 CL   UNL     1       3.912  -0.805  -0.098  0.00  0.00    -0.084 Cl
ENDBRANCH   9  14
BRANCH   6  21
ATOM     21  C   UNL     1      -3.733   3.235   2.394  0.00  0.00    -0.035 A 
ATOM     22  C   UNL     1      -2.738   2.621   3.132  0.00  0.00    +0.006 A 
ATOM     23  C   UNL     1      -2.841   2.551   4.509  0.00  0.00    +0.029 A 
ATOM     24  C   UNL     1      -3.943   3.088   5.147  0.00  0.00    +0.105 A 
ATOM     25  C   UNL     1      -4.941   3.698   4.409  0.00  0.00    +0.029 A 
ATOM     26  C   UNL     1      -4.835   3.772   3.033  0.00  0.00    +0.006 A 
BRANCH  24  27
ATOM     27  S   UNL     1      -4.077   2.995   6.902  0.00  0.00    +0.056 S 
ATOM     28  O   UNL     1      -2.755   2.860   7.403  0.00  0.00    -0.153 OA
ATOM     29  O   UNL     1      -4.939   4.052   7.300  0.00  0.00    -0.153 OA
BRANCH  27  30
ATOM     30  N   UNL     1      -4.865   1.582   7.258  0.00  0.00    -0.204 NA
ATOM     31  H   UNL     1      -4.969   1.486   8.349  0.00  0.00    +0.144 HD
ATOM     32  H   UNL     1      -4.287   0.731   6.868  0.00  0.00    +0.144 HD
ENDBRANCH  27  30
ENDBRANCH  24  27
ENDBRANCH   6  21
BRANCH   8  33
ATOM     33  N   UNL     1      -2.409   0.090  -0.600  0.00  0.00    -0.345 N 
ATOM     34  H   UNL     1      -1.465  -0.362  -0.938  0.00  0.00    +0.144 HD
ATOM     35  H   UNL     1      -3.348  -0.479  -0.672  0.00  0.00    +0.144 HD
ENDBRANCH   8  33
BRANCH   7  36
ATOM     36  C   UNL     1      -4.800   1.179   0.222  0.00  0.00    +0.099 C 
ATOM     37  N   UNL     1      -5.765   0.586   0.138  0.00  0.00    -0.191 NA
ENDBRANCH   7  36
TORSDOF 6
