REMARK  Name = ZINC10214412
REMARK  6 active torsions:
REMARK  status: ('A' for Active; 'I' for Inactive)
REMARK    1  A    between atoms: C_1  and  C_2
REMARK    2  A    between atoms: C_2  and  C_3
REMARK    3  A    between atoms: C_3  and  N_61
REMARK    4  A    between atoms: C_13  and  C_15
REMARK    5  A    between atoms: C_28  and  O_31
REMARK    6  A    between atoms: O_31  and  C_32
REMARK                            x       y       z     vdW  Elec       q    Type
REMARK                         _______ _______ _______ _____ _____    ______ ____
ROOT
ATOM      1  C   UNL     1      -0.441  -2.521   0.975  0.00  0.00    -0.073 C 
ATOM      2  C   UNL     1      -0.338  -4.042   0.833  0.00  0.00    +0.052 C 
ATOM      3  C   UNL     1      -1.713  -4.666   1.065  0.00  0.00    +0.190 C 
ATOM      4  C   UNL     1      -2.724  -4.070   0.087  0.00  0.00    +0.052 C 
ATOM      5  C   UNL     1      -2.754  -2.548   0.253  0.00  0.00    -0.073 C 
ATOM      6  N   UNL     1      -2.147  -4.428   2.444  0.00  0.00    -0.207 N 
ATOM      7  C   UNL     1      -3.404  -5.023   2.954  0.00  0.00    +0.136 C 
ATOM      8  C   UNL     1      -3.248  -4.891   4.475  0.00  0.00    +0.086 C 
ATOM      9  C   UNL     1      -2.061  -3.963   4.632  0.00  0.00    +0.069 C 
ATOM     10  N   UNL     1      -1.528  -3.744   3.474  0.00  0.00    -0.185 NA
ATOM     11  C   UNL     1      -3.407  -6.462   2.508  0.00  0.00    +0.020 A 
ATOM     12  C   UNL     1      -4.273  -7.354   3.115  0.00  0.00    +0.009 A 
ATOM     13  C   UNL     1      -4.310  -8.675   2.715  0.00  0.00    +0.004 A 
ATOM     14  C   UNL     1      -3.477  -9.109   1.700  0.00  0.00    +0.049 A 
ATOM     15  C   UNL     1      -2.606  -8.224   1.095  0.00  0.00    +0.162 A 
ATOM     16  C   UNL     1      -2.556  -6.886   1.502  0.00  0.00    +0.170 A 
ATOM     17  O   UNL     1      -1.644  -6.083   0.894  0.00  0.00    -0.463 OA
ATOM     18  N   UNL     1      -1.405  -2.010  -0.023  0.00  0.00    +0.380 N 
ATOM     19  H   UNL     1      -1.109  -2.316  -0.958  0.00  0.00    -0.082 HD
ENDROOT
BRANCH   9  20
ATOM     20  C   UNL     1      -1.585  -3.397   5.909  0.00  0.00    +0.001 A 
ATOM     21  C   UNL     1      -2.244  -3.707   7.101  0.00  0.00    +0.013 A 
ATOM     22  C   UNL     1      -1.798  -3.177   8.293  0.00  0.00    +0.050 A 
ATOM     23  C   UNL     1      -0.695  -2.336   8.314  0.00  0.00    +0.166 A 
ATOM     24  C   UNL     1      -0.032  -2.023   7.128  0.00  0.00    +0.167 A 
ATOM     25  C   UNL     1      -0.472  -2.554   5.930  0.00  0.00    +0.059 A 
ATOM     26  O   UNL     1       1.008  -1.187   7.417  0.00  0.00    -0.453 OA
ATOM     27  C   UNL     1       0.730  -0.667   8.730  0.00  0.00    +0.466 C 
ATOM     28  O   UNL     1      -0.068  -1.696   9.345  0.00  0.00    -0.453 OA
ENDBRANCH   9  20
BRANCH  15  29
ATOM     29  O   UNL     1      -1.790  -8.657   0.096  0.00  0.00    -0.491 OA
ATOM     30  C   UNL     1      -1.889 -10.034  -0.272  0.00  0.00    +0.277 C 
ENDBRANCH  15  29
BRANCH  18  31
ATOM     31  C   UNL     1      -1.433  -0.534   0.013  0.00  0.00    -0.079 C 
BRANCH  31  33
ATOM     32  C   UNL     1      -0.019   1.526   0.010  0.00  0.00    +0.002 C 
ATOM     33  C   UNL     1       0.002  -0.004   0.002  0.00  0.00    -0.022 C 
ENDBRANCH  31  33
ENDBRANCH  18  31
TORSDOF 4
