REMARK  Name = ZINC15373144
REMARK  9 active torsions:
REMARK  status: ('A' for Active; 'I' for Inactive)
REMARK    1  A    between atoms: C_4  and  C_30
REMARK    2  A    between atoms: C_5  and  C_7
REMARK    3  A    between atoms: C_7  and  S_8
REMARK    4  A    between atoms: S_8  and  C_9
REMARK    5  A    between atoms: C_9  and  C_10
REMARK    6  A    between atoms: C_10  and  N_11
REMARK    7  A    between atoms: C_12  and  C_14
REMARK    8  A    between atoms: C_19  and  N_20
REMARK    9  A    between atoms: C_21  and  C_23
REMARK                            x       y       z     vdW  Elec       q    Type
REMARK                         _______ _______ _______ _____ _____    ______ ____
ROOT
ATOM      1  C   UNL     1       8.386  -1.840  -3.833  0.00  0.00    +0.058 A 
ATOM      2  C   UNL     1       8.969  -2.031  -2.578  0.00  0.00    +0.015 A 
ATOM      3  C   UNL     1      10.169  -2.699  -2.472  0.00  0.00    +0.001 A 
ATOM      4  C   UNL     1      10.809  -3.174  -3.606  0.00  0.00    +0.002 A 
ATOM      5  C   UNL     1      10.248  -2.988  -4.853  0.00  0.00    +0.024 A 
ATOM      6  C   UNL     1       9.036  -2.322  -4.979  0.00  0.00    +0.046 A 
ENDROOT
BRANCH   1   8
ATOM      7  N   UNL     1       6.428  -0.758  -2.844  0.00  0.00    -0.311 N 
ATOM      8  C   UNL     1       7.098  -1.131  -3.953  0.00  0.00    +0.246 C 
ATOM      9  O   UNL     1       6.641  -0.883  -5.052  0.00  0.00    -0.270 OA
ATOM     10  H   UNL     1       6.793  -0.956  -1.968  0.00  0.00    +0.149 HD
BRANCH   7  11
ATOM     11  C   UNL     1       5.149  -0.054  -2.963  0.00  0.00    +0.115 C 
BRANCH  11  12
ATOM     12  C   UNL     1       4.603   0.251  -1.567  0.00  0.00    +0.088 C 
BRANCH  12  13
ATOM     13  S   UNL     1       3.019   1.123  -1.715  0.00  0.00    -0.154 S 
BRANCH  13  14
ATOM     14  C   UNL     1       2.514   1.408   0.004  0.00  0.00    +0.105 C 
BRANCH  14  19
ATOM     15  C   UNL     1      -0.047   4.184   0.049  0.00  0.00    +0.000 A 
ATOM     16  C   UNL     1      -1.236   3.475   0.062  0.00  0.00    +0.001 A 
ATOM     17  C   UNL     1      -1.221   2.096   0.052  0.00  0.00    +0.019 A 
ATOM     18  C   UNL     1      -0.002   1.415   0.039  0.00  0.00    +0.056 A 
ATOM     19  C   UNL     1       1.194   2.135   0.025  0.00  0.00    -0.020 A 
ATOM     20  C   UNL     1       1.164   3.514   0.031  0.00  0.00    +0.006 A 
BRANCH  18  21
ATOM     21  C   UNL     1       0.021  -0.017   0.033  0.00  0.00    +0.099 C 
ATOM     22  N   UNL     1       0.039  -1.153   0.029  0.00  0.00    -0.191 NA
ENDBRANCH  18  21
ENDBRANCH  14  19
ENDBRANCH  13  14
ENDBRANCH  12  13
ENDBRANCH  11  12
ENDBRANCH   7  11
ENDBRANCH   1   8
BRANCH   6  23
ATOM     23  N   UNL     1       8.468  -2.134  -6.236  0.00  0.00    -0.281 N 
ATOM     24  C   UNL     1       8.607  -3.079  -7.187  0.00  0.00    +0.249 C 
ATOM     25  O   UNL     1       9.145  -4.136  -6.919  0.00  0.00    -0.270 OA
ATOM     26  H   UNL     1       7.973  -1.322  -6.428  0.00  0.00    +0.155 HD
BRANCH  24  27
ATOM     27  C   UNL     1       8.107  -2.830  -8.555  0.00  0.00    +0.051 A 
ATOM     28  C   UNL     1       7.485  -1.619  -8.864  0.00  0.00    +0.014 A 
ATOM     29  C   UNL     1       7.024  -1.391 -10.144  0.00  0.00    +0.001 A 
ATOM     30  C   UNL     1       7.169  -2.364 -11.119  0.00  0.00    +0.001 A 
ATOM     31  C   UNL     1       7.779  -3.568 -10.819  0.00  0.00    +0.016 A 
ATOM     32  C   UNL     1       8.250  -3.807  -9.542  0.00  0.00    +0.030 A 
ATOM     33 BR   UNL     1       9.084  -5.454  -9.133  0.00  0.00    -0.050 Br
ENDBRANCH  24  27
ENDBRANCH   6  23
TORSDOF 9
