REMARK  Name = ZINC07047516
REMARK  1 active torsions:
REMARK  status: ('A' for Active; 'I' for Inactive)
REMARK    1  A    between atoms: N_9  and  C_14
REMARK                            x       y       z     vdW  Elec       q    Type
REMARK                         _______ _______ _______ _____ _____    ______ ____
ROOT
ATOM      1  C   UNL     1       1.082  -0.515  -0.953  0.00  0.00    +0.001 A 
ATOM      2  C   UNL     1      -0.053   0.076  -0.419  0.00  0.00    +0.002 A 
ATOM      3  C   UNL     1      -0.008   1.364   0.078  0.00  0.00    +0.026 A 
ATOM      4  C   UNL     1       1.183   2.073   0.045  0.00  0.00    +0.054 A 
ATOM      5  C   UNL     1       2.334   1.474  -0.496  0.00  0.00    +0.063 A 
ATOM      6  C   UNL     1       2.276   0.175  -0.994  0.00  0.00    +0.015 A 
ATOM      7  C   UNL     1       3.583   2.256  -0.515  0.00  0.00    +0.267 A 
ATOM      8  O   UNL     1       4.607   1.785  -0.972  0.00  0.00    -0.267 OA
ATOM      9  N   UNL     1       3.561   3.510  -0.013  0.00  0.00    -0.256 N 
ATOM     10  C   UNL     1       2.436   4.037   0.494  0.00  0.00    +0.166 A 
ATOM     11  S   UNL     1       2.486   5.633   1.113  0.00  0.00    -0.012 S 
ATOM     12  N   UNL     1       1.272   3.367   0.535  0.00  0.00    -0.334 N 
ATOM     13  H   UNL     1       0.486   3.793   0.912  0.00  0.00    +0.168 HD
ENDROOT
BRANCH   9  14
ATOM     14  C   UNL     1       4.737   4.274  -0.020  0.00  0.00    +0.056 A 
ATOM     15  C   UNL     1       5.031   5.085  -1.107  0.00  0.00    +0.030 A 
ATOM     16  C   UNL     1       6.189   5.839  -1.116  0.00  0.00    +0.052 A 
ATOM     17  C   UNL     1       7.059   5.788  -0.039  0.00  0.00    +0.173 A 
ATOM     18  C   UNL     1       6.767   4.975   1.054  0.00  0.00    +0.175 A 
ATOM     19  C   UNL     1       5.604   4.224   1.063  0.00  0.00    +0.076 A 
ATOM     20  O   UNL     1       7.770   5.100   1.971  0.00  0.00    -0.395 OA
ATOM     21  C   UNL     1       8.876   5.680   1.255  0.00  0.00    +0.589 C 
ATOM     22  O   UNL     1       8.246   6.422   0.195  0.00  0.00    -0.395 OA
ATOM     23  F   UNL     1       9.701   4.679   0.732  0.00  0.00    -0.125 F 
ATOM     24  F   UNL     1       9.609   6.535   2.085  0.00  0.00    -0.125 F 
ENDBRANCH   9  14
TORSDOF 1
