REMARK  Name = ZINC38038635
REMARK  3 active torsions:
REMARK  status: ('A' for Active; 'I' for Inactive)
REMARK    1  A    between atoms: C_5  and  N_8
REMARK    2  A    between atoms: C_9  and  C_11
REMARK    3  A    between atoms: C_11  and  N_12
REMARK                            x       y       z     vdW  Elec       q    Type
REMARK                         _______ _______ _______ _____ _____    ______ ____
ROOT
ATOM      1  N   UNL     1       1.238  -2.081  -0.021  0.00  0.00    -0.282 N 
ATOM      2  C   UNL     1       0.155  -2.774   0.384  0.00  0.00    +0.239 C 
ATOM      3  O   UNL     1      -0.868  -2.189   0.670  0.00  0.00    -0.273 OA
ATOM      4  H   UNL     1       2.032  -2.552  -0.319  0.00  0.00    +0.155 HD
ENDROOT
BRANCH   1   9
ATOM      5  C   UNL     1       0.782   1.397  -1.131  0.00  0.00    +0.032 A 
ATOM      6  C   UNL     1       1.172   2.087   0.003  0.00  0.00    +0.020 A 
ATOM      7  C   UNL     1       1.584   1.397   1.129  0.00  0.00    +0.032 A 
ATOM      8  C   UNL     1       1.607   0.015   1.124  0.00  0.00    +0.041 A 
ATOM      9  C   UNL     1       1.215  -0.681  -0.013  0.00  0.00    +0.062 A 
ATOM     10  C   UNL     1       0.802   0.016  -1.142  0.00  0.00    +0.041 A 
ATOM     11 BR   UNL     1       0.268  -0.926  -2.692  0.00  0.00    -0.048 Br
ATOM     12 BR   UNL     1       2.170  -0.928   2.663  0.00  0.00    -0.048 Br
ATOM     13 BR   UNL     1       1.143   3.978   0.014  0.00  0.00    -0.050 Br
ENDBRANCH   1   9
BRANCH   2  14
ATOM     14  C   UNL     1       0.217  -4.277   0.483  0.00  0.00    +0.241 C 
BRANCH  14  15
ATOM     15  N   UNL     1      -1.076  -4.790   0.943  0.00  0.00    -0.241 N 
ATOM     16  C   UNL     1      -1.835  -5.717   0.336  0.00  0.00    +0.221 A 
ATOM     17  N   UNL     1      -2.911  -5.901   1.058  0.00  0.00    -0.202 NA
ATOM     18  C   UNL     1      -2.875  -5.109   2.134  0.00  0.00    +0.232 A 
ATOM     19  N   UNL     1      -1.763  -4.412   2.108  0.00  0.00    -0.134 NA
ATOM     20  N   UNL     1      -3.856  -5.038   3.125  0.00  0.00    -0.326 N 
ATOM     21  H   UNL     1      -4.647  -5.596   3.065  0.00  0.00    +0.145 HD
ATOM     22  H   UNL     1      -3.746  -4.431   3.874  0.00  0.00    +0.145 HD
ENDBRANCH  14  15
ENDBRANCH   2  14
TORSDOF 3
