REMARK  Name = ZINC21092865
REMARK  7 active torsions:
REMARK  status: ('A' for Active; 'I' for Inactive)
REMARK    1  A    between atoms: C_1  and  C_2
REMARK    2  A    between atoms: C_5  and  C_24
REMARK    3  A    between atoms: C_8  and  C_10
REMARK    4  A    between atoms: C_14  and  N_20
REMARK    5  A    between atoms: C_15  and  O_16
REMARK    6  A    between atoms: O_16  and  C_17
REMARK    7  A    between atoms: C_17  and  C_19
REMARK                            x       y       z     vdW  Elec       q    Type
REMARK                         _______ _______ _______ _____ _____    ______ ____
ROOT
ATOM      1  C   UNL     1      -0.018   1.503   0.010  0.00  0.00    +0.111 C 
ATOM      2  C   UNL     1       0.002  -0.004   0.002  0.00  0.00    +0.235 C 
ATOM      3  O   UNL     1       0.020  -0.616   1.050  0.00  0.00    -0.274 OA
ATOM      4  N   UNL     1       0.000  -0.672  -1.170  0.00  0.00    -0.146 N 
ATOM      5  C   UNL     1       0.012  -2.133  -1.366  0.00  0.00    +0.321 C 
ATOM      6  O   UNL     1       0.003  -2.298  -2.791  0.00  0.00    -0.447 OA
ATOM      7  C   UNL     1      -0.013  -1.066  -3.349  0.00  0.00    +0.244 C 
ATOM      8  N   UNL     1      -0.020  -0.124  -2.461  0.00  0.00    -0.135 NA
ENDROOT
BRANCH   7   9
ATOM      9  C   UNL     1      -0.026  -0.823  -4.805  0.00  0.00    +0.084 A 
ATOM     10  C   UNL     1      -0.029  -1.898  -5.696  0.00  0.00    +0.037 A 
ATOM     11  C   UNL     1      -0.041  -1.664  -7.056  0.00  0.00    +0.044 A 
ATOM     12  C   UNL     1      -0.051  -0.366  -7.541  0.00  0.00    +0.056 A 
ATOM     13  C   UNL     1      -0.048   0.706  -6.668  0.00  0.00    +0.170 A 
ATOM     14  C   UNL     1      -0.042   0.487  -5.300  0.00  0.00    +0.174 A 
ATOM     15 CL   UNL     1      -0.044  -3.001  -8.163  0.00  0.00    -0.083 Cl
BRANCH  13  16
ATOM     16  N   UNL     1      -0.058   2.088  -7.196  0.00  0.00    +0.060 N 
ATOM     17  O   UNL     1      -0.069   2.280  -8.390  0.00  0.00    -0.126 OA
ATOM     18  O   UNL     1      -0.056   3.026  -6.433  0.00  0.00    -0.126 OA
ENDBRANCH  13  16
BRANCH  14  19
ATOM     19  O   UNL     1      -0.046   1.540  -4.442  0.00  0.00    -0.423 OA
BRANCH  19  20
ATOM     20  C   UNL     1       1.138   2.040  -4.052  0.00  0.00    +0.309 C 
ATOM     21  O   UNL     1       2.164   1.553  -4.464  0.00  0.00    -0.251 OA
ATOM     22  C   UNL     1       1.186   3.208  -3.101  0.00  0.00    +0.136 C 
ENDBRANCH  19  20
ENDBRANCH  14  19
ENDBRANCH   7   9
BRANCH   5  23
ATOM     23  C   UNL     1      -1.214  -2.757  -0.752  0.00  0.00    +0.031 A 
ATOM     24  C   UNL     1      -1.168  -4.048  -0.247  0.00  0.00    +0.012 A 
ATOM     25  C   UNL     1      -2.320  -4.581   0.308  0.00  0.00    +0.020 A 
ATOM     26  C   UNL     1      -3.470  -3.814   0.341  0.00  0.00    +0.111 A 
ATOM     27  N   UNL     1      -3.478  -2.590  -0.148  0.00  0.00    -0.263 NA
ATOM     28  C   UNL     1      -2.398  -2.048  -0.679  0.00  0.00    +0.119 A 
ENDBRANCH   5  23
TORSDOF 5
