REMARK  Name = ZINC38959217
REMARK  8 active torsions:
REMARK  status: ('A' for Active; 'I' for Inactive)
REMARK    1  A    between atoms: C_1  and  C_2
REMARK    2  A    between atoms: C_7  and  C_14
REMARK    3  A    between atoms: C_14  and  N_15
REMARK    4  A    between atoms: N_15  and  C_16
REMARK    5  A    between atoms: C_17  and  C_19
REMARK    6  A    between atoms: C_19  and  C_20
REMARK    7  A    between atoms: C_20  and  C_21
REMARK    8  A    between atoms: C_20  and  C_22
REMARK                            x       y       z     vdW  Elec       q    Type
REMARK                         _______ _______ _______ _____ _____    ______ ____
ROOT
ATOM      1  C   UNL     1       4.676  -3.677  -2.914  0.00  0.00    +0.044 C 
ATOM      2  C   UNL     1       3.763  -4.120  -1.800  0.00  0.00    -0.049 A 
ATOM      3  C   UNL     1       4.201  -5.120  -0.932  0.00  0.00    +0.004 A 
ATOM      4  C   UNL     1       3.424  -5.561   0.090  0.00  0.00    +0.010 A 
ATOM      5  C   UNL     1       2.099  -4.966   0.276  0.00  0.00    -0.007 A 
ATOM      6  C   UNL     1       1.284  -5.376   1.289  0.00  0.00    -0.003 C 
ATOM      7  C   UNL     1      -0.070  -4.705   1.406  0.00  0.00    +0.116 C 
ATOM      8  C   UNL     1      -0.406  -3.635   0.391  0.00  0.00    +0.226 C 
ATOM      9  O   UNL     1      -1.479  -3.064   0.439  0.00  0.00    -0.275 OA
ATOM     10  N   UNL     1       0.471  -3.324  -0.548  0.00  0.00    -0.284 N 
ATOM     11  C   UNL     1       1.662  -3.911  -0.655  0.00  0.00    +0.041 A 
ATOM     12  C   UNL     1       2.547  -3.525  -1.678  0.00  0.00    +0.027 A 
ATOM     13  H   UNL     1       0.236  -2.635  -1.190  0.00  0.00    +0.155 HD
ENDROOT
BRANCH   7  14
ATOM     14  C   UNL     1      -1.143  -5.792   1.314  0.00  0.00    +0.124 C 
BRANCH  14  15
ATOM     15  N   UNL     1      -1.041  -6.678   2.477  0.00  0.00    -0.304 N 
ATOM     16  C   UNL     1      -1.695  -6.312   3.736  0.00  0.00    +0.132 C 
ATOM     17  C   UNL     1      -0.346  -7.829   2.388  0.00  0.00    +0.216 C 
ATOM     18  O   UNL     1       0.196  -8.132   1.345  0.00  0.00    -0.276 OA
BRANCH  17  19
ATOM     19  C   UNL     1      -0.241  -8.740   3.583  0.00  0.00    +0.099 C 
BRANCH  19  20
ATOM     20  C   UNL     1       0.596  -9.968   3.217  0.00  0.00    -0.008 C 
ATOM     21  C   UNL     1       0.807 -10.831   4.463  0.00  0.00    +0.008 C 
ATOM     22  C   UNL     1      -0.136 -10.784   2.149  0.00  0.00    +0.008 C 
ENDBRANCH  19  20
ENDBRANCH  17  19
ENDBRANCH  14  15
ENDBRANCH   7  14
TORSDOF 4
