REMARK  Name = ZINC38935642
REMARK  7 active torsions:
REMARK  status: ('A' for Active; 'I' for Inactive)
REMARK    1  A    between atoms: C_1  and  C_2
REMARK    2  A    between atoms: C_5  and  C_8
REMARK    3  A    between atoms: C_8  and  C_10
REMARK    4  A    between atoms: C_11  and  N_12
REMARK    5  A    between atoms: N_12  and  C_13
REMARK    6  A    between atoms: C_16  and  S_19
REMARK    7  A    between atoms: S_19  and  N_22
REMARK                            x       y       z     vdW  Elec       q    Type
REMARK                         _______ _______ _______ _____ _____    ______ ____
ROOT
ATOM      1  C   UNL     1      -0.196  -8.380  -0.003  0.00  0.00    +0.031 A 
ATOM      2  C   UNL     1      -0.395  -9.065   1.190  0.00  0.00    +0.025 A 
ATOM      3  C   UNL     1      -0.584 -10.432   1.175  0.00  0.00    +0.031 A 
ATOM      4  C   UNL     1      -0.576 -11.120  -0.025  0.00  0.00    +0.113 A 
ATOM      5  C   UNL     1      -0.377 -10.442  -1.213  0.00  0.00    +0.031 A 
ATOM      6  C   UNL     1      -0.193  -9.073  -1.206  0.00  0.00    +0.025 A 
ENDROOT
BRANCH   4   7
ATOM      7  S   UNL     1      -0.818 -12.866  -0.039  0.00  0.00    +0.100 S 
ATOM      8  O   UNL     1      -0.222 -13.348  -1.235  0.00  0.00    -0.146 OA
ATOM      9  O   UNL     1      -0.437 -13.339   1.246  0.00  0.00    -0.146 OA
BRANCH   7  10
ATOM     10  N   UNL     1      -2.446 -13.133  -0.179  0.00  0.00    -0.112 NA
ATOM     11  C   UNL     1      -2.904 -14.350  -0.214  0.00  0.00    +0.170 C 
ATOM     12  C   UNL     1      -1.961 -15.528  -0.121  0.00  0.00    +0.191 C 
ATOM     13  N   UNL     1      -2.543 -16.878  -0.166  0.00  0.00    -0.376 N 
ATOM     14  C   UNL     1      -3.836 -16.995  -0.283  0.00  0.00    +0.061 A 
ATOM     15  C   UNL     1      -4.467 -18.323  -0.332  0.00  0.00    +0.027 A 
ATOM     16  C   UNL     1      -5.810 -18.404  -0.453  0.00  0.00    +0.002 A 
ATOM     17  C   UNL     1      -6.615 -17.255  -0.533  0.00  0.00    +0.002 A 
ATOM     18  C   UNL     1      -6.108 -16.003  -0.494  0.00  0.00    +0.030 A 
ATOM     19  C   UNL     1      -4.711 -15.800  -0.369  0.00  0.00    +0.089 A 
ATOM     20  N   UNL     1      -4.223 -14.578  -0.327  0.00  0.00    -0.227 NA
ATOM     21  H   UNL     1      -1.977 -17.664  -0.110  0.00  0.00    +0.160 HD
ENDBRANCH   7  10
ENDBRANCH   4   7
BRANCH   1  22
ATOM     22  N   UNL     1      -0.004  -6.996   0.009  0.00  0.00    -0.320 N 
ATOM     23  H   UNL     1       0.131  -6.518  -0.825  0.00  0.00    +0.152 HD
BRANCH  22  25
ATOM     24  C   UNL     1       0.292  -4.996   1.216  0.00  0.00    +0.066 C 
ATOM     25  C   UNL     1      -0.007  -6.315   1.193  0.00  0.00    +0.076 C 
BRANCH  24  26
ATOM     26  C   UNL     1       0.775  -4.362   0.051  0.00  0.00    +0.187 C 
ATOM     27  O   UNL     1       1.031  -5.021  -0.941  0.00  0.00    -0.287 OA
BRANCH  26  32
ATOM     28  C   UNL     1       1.540   1.343  -0.011  0.00  0.00    +0.044 C 
ATOM     29  C   UNL     1       1.340  -0.150   0.005  0.00  0.00    -0.050 A 
ATOM     30  C   UNL     1       1.631  -0.897  -1.123  0.00  0.00    +0.004 A 
ATOM     31  C   UNL     1       1.450  -2.265  -1.115  0.00  0.00    +0.012 A 
ATOM     32  C   UNL     1       0.972  -2.895   0.035  0.00  0.00    +0.022 A 
ATOM     33  C   UNL     1       0.680  -2.136   1.169  0.00  0.00    +0.012 A 
ATOM     34  C   UNL     1       0.871  -0.770   1.150  0.00  0.00    +0.004 A 
ENDBRANCH  26  32
ENDBRANCH  24  26
ENDBRANCH  22  25
ENDBRANCH   1  22
TORSDOF 6
