REMARK  Name = ZINC09110921
REMARK  5 active torsions:
REMARK  status: ('A' for Active; 'I' for Inactive)
REMARK    1  A    between atoms: C_1  and  N_2
REMARK    2  A    between atoms: N_11  and  C_24
REMARK    3  A    between atoms: N_14  and  N_15
REMARK    4  A    between atoms: C_16  and  C_17
REMARK    5  A    between atoms: C_24  and  C_25
REMARK                            x       y       z     vdW  Elec       q    Type
REMARK                         _______ _______ _______ _____ _____    ______ ____
ROOT
ATOM      1  C   UNL     1      -7.405   5.715   0.070  0.00  0.00    +0.155 C 
ATOM      2  N   UNL     1      -8.148   4.453   0.066  0.00  0.00    -0.280 N 
ATOM      3  C   UNL     1      -7.464   3.247   0.056  0.00  0.00    +0.170 A 
ATOM      4  C   UNL     1      -8.194   2.063   0.052  0.00  0.00    +0.153 A 
ATOM      5  C   UNL     1      -9.600   2.123   0.060  0.00  0.00    +0.280 A 
ATOM      6  O   UNL     1     -10.260   1.099   0.057  0.00  0.00    -0.265 OA
ATOM      7  N   UNL     1     -10.209   3.326   0.070  0.00  0.00    -0.273 N 
ATOM      8  H   UNL     1     -11.208   3.373   0.075  0.00  0.00    +0.173 HD
ATOM      9  C   UNL     1      -9.494   4.465   0.073  0.00  0.00    +0.331 A 
ATOM     10  O   UNL     1     -10.078   5.532   0.082  0.00  0.00    -0.246 OA
ATOM     11  N   UNL     1      -7.266   1.032   0.042  0.00  0.00    -0.301 N 
ATOM     12  C   UNL     1      -6.036   1.612   0.039  0.00  0.00    +0.218 A 
ATOM     13  N   UNL     1      -6.171   2.923   0.053  0.00  0.00    -0.195 NA
ATOM     14  N   UNL     1      -4.838   0.935   0.030  0.00  0.00    -0.206 N 
ATOM     15  H   UNL     1      -4.828  -0.035   0.025  0.00  0.00    +0.177 HD
ENDROOT
BRANCH  14  16
ATOM     16  N   UNL     1      -3.631   1.648   0.028  0.00  0.00    -0.188 NA
ATOM     17  C   UNL     1      -2.501   1.010   0.019  0.00  0.00    +0.138 C 
BRANCH  17  18
ATOM     18  C   UNL     1      -1.231   1.759   0.017  0.00  0.00    -0.005 A 
ATOM     19  C   UNL     1      -0.013   1.076   0.008  0.00  0.00    +0.011 A 
ATOM     20  C   UNL     1       1.171   1.783   0.001  0.00  0.00    +0.020 A 
ATOM     21  C   UNL     1       1.154   3.168   0.008  0.00  0.00    +0.041 A 
ATOM     22  C   UNL     1      -0.050   3.852   0.023  0.00  0.00    +0.020 A 
ATOM     23  C   UNL     1      -1.241   3.156   0.031  0.00  0.00    +0.011 A 
ATOM     24 CL   UNL     1       2.649   4.051  -0.002  0.00  0.00    -0.084 Cl
ENDBRANCH  17  18
ENDBRANCH  14  16
BRANCH  11  25
ATOM     25  C   UNL     1      -7.556  -0.405   0.036  0.00  0.00    +0.160 C 
BRANCH  25  26
ATOM     26  C   UNL     1      -7.648  -0.905   1.454  0.00  0.00    -0.027 A 
ATOM     27  C   UNL     1      -6.517  -1.376   2.095  0.00  0.00    +0.008 A 
ATOM     28  C   UNL     1      -6.599  -1.830   3.397  0.00  0.00    +0.038 A 
ATOM     29  C   UNL     1      -7.816  -1.824   4.057  0.00  0.00    +0.123 A 
ATOM     30  C   UNL     1      -8.949  -1.357   3.412  0.00  0.00    +0.038 A 
ATOM     31  C   UNL     1      -8.864  -0.898   2.112  0.00  0.00    +0.008 A 
ATOM     32  F   UNL     1      -7.899  -2.272   5.329  0.00  0.00    -0.205 F 
ENDBRANCH  25  26
ENDBRANCH  11  25
TORSDOF 4
