REMARK  Name = ZINC10425451
REMARK  9 active torsions:
REMARK  status: ('A' for Active; 'I' for Inactive)
REMARK    1  A    between atoms: C_1  and  C_2
REMARK    2  A    between atoms: C_5  and  C_9
REMARK    3  A    between atoms: C_7  and  C_8
REMARK    4  A    between atoms: C_10  and  C_20
REMARK    5  A    between atoms: N_12  and  C_14
REMARK    6  A    between atoms: N_22  and  C_23
REMARK    7  A    between atoms: C_23  and  C_24
REMARK    8  A    between atoms: C_24  and  C_25
REMARK    9  A    between atoms: C_25  and  N_26
REMARK                            x       y       z     vdW  Elec       q    Type
REMARK                         _______ _______ _______ _____ _____    ______ ____
ROOT
ATOM      1  C   UNL     1       2.481   1.071  -0.016  0.00  0.00    +0.105 A 
ATOM      2  C   UNL     1       2.781  -0.200   0.650  0.00  0.00    +0.082 A 
ATOM      3  C   UNL     1       4.100  -0.488   0.363  0.00  0.00    +0.128 A 
ATOM      4  N   UNL     1       4.580   0.504  -0.406  0.00  0.00    -0.239 N 
ATOM      5  N   UNL     1       3.576   1.449  -0.636  0.00  0.00    -0.166 NA
ENDROOT
BRANCH   1  10
ATOM      6  C   UNL     1      -2.554   3.865   0.048  0.00  0.00    +0.044 C 
ATOM      7  C   UNL     1      -1.236   3.134   0.031  0.00  0.00    -0.047 A 
ATOM      8  C   UNL     1      -1.216   1.751   0.017  0.00  0.00    +0.004 A 
ATOM      9  C   UNL     1      -0.013   1.076   0.008  0.00  0.00    +0.010 A 
ATOM     10  C   UNL     1       1.184   1.791   0.000  0.00  0.00    +0.003 A 
ATOM     11  C   UNL     1       1.158   3.184   0.008  0.00  0.00    +0.013 A 
ATOM     12  C   UNL     1      -0.052   3.849   0.023  0.00  0.00    -0.047 A 
ATOM     13  C   UNL     1      -0.083   5.355   0.032  0.00  0.00    +0.044 C 
ENDBRANCH   1  10
BRANCH   4  14
ATOM     14  C   UNL     1       5.887   0.577  -0.907  0.00  0.00    +0.065 A 
ATOM     15  C   UNL     1       6.801  -0.425  -0.612  0.00  0.00    +0.028 A 
ATOM     16  C   UNL     1       8.088  -0.353  -1.111  0.00  0.00    +0.002 A 
ATOM     17  C   UNL     1       8.467   0.721  -1.895  0.00  0.00    +0.000 A 
ATOM     18  C   UNL     1       7.560   1.723  -2.186  0.00  0.00    +0.002 A 
ATOM     19  C   UNL     1       6.271   1.654  -1.695  0.00  0.00    +0.028 A 
ENDBRANCH   4  14
BRANCH   2  20
ATOM     20  C   UNL     1       1.858  -1.010   1.463  0.00  0.00    +0.248 C 
ATOM     21  O   UNL     1       0.714  -0.636   1.637  0.00  0.00    -0.270 OA
ATOM     22  N   UNL     1       2.281  -2.164   2.015  0.00  0.00    -0.311 N 
ATOM     23  H   UNL     1       3.194  -2.462   1.877  0.00  0.00    +0.149 HD
BRANCH  22  24
ATOM     24  C   UNL     1       1.363  -2.969   2.824  0.00  0.00    +0.106 C 
BRANCH  24  25
ATOM     25  C   UNL     1       2.089  -4.218   3.328  0.00  0.00    +0.038 C 
BRANCH  25  26
ATOM     26  C   UNL     1       1.130  -5.059   4.173  0.00  0.00    +0.119 C 
BRANCH  26  27
ATOM     27  N   UNL     1       1.825  -6.255   4.656  0.00  0.00    -0.224 N 
ATOM     28  C   UNL     1       2.505  -6.320   5.821  0.00  0.00    +0.246 C 
ATOM     29  O   UNL     1       2.652  -5.436   6.637  0.00  0.00    -0.273 OA
ATOM     30  C   UNL     1       3.041  -7.727   5.890  0.00  0.00    +0.113 C 
ATOM     31  C   UNL     1       2.508  -8.460   7.128  0.00  0.00    +0.035 C 
ATOM     32  C   UNL     1       3.689  -9.366   7.565  0.00  0.00    +0.003 C 
ATOM     33  C   UNL     1       4.927  -8.479   7.280  0.00  0.00    +0.003 C 
ATOM     34  C   UNL     1       4.569  -7.736   5.974  0.00  0.00    +0.035 C 
ATOM     35  N   UNL     1       2.570  -8.361   4.657  0.00  0.00    -0.285 N 
ATOM     36  C   UNL     1       1.860  -7.422   3.999  0.00  0.00    +0.309 C 
ATOM     37  O   UNL     1       1.317  -7.612   2.929  0.00  0.00    -0.252 OA
ATOM     38  H   UNL     1       2.732  -9.274   4.372  0.00  0.00    +0.151 HD
ENDBRANCH  26  27
ENDBRANCH  25  26
ENDBRANCH  24  25
ENDBRANCH  22  24
ENDBRANCH   2  20
TORSDOF 7
