REMARK  Name = ZINC22220041
REMARK  9 active torsions:
REMARK  status: ('A' for Active; 'I' for Inactive)
REMARK    1  A    between atoms: C_1  and  C_2
REMARK    2  A    between atoms: C_6  and  C_13
REMARK    3  A    between atoms: C_13  and  O_14
REMARK    4  A    between atoms: O_14  and  C_15
REMARK    5  A    between atoms: C_15  and  C_17
REMARK    6  A    between atoms: C_17  and  N_18
REMARK    7  A    between atoms: C_23  and  C_30
REMARK    8  A    between atoms: C_26  and  C_28
REMARK    9  A    between atoms: C_26  and  C_29
REMARK                            x       y       z     vdW  Elec       q    Type
REMARK                         _______ _______ _______ _____ _____    ______ ____
ROOT
ATOM      1  C   UNL     1       4.724   5.439  -0.013  0.00  0.00    +0.238 C 
ENDROOT
BRANCH   1   2
ATOM      2  N   UNL     1       5.911   6.298  -0.019  0.00  0.00    -0.213 N 
ATOM      3  C   UNL     1       6.534   6.739   1.093  0.00  0.00    +0.247 C 
ATOM      4  O   UNL     1       6.231   6.509   2.244  0.00  0.00    -0.273 OA
ATOM      5  C   UNL     1       7.690   7.579   0.602  0.00  0.00    +0.113 C 
ATOM      6  C   UNL     1       9.018   6.985   1.060  0.00  0.00    +0.038 C 
ATOM      7  C   UNL     1      10.172   7.835   0.522  0.00  0.00    -0.011 C 
ATOM      8  C   UNL     1      10.030   9.269   1.037  0.00  0.00    +0.009 C 
ATOM      9  C   UNL     1       8.704   9.859   0.552  0.00  0.00    -0.032 C 
ATOM     10  C   UNL     1       7.545   9.016   1.090  0.00  0.00    +0.041 C 
ATOM     11  C   UNL     1       8.672   9.853  -0.977  0.00  0.00    +0.011 C 
ATOM     12  C   UNL     1       8.569  11.296   1.060  0.00  0.00    +0.011 C 
ATOM     13  C   UNL     1      11.502   7.251   1.000  0.00  0.00    +0.007 C 
ATOM     14  N   UNL     1       7.578   7.520  -0.861  0.00  0.00    -0.285 N 
ATOM     15  C   UNL     1       6.508   6.748  -1.130  0.00  0.00    +0.310 C 
ATOM     16  O   UNL     1       6.127   6.488  -2.255  0.00  0.00    -0.252 OA
ATOM     17  H   UNL     1       8.304   8.055  -1.491  0.00  0.00    +0.151 HD
ENDBRANCH   1   2
BRANCH   1  18
ATOM     18  C   UNL     1       5.151   3.993  -0.028  0.00  0.00    +0.326 C 
ATOM     19  O   UNL     1       6.326   3.710  -0.042  0.00  0.00    -0.249 OA
BRANCH  18  20
ATOM     20  O   UNL     1       4.226   3.021  -0.025  0.00  0.00    -0.459 OA
BRANCH  20  21
ATOM     21  C   UNL     1       4.710   1.651  -0.040  0.00  0.00    +0.268 C 
BRANCH  21  27
ATOM     22  C   UNL     1       4.277  -4.984  -0.082  0.00  0.00    +0.044 C 
ATOM     23  C   UNL     1       4.080  -3.490  -0.069  0.00  0.00    -0.047 A 
ATOM     24  C   UNL     1       5.186  -2.652  -0.076  0.00  0.00    +0.004 A 
ATOM     25  C   UNL     1       5.028  -1.294  -0.064  0.00  0.00    +0.012 A 
ATOM     26  C   UNL     1       3.741  -0.747  -0.046  0.00  0.00    +0.024 A 
ATOM     27  C   UNL     1       3.537   0.705  -0.034  0.00  0.00    +0.007 A 
ATOM     28  C   UNL     1       2.263   1.173  -0.017  0.00  0.00    +0.099 A 
ATOM     29  C   UNL     1       1.182   0.265  -0.011  0.00  0.00    +0.338 A 
ATOM     30  O   UNL     1       0.044   0.697  -0.001  0.00  0.00    -0.245 OA
ATOM     31  O   UNL     1       1.377  -1.063  -0.023  0.00  0.00    -0.422 OA
ATOM     32  C   UNL     1       2.618  -1.593  -0.040  0.00  0.00    +0.140 A 
ATOM     33  C   UNL     1       2.803  -2.970  -0.052  0.00  0.00    +0.050 A 
ENDBRANCH  21  27
ENDBRANCH  20  21
ENDBRANCH  18  20
ENDBRANCH   1  18
TORSDOF 5
