REMARK  Name = ZINC08298916
REMARK  6 active torsions:
REMARK  status: ('A' for Active; 'I' for Inactive)
REMARK    1  A    between atoms: C_2  and  C_26
REMARK    2  A    between atoms: N_5  and  C_6
REMARK    3  A    between atoms: C_6  and  C_7
REMARK    4  A    between atoms: C_15  and  C_17
REMARK    5  A    between atoms: N_19  and  C_20
REMARK    6  A    between atoms: C_26  and  O_32
REMARK                            x       y       z     vdW  Elec       q    Type
REMARK                         _______ _______ _______ _____ _____    ______ ____
ROOT
ATOM      1  C   UNL     1       0.826  -0.496  -1.190  0.00  0.00    -0.046 C 
ATOM      2  C   UNL     1       0.949  -2.022  -1.130  0.00  0.00    -0.010 C 
ATOM      3  C   UNL     1       0.331  -2.618  -2.401  0.00  0.00    -0.004 C 
ATOM      4  C   UNL     1      -1.139  -2.187  -2.479  0.00  0.00    -0.015 C 
ATOM      5  C   UNL     1      -1.205  -0.657  -2.502  0.00  0.00    -0.078 C 
ATOM      6  C   UNL     1       0.944  -0.526  -3.609  0.00  0.00    -0.065 C 
ATOM      7  C   UNL     1       1.068  -2.069  -3.629  0.00  0.00    +0.061 C 
ATOM      8  N   UNL     1       0.155  -0.081  -2.441  0.00  0.00    +0.383 N 
ATOM      9  H   UNL     1       0.085   0.943  -2.457  0.00  0.00    -0.081 HD
ENDROOT
BRANCH   7  10
ATOM     10  C   UNL     1       0.455  -2.638  -4.882  0.00  0.00    +0.215 C 
ATOM     11  O   UNL     1      -0.480  -3.407  -4.805  0.00  0.00    -0.276 OA
ATOM     12  N   UNL     1       0.944  -2.292  -6.089  0.00  0.00    -0.312 N 
ATOM     13  H   UNL     1       1.692  -1.676  -6.151  0.00  0.00    +0.149 HD
BRANCH  12  14
ATOM     14  C   UNL     1       0.348  -2.845  -7.308  0.00  0.00    +0.073 C 
ATOM     15  C   UNL     1       0.974  -4.208  -7.608  0.00  0.00    +0.022 C 
ATOM     16  C   UNL     1       0.351  -4.786  -8.881  0.00  0.00    +0.002 C 
ATOM     17  C   UNL     1       0.612  -3.837 -10.052  0.00  0.00    +0.000 C 
ATOM     18  C   UNL     1      -0.014  -2.473  -9.752  0.00  0.00    +0.002 C 
ATOM     19  C   UNL     1       0.608  -1.895  -8.479  0.00  0.00    +0.022 C 
ENDBRANCH  12  14
ENDBRANCH   7  10
BRANCH   1  20
ATOM     20  C   UNL     1       0.002  -0.004   0.002  0.00  0.00    +0.130 C 
BRANCH  20  25
ATOM     21  C   UNL     1      -1.125   2.239   0.019  0.00  0.00    +0.136 A 
ATOM     22  C   UNL     1      -0.686   3.519   0.026  0.00  0.00    +0.114 A 
ATOM     23  N   UNL     1       0.650   3.463   0.014  0.00  0.00    -0.132 NA
ATOM     24  N   UNL     1       1.015   2.229   0.004  0.00  0.00    -0.065 NA
ATOM     25  N   UNL     1      -0.018   1.461   0.010  0.00  0.00    -0.253 N 
BRANCH  22  26
ATOM     26  C   UNL     1      -1.536   4.763   0.040  0.00  0.00    +0.111 C 
ATOM     27  C   UNL     1      -1.239   5.598  -1.208  0.00  0.00    +0.041 C 
ATOM     28  C   UNL     1      -2.102   6.861  -1.194  0.00  0.00    +0.003 C 
ATOM     29  C   UNL     1      -1.783   7.683   0.057  0.00  0.00    +0.000 C 
ATOM     30  C   UNL     1      -2.080   6.848   1.305  0.00  0.00    +0.003 C 
ATOM     31  C   UNL     1      -1.217   5.585   1.291  0.00  0.00    +0.041 C 
BRANCH  26  32
ATOM     32  O   UNL     1      -2.917   4.397   0.050  0.00  0.00    -0.382 OA
ATOM     33  H   UNL     1      -3.191   3.873  -0.715  0.00  0.00    +0.211 HD
ENDBRANCH  26  32
ENDBRANCH  22  26
ENDBRANCH  20  25
ENDBRANCH   1  20
TORSDOF 6
