REMARK  Name = ZINC38743011
REMARK  4 active torsions:
REMARK  status: ('A' for Active; 'I' for Inactive)
REMARK    1  A    between atoms: C_4  and  C_7
REMARK    2  A    between atoms: C_9  and  C_13
REMARK    3  A    between atoms: C_21  and  C_23
REMARK    4  A    between atoms: C_23  and  C_24
REMARK                            x       y       z     vdW  Elec       q    Type
REMARK                         _______ _______ _______ _____ _____    ______ ____
ROOT
ATOM      1  C   UNL     1       5.782  -3.012   1.181  0.00  0.00    +0.206 C 
ATOM      2  N   UNL     1       5.484  -2.225   2.402  0.00  0.00    -0.231 NA
ATOM      3  N   UNL     1       6.783  -1.874   3.002  0.00  0.00    -0.224 NA
ATOM      4  C   UNL     1       7.704  -1.929   1.849  0.00  0.00    +0.240 C 
ATOM      5  N   UNL     1       7.252  -3.191   1.173  0.00  0.00    -0.206 N 
ATOM      6  N   UNL     1       8.278  -4.063   0.881  0.00  0.00    -0.178 NA
ATOM      7  C   UNL     1       9.465  -3.953   1.378  0.00  0.00    +0.099 C 
ATOM      8  S   UNL     1       9.394  -2.418   2.357  0.00  0.00    -0.067 S 
ATOM      9  H   UNL     1       4.920  -2.757   3.047  0.00  0.00    +0.143 HD
ATOM     10  H   UNL     1       7.048  -2.544   3.709  0.00  0.00    +0.144 HD
ENDROOT
BRANCH   1  13
ATOM     11  C   UNL     1       3.699  -0.689  -0.037  0.00  0.00    +0.091 C 
ATOM     12  C   UNL     1       3.832  -2.029  -0.051  0.00  0.00    +0.034 C 
ATOM     13  C   UNL     1       5.335  -2.245  -0.065  0.00  0.00    +0.190 C 
ATOM     14  N   UNL     1       5.871  -0.874  -0.056  0.00  0.00    -0.176 NA
ATOM     15  N   UNL     1       4.919  -0.090  -0.047  0.00  0.00    -0.154 NA
BRANCH  11  19
ATOM     16  C   UNL     1      -0.017   1.379   0.010  0.00  0.00    +0.000 A 
ATOM     17  C   UNL     1       1.169   2.092   0.002  0.00  0.00    +0.001 A 
ATOM     18  C   UNL     1       2.377   1.426  -0.013  0.00  0.00    +0.010 A 
ATOM     19  C   UNL     1       2.402   0.033  -0.021  0.00  0.00    +0.002 A 
ATOM     20  C   UNL     1       1.205  -0.680  -0.013  0.00  0.00    +0.010 A 
ATOM     21  C   UNL     1       0.002  -0.004   0.002  0.00  0.00    +0.001 A 
ENDBRANCH  11  19
ENDBRANCH   1  13
BRANCH   7  22
ATOM     22  C   UNL     1      10.642  -4.874   1.184  0.00  0.00    +0.100 C 
BRANCH  22  23
ATOM     23  C   UNL     1      10.245  -6.014   0.282  0.00  0.00    -0.033 A 
ATOM     24  C   UNL     1       9.819  -7.192   0.815  0.00  0.00    +0.004 A 
ATOM     25  C   UNL     1       9.448  -8.257  -0.003  0.00  0.00    +0.001 A 
ATOM     26  C   UNL     1       9.500  -8.150  -1.359  0.00  0.00    +0.008 A 
ATOM     27  C   UNL     1       9.934  -6.949  -1.946  0.00  0.00    -0.018 A 
ATOM     28  C   UNL     1      10.306  -5.864  -1.114  0.00  0.00    -0.014 A 
ATOM     29  C   UNL     1      10.734  -4.661  -1.701  0.00  0.00    +0.009 A 
ATOM     30  C   UNL     1      10.781  -4.552  -3.056  0.00  0.00    +0.001 A 
ATOM     31  C   UNL     1      10.409  -5.617  -3.875  0.00  0.00    +0.001 A 
ATOM     32  C   UNL     1      10.002  -6.802  -3.342  0.00  0.00    +0.008 A 
ENDBRANCH  22  23
ENDBRANCH   7  22
TORSDOF 4
