REMARK  Name = ZINC14165985
REMARK  7 active torsions:
REMARK  status: ('A' for Active; 'I' for Inactive)
REMARK    1  A    between atoms: C_1  and  C_2
REMARK    2  A    between atoms: C_2  and  O_3
REMARK    3  A    between atoms: O_3  and  C_4
REMARK    4  A    between atoms: C_7  and  C_10
REMARK    5  A    between atoms: C_21  and  S_26
REMARK    6  A    between atoms: S_26  and  N_29
REMARK    7  A    between atoms: N_29  and  C_30
REMARK                            x       y       z     vdW  Elec       q    Type
REMARK                         _______ _______ _______ _____ _____    ______ ____
ROOT
ATOM      1  C   UNL     1      -2.053  -6.574  -0.268  0.00  0.00    +0.105 C 
ATOM      2  C   UNL     1      -2.274  -7.020   1.163  0.00  0.00    +0.029 C 
ATOM      3  C   UNL     1      -1.462  -6.075   2.093  0.00  0.00    +0.033 C 
ATOM      4  C   UNL     1      -2.445  -4.988   2.468  0.00  0.00    -0.030 C 
ATOM      5  C   UNL     1      -3.676  -5.369   2.234  0.00  0.00    -0.023 C 
ATOM      6  C   UNL     1      -3.696  -6.786   1.668  0.00  0.00    +0.049 C 
ATOM      7  C   UNL     1      -4.759  -6.985   0.641  0.00  0.00    -0.018 A 
ATOM      8  C   UNL     1      -6.077  -7.127   1.053  0.00  0.00    +0.034 A 
ATOM      9  C   UNL     1      -7.083  -7.325   0.129  0.00  0.00    +0.109 A 
ATOM     10  C   UNL     1      -6.786  -7.387  -1.220  0.00  0.00    +0.030 A 
ATOM     11  C   UNL     1      -5.480  -7.242  -1.641  0.00  0.00    +0.025 A 
ATOM     12  C   UNL     1      -4.465  -7.034  -0.713  0.00  0.00    +0.031 A 
ATOM     13  N   UNL     1      -3.169  -6.836  -1.149  0.00  0.00    -0.336 N 
ATOM     14  H   UNL     1      -2.999  -6.900  -2.101  0.00  0.00    +0.147 HD
ENDROOT
BRANCH   1  18
ATOM     15  C   UNL     1      -1.275  -2.372  -0.276  0.00  0.00    +0.121 A 
ATOM     16  C   UNL     1      -0.222  -3.273  -0.322  0.00  0.00    +0.046 A 
ATOM     17  C   UNL     1      -0.476  -4.631  -0.319  0.00  0.00    +0.009 A 
ATOM     18  C   UNL     1      -1.778  -5.092  -0.270  0.00  0.00    -0.027 A 
ATOM     19  C   UNL     1      -2.830  -4.196  -0.225  0.00  0.00    +0.009 A 
ATOM     20  C   UNL     1      -2.581  -2.837  -0.221  0.00  0.00    +0.046 A 
BRANCH  15  21
ATOM     21  O   UNL     1      -1.028  -1.036  -0.278  0.00  0.00    -0.492 OA
BRANCH  21  23
ATOM     22  C   UNL     1       0.420   0.899  -0.330  0.00  0.00    +0.048 C 
ATOM     23  C   UNL     1       0.341  -0.629  -0.336  0.00  0.00    +0.225 C 
ENDBRANCH  21  23
ENDBRANCH  15  21
ENDBRANCH   1  18
BRANCH   9  24
ATOM     24  S   UNL     1      -8.750  -7.501   0.671  0.00  0.00    +0.072 S 
ATOM     25  O   UNL     1      -9.433  -8.221  -0.345  0.00  0.00    -0.150 OA
ATOM     26  O   UNL     1      -8.694  -7.951   2.018  0.00  0.00    -0.150 OA
BRANCH  24  27
ATOM     27  N   UNL     1      -9.416  -5.985   0.706  0.00  0.00    -0.216 N 
ATOM     28  H   UNL     1      -9.753  -5.623   1.540  0.00  0.00    +0.174 HD
BRANCH  27  29
ATOM     29  C   UNL     1      -9.492  -5.231  -0.463  0.00  0.00    +0.056 A 
ATOM     30  C   UNL     1      -9.734  -5.845  -1.673  0.00  0.00    +0.025 A 
ATOM     31  C   UNL     1      -9.813  -5.101  -2.846  0.00  0.00    +0.002 A 
ATOM     32  C   UNL     1      -9.653  -3.748  -2.832  0.00  0.00    +0.008 A 
ATOM     33  C   UNL     1      -9.405  -3.083  -1.619  0.00  0.00    -0.016 A 
ATOM     34  C   UNL     1      -9.328  -3.829  -0.418  0.00  0.00    +0.004 A 
ATOM     35  C   UNL     1      -9.085  -3.163   0.793  0.00  0.00    +0.010 A 
ATOM     36  C   UNL     1      -8.931  -1.810   0.799  0.00  0.00    +0.001 A 
ATOM     37  C   UNL     1      -9.013  -1.074  -0.382  0.00  0.00    +0.001 A 
ATOM     38  C   UNL     1      -9.235  -1.688  -1.576  0.00  0.00    +0.008 A 
ENDBRANCH  27  29
ENDBRANCH  24  27
ENDBRANCH   9  24
TORSDOF 6
