REMARK  Name = ZINC12833909
REMARK  11 active torsions:
REMARK  status: ('A' for Active; 'I' for Inactive)
REMARK    1  A    between atoms: C_1  and  C_2
REMARK    2  A    between atoms: C_6  and  C_15
REMARK    3  A    between atoms: C_13  and  C_14
REMARK    4  A    between atoms: C_15  and  C_17
REMARK    5  A    between atoms: C_15  and  N_70
REMARK    6  A    between atoms: N_21  and  C_22
REMARK    7  A    between atoms: C_22  and  C_23
REMARK    8  A    between atoms: C_29  and  C_30
REMARK    9  A    between atoms: C_29  and  N_70
REMARK   10  A    between atoms: C_36  and  C_37
REMARK   11  A    between atoms: C_36  and  N_70
REMARK                            x       y       z     vdW  Elec       q    Type
REMARK                         _______ _______ _______ _____ _____    ______ ____
ROOT
ATOM      1  C   UNL     1      -6.003   2.789   3.444  0.00  0.00    +0.040 C 
ENDROOT
BRANCH   1   7
ATOM      2  C   UNL     1      -1.754  -2.130   7.100  0.00  0.00    +0.044 C 
ATOM      3  C   UNL     1      -1.903  -0.864   6.296  0.00  0.00    -0.047 A 
ATOM      4  C   UNL     1      -3.142  -0.474   5.870  0.00  0.00    +0.013 A 
ATOM      5  C   UNL     1      -3.281   0.703   5.128  0.00  0.00    -0.001 A 
ATOM      6  C   UNL     1      -4.594   1.152   4.660  0.00  0.00    +0.017 A 
ATOM      7  C   UNL     1      -4.667   2.298   3.940  0.00  0.00    +0.011 A 
ATOM      8  C   UNL     1      -3.497   3.034   3.653  0.00  0.00    +0.251 A 
ATOM      9  O   UNL     1      -3.586   4.061   3.004  0.00  0.00    -0.268 OA
ATOM     10  N   UNL     1      -2.287   2.629   4.078  0.00  0.00    -0.322 N 
ATOM     11  H   UNL     1      -1.503   3.158   3.863  0.00  0.00    +0.169 HD
ATOM     12  C   UNL     1      -2.145   1.472   4.815  0.00  0.00    +0.049 A 
ATOM     13  C   UNL     1      -0.894   1.053   5.254  0.00  0.00    +0.030 A 
ATOM     14  C   UNL     1      -0.780  -0.107   5.989  0.00  0.00    -0.046 A 
ATOM     15  C   UNL     1       0.576  -0.559   6.465  0.00  0.00    +0.044 C 
ENDBRANCH   1   7
BRANCH   1  16
ATOM     16  C   UNL     1      -6.100   4.278   3.653  0.00  0.00    +0.143 A 
ATOM     17  N   UNL     1      -5.891   4.926   4.773  0.00  0.00    -0.115 NA
ATOM     18  N   UNL     1      -6.070   6.182   4.546  0.00  0.00    -0.023 NA
ATOM     19  N   UNL     1      -6.394   6.351   3.312  0.00  0.00    -0.044 NA
ATOM     20  N   UNL     1      -6.424   5.200   2.728  0.00  0.00    -0.228 N 
BRANCH  20  21
ATOM     21  C   UNL     1      -6.749   4.946   1.322  0.00  0.00    +0.178 C 
BRANCH  21  22
ATOM     22  C   UNL     1      -8.255   4.717   1.181  0.00  0.00    +0.140 C 
ATOM     23  C   UNL     1      -8.592   4.335  -0.277  0.00  0.00    +0.035 C 
ATOM     24  C   UNL     1      -9.924   5.096  -0.518  0.00  0.00    +0.031 C 
ATOM     25  C   UNL     1      -9.691   6.371   0.331  0.00  0.00    +0.160 C 
ATOM     26  O   UNL     1      -8.961   5.926   1.485  0.00  0.00    -0.375 OA
ENDBRANCH  21  22
ENDBRANCH  20  21
ENDBRANCH   1  16
BRANCH   1  27
ATOM     27  N   UNL     1      -7.069   2.092   4.193  0.00  0.00    +0.397 N 
ATOM     28  H   UNL     1      -6.757   1.137   4.406  0.00  0.00    -0.079 HD
BRANCH  27  29
ATOM     29  C   UNL     1      -8.299   2.024   3.377  0.00  0.00    -0.039 C 
BRANCH  29  30
ATOM     30  C   UNL     1      -9.229   1.006   3.985  0.00  0.00    -0.046 A 
ATOM     31  C   UNL     1     -10.244   1.406   4.841  0.00  0.00    +0.005 A 
ATOM     32  C   UNL     1     -11.075   0.435   5.377  0.00  0.00    +0.020 A 
ATOM     33  C   UNL     1     -10.866  -0.890   5.044  0.00  0.00    +0.111 A 
ATOM     34  N   UNL     1      -9.889  -1.234   4.227  0.00  0.00    -0.263 NA
ATOM     35  C   UNL     1      -9.083  -0.337   3.694  0.00  0.00    +0.112 A 
ENDBRANCH  29  30
ENDBRANCH  27  29
BRANCH  27  36
ATOM     36  C   UNL     1      -7.342   2.801   5.461  0.00  0.00    -0.001 C 
BRANCH  36  37
ATOM     37  C   UNL     1      -6.298   2.403   6.471  0.00  0.00    +0.089 A 
ATOM     38  C   UNL     1      -5.196   3.109   6.784  0.00  0.00    +0.042 A 
ATOM     39  C   UNL     1      -4.505   2.372   7.773  0.00  0.00    +0.041 A 
ATOM     40  C   UNL     1      -5.220   1.255   7.998  0.00  0.00    +0.195 A 
ATOM     41  O   UNL     1      -6.305   1.280   7.207  0.00  0.00    -0.470 OA
ENDBRANCH  36  37
ENDBRANCH  27  36
ENDBRANCH   1  27
TORSDOF 9
