REMARK  Name = ZINC50580649
REMARK  4 active torsions:
REMARK  status: ('A' for Active; 'I' for Inactive)
REMARK    1  A    between atoms: C_1  and  C_2
REMARK    2  A    between atoms: C_7  and  C_8
REMARK    3  A    between atoms: C_8  and  C_10
REMARK    4  A    between atoms: C_8  and  N_12
REMARK                            x       y       z     vdW  Elec       q    Type
REMARK                         _______ _______ _______ _____ _____    ______ ____
ROOT
ATOM      1  C   UNL     1      -2.199  -0.681   0.810  0.00  0.00    +0.044 C 
ATOM      2  C   UNL     1      -0.804  -1.123   0.452  0.00  0.00    -0.042 A 
ATOM      3  C   UNL     1      -0.588  -1.872  -0.689  0.00  0.00    +0.042 A 
ATOM      4  C   UNL     1       0.694  -2.278  -1.018  0.00  0.00    +0.124 A 
ATOM      5  C   UNL     1       1.759  -1.933  -0.203  0.00  0.00    +0.039 A 
ATOM      6  C   UNL     1       1.541  -1.184   0.938  0.00  0.00    +0.009 A 
ATOM      7  C   UNL     1       0.261  -0.775   1.263  0.00  0.00    -0.013 A 
ATOM      8  F   UNL     1       0.906  -3.010  -2.134  0.00  0.00    -0.205 F 
ENDROOT
BRANCH   7   9
ATOM      9  C   UNL     1       0.025   0.046   2.504  0.00  0.00    +0.191 C 
BRANCH   9  10
ATOM     10  N   UNL     1      -0.539  -0.809   3.557  0.00  0.00    -0.284 NA
ATOM     11  C   UNL     1       0.453  -1.817   4.012  0.00  0.00    +0.086 C 
ATOM     12  C   UNL     1      -0.082  -2.237   5.404  0.00  0.00    +0.017 C 
ATOM     13  C   UNL     1      -0.625  -0.910   5.981  0.00  0.00    +0.017 C 
ATOM     14  C   UNL     1      -0.886  -0.015   4.755  0.00  0.00    +0.086 C 
ENDBRANCH   9  10
BRANCH   9  15
ATOM     15  C   UNL     1       1.301   0.616   2.966  0.00  0.00    +0.086 C 
ATOM     16  N   UNL     1       2.286   1.055   3.322  0.00  0.00    -0.195 NA
ENDBRANCH   9  15
ENDBRANCH   7   9
TORSDOF 3
