REMARK  Name = ZINC19742944
REMARK  4 active torsions:
REMARK  status: ('A' for Active; 'I' for Inactive)
REMARK    1  A    between atoms: C_12  and  N_17
REMARK    2  A    between atoms: N_17  and  C_18
REMARK    3  A    between atoms: C_18  and  C_19
REMARK    4  A    between atoms: C_24  and  C_25
REMARK                            x       y       z     vdW  Elec       q    Type
REMARK                         _______ _______ _______ _____ _____    ______ ____
ROOT
ATOM      1  N   UNL     1      -4.509   1.163  -0.562  0.00  0.00    +0.386 N 
ATOM      2  H   UNL     1      -5.452   1.430  -0.062  0.00  0.00    -0.085 HD
ATOM      3  H   UNL     1      -3.724   1.011   0.193  0.00  0.00    -0.085 HD
ENDROOT
BRANCH   1  15
ATOM      4  C   UNL     1     -11.514  -2.092  -2.878  0.00  0.00    +0.005 A 
ATOM      5  C   UNL     1     -11.266  -3.456  -2.944  0.00  0.00    +0.020 A 
ATOM      6  C   UNL     1      -9.967  -3.914  -2.836  0.00  0.00    +0.113 A 
ATOM      7  N   UNL     1      -8.965  -3.071  -2.676  0.00  0.00    -0.236 NA
ATOM      8  C   UNL     1      -9.161  -1.765  -2.602  0.00  0.00    +0.154 A 
ATOM      9  C   UNL     1     -10.441  -1.234  -2.704  0.00  0.00    +0.048 A 
ATOM     10  N   UNL     1      -8.069  -0.910  -2.426  0.00  0.00    -0.218 N 
ATOM     11  C   UNL     1      -6.886  -1.233  -1.856  0.00  0.00    +0.048 A 
ATOM     12  C   UNL     1      -6.101  -0.126  -1.878  0.00  0.00    -0.020 A 
ATOM     13  C   UNL     1      -6.823   0.903  -2.480  0.00  0.00    +0.137 A 
ATOM     14  N   UNL     1      -8.003   0.438  -2.810  0.00  0.00    -0.173 NA
ATOM     15  C   UNL     1      -4.697  -0.076  -1.329  0.00  0.00    -0.037 C 
ATOM     16  C   UNL     1      -4.492  -1.288  -0.412  0.00  0.00    -0.011 C 
ATOM     17  C   UNL     1      -4.935  -2.560  -1.140  0.00  0.00    +0.005 C 
ATOM     18  C   UNL     1      -6.461  -2.562  -1.285  0.00  0.00    +0.056 C 
ENDBRANCH   1  15
BRANCH   1  19
ATOM     19  C   UNL     1      -4.111   2.271  -1.440  0.00  0.00    -0.042 C 
BRANCH  19  20
ATOM     20  C   UNL     1      -3.818   3.492  -0.606  0.00  0.00    -0.019 A 
ATOM     21  C   UNL     1      -3.803   3.549   0.743  0.00  0.00    +0.107 A 
ATOM     22  N   UNL     1      -3.505   4.815   1.104  0.00  0.00    -0.284 N 
ATOM     23  H   UNL     1      -3.444   5.084   2.169  0.00  0.00    +0.188 HD
ATOM     24  N   UNL     1      -3.324   5.570  -0.062  0.00  0.00    -0.174 NA
ATOM     25  C   UNL     1      -3.508   4.776  -1.096  0.00  0.00    +0.094 A 
BRANCH  25  26
ATOM     26  C   UNL     1      -3.413   5.166  -2.525  0.00  0.00    +0.002 A 
ATOM     27  C   UNL     1      -2.795   4.318  -3.441  0.00  0.00    +0.011 A 
ATOM     28  C   UNL     1      -2.705   4.687  -4.768  0.00  0.00    +0.020 A 
ATOM     29  C   UNL     1      -3.237   5.893  -5.191  0.00  0.00    +0.041 A 
ATOM     30  C   UNL     1      -3.857   6.737  -4.285  0.00  0.00    +0.020 A 
ATOM     31  C   UNL     1      -3.947   6.379  -2.955  0.00  0.00    +0.011 A 
ATOM     32 CL   UNL     1      -3.127   6.349  -6.862  0.00  0.00    -0.084 Cl
ENDBRANCH  25  26
ENDBRANCH  19  20
ENDBRANCH   1  19
TORSDOF 4
