REMARK  Name = ZINC39545480
REMARK  9 active torsions:
REMARK  status: ('A' for Active; 'I' for Inactive)
REMARK    1  A    between atoms: C_1  and  C_2
REMARK    2  A    between atoms: C_2  and  C_3
REMARK    3  A    between atoms: C_2  and  S_4
REMARK    4  A    between atoms: S_4  and  C_7
REMARK    5  A    between atoms: C_9  and  C_21
REMARK    6  A    between atoms: N_23  and  C_24
REMARK    7  A    between atoms: N_23  and  S_31
REMARK    8  A    between atoms: C_29  and  O_30
REMARK    9  A    between atoms: S_31  and  C_32
REMARK                            x       y       z     vdW  Elec       q    Type
REMARK                         _______ _______ _______ _____ _____    ______ ____
ROOT
ATOM      1  C   UNL     1      -2.297  -0.046  -1.383  0.00  0.00    +0.102 C 
ATOM      2  C   UNL     1      -2.291   1.419  -1.757  0.00  0.00    +0.088 C 
ATOM      3  C   UNL     1      -2.885   1.446  -3.179  0.00  0.00    +0.151 C 
ATOM      4  N   UNL     1      -3.196   0.035  -3.463  0.00  0.00    -0.369 NA
ATOM      5  C   UNL     1      -2.793  -0.746  -2.371  0.00  0.00    +0.096 C 
ATOM      6  N   UNL     1      -2.922  -2.146  -2.410  0.00  0.00    -0.302 N 
ATOM      7  C   UNL     1      -2.695  -2.726  -3.670  0.00  0.00    +0.037 A 
ATOM      8  C   UNL     1      -2.686  -4.107  -3.802  0.00  0.00    +0.023 A 
ATOM      9  C   UNL     1      -2.471  -4.676  -5.043  0.00  0.00    +0.002 A 
ATOM     10  C   UNL     1      -2.267  -3.867  -6.145  0.00  0.00    +0.000 A 
ATOM     11  C   UNL     1      -2.272  -2.492  -6.012  0.00  0.00    +0.007 A 
ATOM     12  C   UNL     1      -2.482  -1.911  -4.772  0.00  0.00    -0.010 A 
ATOM     13  C   UNL     1      -2.467  -0.415  -4.654  0.00  0.00    +0.124 C 
ATOM     14  H   UNL     1      -3.150  -2.671  -1.627  0.00  0.00    +0.153 HD
ATOM     15  H   UNL     1      -4.189  -0.071  -3.610  0.00  0.00    +0.129 HD
ENDROOT
BRANCH   1  16
ATOM     16  S   UNL     1      -1.719  -0.709   0.144  0.00  0.00    -0.002 S 
ATOM     17  O   UNL     1      -0.423  -0.151   0.314  0.00  0.00    -0.169 OA
ATOM     18  O   UNL     1      -1.892  -2.114   0.018  0.00  0.00    -0.169 OA
BRANCH  16  20
ATOM     19  C   UNL     1      -4.269  -0.559   1.123  0.00  0.00    +0.032 C 
ATOM     20  C   UNL     1      -2.853  -0.049   1.397  0.00  0.00    +0.130 C 
ATOM     21  C   UNL     1      -2.404  -0.512   2.785  0.00  0.00    +0.032 C 
ENDBRANCH  16  20
ENDBRANCH   1  16
BRANCH   3  22
ATOM     22  C   UNL     1      -1.875   1.975  -4.163  0.00  0.00    +0.249 C 
ATOM     23  O   UNL     1      -0.689   1.884  -3.924  0.00  0.00    -0.272 OA
ATOM     24  N   UNL     1      -2.289   2.550  -5.310  0.00  0.00    -0.209 N 
BRANCH  24  25
ATOM     25  C   UNL     1      -1.351   2.950  -6.271  0.00  0.00    +0.089 A 
ATOM     26  C   UNL     1      -0.882   2.038  -7.206  0.00  0.00    +0.028 A 
ATOM     27  C   UNL     1       0.042   2.434  -8.154  0.00  0.00    +0.002 A 
ATOM     28  C   UNL     1       0.502   3.738  -8.173  0.00  0.00    +0.004 A 
ATOM     29  C   UNL     1       0.039   4.652  -7.245  0.00  0.00    +0.047 A 
ATOM     30  C   UNL     1      -0.892   4.264  -6.295  0.00  0.00    +0.139 A 
BRANCH  30  31
ATOM     31  O   UNL     1      -1.352   5.164  -5.385  0.00  0.00    -0.505 OA
ATOM     32  H   UNL     1      -0.829   5.205  -4.573  0.00  0.00    +0.292 HD
ENDBRANCH  30  31
ENDBRANCH  24  25
BRANCH  24  33
ATOM     33  S   UNL     1      -3.905   2.785  -5.582  0.00  0.00    -0.055 S 
ATOM     34  C   UNL     1      -4.204   4.482  -5.017  0.00  0.00    +0.107 C 
ENDBRANCH  24  33
ENDBRANCH   3  22
TORSDOF 6
