REMARK  Name = ZINC00198417
REMARK  6 active torsions:
REMARK  status: ('A' for Active; 'I' for Inactive)
REMARK    1  A    between atoms: C_1  and  C_2
REMARK    2  A    between atoms: C_4  and  C_22
REMARK    3  A    between atoms: N_5  and  N_11
REMARK    4  A    between atoms: C_8  and  C_9
REMARK    5  A    between atoms: C_12  and  C_13
REMARK    6  A    between atoms: C_16  and  N_19
REMARK                            x       y       z     vdW  Elec       q    Type
REMARK                         _______ _______ _______ _____ _____    ______ ____
ROOT
ATOM      1  C   UNL     1      -8.731  -0.820  -0.136  0.00  0.00    +0.045 C 
ATOM      2  C   UNL     1      -7.368  -0.178  -0.092  0.00  0.00    -0.026 A 
ATOM      3  C   UNL     1      -7.239   1.211  -0.114  0.00  0.00    +0.028 A 
ATOM      4  C   UNL     1      -6.008   1.781  -0.068  0.00  0.00    +0.044 A 
ATOM      5  N   UNL     1      -4.884   1.023  -0.012  0.00  0.00    -0.200 N 
ATOM      6  C   UNL     1      -4.954  -0.322   0.011  0.00  0.00    +0.289 A 
ATOM      7  O   UNL     1      -3.933  -0.986   0.065  0.00  0.00    -0.264 OA
ATOM      8  C   UNL     1      -6.218  -0.963  -0.030  0.00  0.00    +0.121 A 
ATOM      9  C   UNL     1      -5.887   3.283  -0.085  0.00  0.00    +0.066 C 
ENDROOT
BRANCH   8  10
ATOM     10  C   UNL     1      -6.311  -2.391  -0.006  0.00  0.00    +0.105 C 
ATOM     11  N   UNL     1      -6.386  -3.525   0.013  0.00  0.00    -0.191 NA
ENDBRANCH   8  10
BRANCH   5  12
ATOM     12  N   UNL     1      -3.631   1.649   0.028  0.00  0.00    -0.171 NA
ATOM     13  C   UNL     1      -2.806   1.515  -0.966  0.00  0.00    +0.141 C 
BRANCH  13  14
ATOM     14  C   UNL     1      -1.446   2.078  -0.876  0.00  0.00    -0.005 A 
ATOM     15  C   UNL     1      -0.556   1.935  -1.943  0.00  0.00    +0.012 A 
ATOM     16  C   UNL     1       0.713   2.469  -1.854  0.00  0.00    +0.033 A 
ATOM     17  C   UNL     1       1.106   3.140  -0.710  0.00  0.00    +0.126 A 
ATOM     18  C   UNL     1       0.231   3.281   0.353  0.00  0.00    +0.033 A 
ATOM     19  C   UNL     1      -1.041   2.752   0.279  0.00  0.00    +0.012 A 
BRANCH  17  20
ATOM     20  N   UNL     1       2.469   3.712  -0.622  0.00  0.00    +0.056 N 
ATOM     21  O   UNL     1       3.241   3.590  -1.556  0.00  0.00    -0.126 OA
ATOM     22  O   UNL     1       2.818   4.303   0.384  0.00  0.00    -0.126 OA
ENDBRANCH  17  20
ENDBRANCH  13  14
ENDBRANCH   5  12
TORSDOF 4
