REMARK  Name = ZINC15559002
REMARK  9 active torsions:
REMARK  status: ('A' for Active; 'I' for Inactive)
REMARK    1  A    between atoms: C_1  and  C_2
REMARK    2  A    between atoms: C_5  and  C_33
REMARK    3  A    between atoms: N_8  and  S_10
REMARK    4  A    between atoms: S_10  and  C_13
REMARK    5  A    between atoms: C_17  and  C_19
REMARK    6  A    between atoms: N_21  and  C_22
REMARK    7  A    between atoms: C_22  and  C_23
REMARK    8  A    between atoms: C_25  and  N_30
REMARK    9  A    between atoms: C_28  and  O_29
REMARK                            x       y       z     vdW  Elec       q    Type
REMARK                         _______ _______ _______ _____ _____    ______ ____
ROOT
ATOM      1  C   UNL     1       2.547  -3.268  -0.217  0.00  0.00    +0.106 A 
ATOM      2  C   UNL     1       2.078  -4.392  -0.874  0.00  0.00    +0.028 A 
ATOM      3  C   UNL     1       2.503  -4.677  -2.160  0.00  0.00    +0.003 A 
ATOM      4  C   UNL     1       3.399  -3.841  -2.795  0.00  0.00    +0.013 A 
ATOM      5  C   UNL     1       3.876  -2.706  -2.138  0.00  0.00    +0.039 A 
ATOM      6  C   UNL     1       3.438  -2.421  -0.843  0.00  0.00    +0.041 A 
ENDROOT
BRANCH   5   7
ATOM      7  C   UNL     1       4.836  -1.807  -2.812  0.00  0.00    +0.244 C 
ATOM      8  O   UNL     1       5.250  -0.819  -2.237  0.00  0.00    -0.270 OA
ATOM      9  N   UNL     1       5.253  -2.082  -4.063  0.00  0.00    -0.307 N 
ATOM     10  H   UNL     1       4.923  -2.870  -4.522  0.00  0.00    +0.149 HD
BRANCH   9  11
ATOM     11  C   UNL     1       6.204  -1.191  -4.731  0.00  0.00    +0.143 C 
BRANCH  11  12
ATOM     12  C   UNL     1       6.505  -1.719  -6.110  0.00  0.00    +0.013 A 
ATOM     13  C   UNL     1       5.961  -1.103  -7.221  0.00  0.00    +0.041 A 
ATOM     14  C   UNL     1       6.236  -1.588  -8.486  0.00  0.00    +0.127 A 
ATOM     15  C   UNL     1       7.057  -2.690  -8.643  0.00  0.00    +0.036 A 
ATOM     16  C   UNL     1       7.603  -3.309  -7.536  0.00  0.00    +0.048 A 
ATOM     17  C   UNL     1       7.333  -2.821  -6.266  0.00  0.00    +0.122 A 
BRANCH  14  18
ATOM     18  N   UNL     1       5.651  -0.927  -9.674  0.00  0.00    +0.056 N 
ATOM     19  O   UNL     1       4.933   0.036  -9.537  0.00  0.00    -0.126 OA
ATOM     20  O   UNL     1       5.892  -1.349 -10.781  0.00  0.00    -0.126 OA
ENDBRANCH  14  18
BRANCH  17  21
ATOM     21  O   UNL     1       7.874  -3.426  -5.175  0.00  0.00    -0.506 OA
ATOM     22  H   UNL     1       7.329  -4.135  -4.808  0.00  0.00    +0.292 HD
ENDBRANCH  17  21
ENDBRANCH  11  12
ENDBRANCH   9  11
ENDBRANCH   5   7
BRANCH   1  23
ATOM     23  S   UNL     1       1.999  -2.914   1.419  0.00  0.00    +0.061 S 
ATOM     24  O   UNL     1       2.998  -2.098   2.015  0.00  0.00    -0.153 OA
ATOM     25  O   UNL     1       1.587  -4.150   1.986  0.00  0.00    -0.153 OA
BRANCH  23  31
ATOM     26  C   UNL     1      -0.019   1.526   0.010  0.00  0.00    +0.009 C 
ATOM     27  C   UNL     1       0.002  -0.004   0.002  0.00  0.00    +0.002 C 
ATOM     28  C   UNL     1      -1.433  -0.534   0.015  0.00  0.00    +0.009 C 
ATOM     29  C   UNL     1      -1.414  -2.064  -0.027  0.00  0.00    +0.002 C 
ATOM     30  C   UNL     1      -0.692  -2.596   1.215  0.00  0.00    +0.112 C 
ATOM     31  N   UNL     1       0.639  -1.977   1.288  0.00  0.00    -0.176 NA
ATOM     32  C   UNL     1       0.742  -0.512   1.244  0.00  0.00    +0.112 C 
ATOM     33  C   UNL     1      -0.680  -2.532  -1.285  0.00  0.00    +0.009 C 
ENDBRANCH  23  31
ENDBRANCH   1  23
TORSDOF 7
