REMARK  Name = ZINC12887067
REMARK  5 active torsions:
REMARK  status: ('A' for Active; 'I' for Inactive)
REMARK    1  A    between atoms: C_1  and  C_2
REMARK    2  A    between atoms: C_2  and  C_4
REMARK    3  A    between atoms: C_2  and  N_13
REMARK    4  A    between atoms: N_6  and  C_7
REMARK    5  A    between atoms: C_14  and  C_16
REMARK                            x       y       z     vdW  Elec       q    Type
REMARK                         _______ _______ _______ _____ _____    ______ ____
ROOT
ATOM      1  C   UNL     1       0.029   4.221   8.403  0.00  0.00    +0.167 C 
ATOM      2  C   UNL     1       0.947   2.991   8.364  0.00  0.00    +0.069 C 
ATOM      3  C   UNL     1       1.564   2.760   9.720  0.00  0.00    -0.015 A 
ATOM      4  C   UNL     1       2.696   1.906  10.035  0.00  0.00    +0.003 A 
ATOM      5  C   UNL     1       3.524   1.106   9.242  0.00  0.00    +0.010 A 
ATOM      6  C   UNL     1       4.521   0.416   9.886  0.00  0.00    +0.001 A 
ATOM      7  C   UNL     1       4.707   0.500  11.256  0.00  0.00    +0.002 A 
ATOM      8  C   UNL     1       3.903   1.284  12.065  0.00  0.00    +0.026 A 
ATOM      9  C   UNL     1       2.882   1.997  11.438  0.00  0.00    +0.047 A 
ATOM     10  N   UNL     1       1.929   2.846  11.919  0.00  0.00    -0.356 N 
ATOM     11  H   UNL     1       1.819   3.090  12.852  0.00  0.00    +0.166 HD
ATOM     12  C   UNL     1       1.153   3.302  10.889  0.00  0.00    +0.046 A 
ATOM     13  C   UNL     1      -0.002   4.269  10.984  0.00  0.00    +0.155 C 
ATOM     14  N   UNL     1      -0.697   4.202   9.677  0.00  0.00    -0.273 N 
ATOM     15  C   UNL     1      -2.013   4.091   9.901  0.00  0.00    +0.248 C 
ATOM     16  O   UNL     1      -2.881   4.231   9.062  0.00  0.00    -0.270 OA
ATOM     17  C   UNL     1      -2.246   3.775  11.314  0.00  0.00    +0.042 A 
ATOM     18  C   UNL     1      -1.014   3.854  11.996  0.00  0.00    -0.009 A 
ATOM     19  C   UNL     1      -0.919   3.589  13.344  0.00  0.00    +0.006 A 
ATOM     20  C   UNL     1      -2.096   3.254  14.008  0.00  0.00    +0.000 A 
ATOM     21  C   UNL     1      -3.309   3.191  13.353  0.00  0.00    +0.001 A 
ATOM     22  C   UNL     1      -3.421   3.450  11.995  0.00  0.00    +0.013 A 
ENDROOT
BRANCH   1  24
ATOM     23  N   UNL     1      -0.847   5.038   6.239  0.00  0.00    -0.303 N 
ATOM     24  C   UNL     1      -0.950   4.163   7.258  0.00  0.00    +0.235 C 
ATOM     25  O   UNL     1      -1.830   3.329   7.254  0.00  0.00    -0.274 OA
ATOM     26  H   UNL     1      -0.143   5.706   6.242  0.00  0.00    +0.149 HD
BRANCH  23  28
ATOM     27  C   UNL     1      -3.054   5.777   5.488  0.00  0.00    +0.038 C 
ATOM     28  C   UNL     1      -1.798   4.982   5.126  0.00  0.00    +0.156 C 
BRANCH  28  29
ATOM     29  C   UNL     1      -1.166   5.577   3.894  0.00  0.00    +0.233 C 
ATOM     30  O   UNL     1      -0.032   6.005   3.941  0.00  0.00    -0.274 OA
ATOM     31  N   UNL     1      -1.860   5.632   2.740  0.00  0.00    -0.311 N 
ATOM     32  H   UNL     1      -2.767   5.290   2.703  0.00  0.00    +0.149 HD
BRANCH  31  33
ATOM     33  C   UNL     1      -1.245   6.210   1.542  0.00  0.00    +0.073 C 
ATOM     34  C   UNL     1      -0.421   5.139   0.825  0.00  0.00    +0.022 C 
ATOM     35  C   UNL     1       0.221   5.742  -0.426  0.00  0.00    +0.002 C 
ATOM     36  C   UNL     1      -0.874   6.257  -1.363  0.00  0.00    +0.000 C 
ATOM     37  C   UNL     1      -1.697   7.329  -0.645  0.00  0.00    +0.002 C 
ATOM     38  C   UNL     1      -2.339   6.725   0.605  0.00  0.00    +0.022 C 
ENDBRANCH  31  33
ENDBRANCH  28  29
ENDBRANCH  23  28
ENDBRANCH   1  24
TORSDOF 4
