REMARK  Name = ZINC39856051
REMARK  8 active torsions:
REMARK  status: ('A' for Active; 'I' for Inactive)
REMARK    1  A    between atoms: C_1  and  C_2
REMARK    2  A    between atoms: C_2  and  N_3
REMARK    3  A    between atoms: N_3  and  C_4
REMARK    4  A    between atoms: C_14  and  C_16
REMARK    5  A    between atoms: C_17  and  C_32
REMARK    6  A    between atoms: C_22  and  C_30
REMARK    7  A    between atoms: C_22  and  C_31
REMARK    8  A    between atoms: N_25  and  N_26
REMARK                            x       y       z     vdW  Elec       q    Type
REMARK                         _______ _______ _______ _____ _____    ______ ____
ROOT
ATOM      1  C   UNL     1      -1.426  -0.276  -2.402  0.00  0.00    +0.193 A 
ATOM      2  C   UNL     1      -2.254  -0.460  -3.474  0.00  0.00    +0.009 A 
ATOM      3  C   UNL     1      -3.518  -0.009  -3.074  0.00  0.00    +0.043 A 
ATOM      4  C   UNL     1      -3.407   0.432  -1.777  0.00  0.00    +0.116 A 
ATOM      5  O   UNL     1      -2.146   0.257  -1.389  0.00  0.00    -0.454 OA
ATOM      6  C   UNL     1      -4.569   0.999  -1.002  0.00  0.00    +0.081 C 
ATOM      7  C   UNL     1      -5.651   1.470  -1.978  0.00  0.00    -0.023 C 
ATOM      8  C   UNL     1      -6.023   0.349  -2.954  0.00  0.00    +0.064 C 
ATOM      9  C   UNL     1      -4.803   0.036  -3.808  0.00  0.00    +0.073 C 
ATOM     10  N   UNL     1      -4.883  -0.175  -5.085  0.00  0.00    -0.175 NA
ATOM     11  C   UNL     1      -6.895   1.886  -1.190  0.00  0.00    +0.011 C 
ATOM     12  C   UNL     1      -5.129   2.673  -2.766  0.00  0.00    +0.011 C 
ATOM     13  C   UNL     1      -1.881  -1.032  -4.818  0.00  0.00    +0.048 C 
ENDROOT
BRANCH  10  14
ATOM     14  N   UNL     1      -6.127  -0.119  -5.727  0.00  0.00    -0.248 N 
ATOM     15  C   UNL     1      -6.212  -0.342  -7.075  0.00  0.00    +0.187 C 
ATOM     16  N   UNL     1      -7.395  -0.289  -7.687  0.00  0.00    -0.370 N 
ATOM     17  N   UNL     1      -5.111  -0.613  -7.777  0.00  0.00    -0.370 N 
ATOM     18  H   UNL     1      -6.928   0.077  -5.217  0.00  0.00    +0.192 HD
ATOM     19  H   UNL     1      -8.196  -0.093  -7.176  0.00  0.00    +0.159 HD
ATOM     20  H   UNL     1      -4.250  -0.651  -7.332  0.00  0.00    +0.159 HD
ATOM     21  H   UNL     1      -5.171  -0.771  -8.732  0.00  0.00    +0.159 HD
ATOM     22  H   UNL     1      -7.455  -0.448  -8.642  0.00  0.00    +0.159 HD
ENDBRANCH  10  14
BRANCH   1  24
ATOM     23  N   UNL     1       0.687  -0.479  -1.203  0.00  0.00    -0.265 N 
ATOM     24  C   UNL     1       0.003  -0.607  -2.357  0.00  0.00    +0.286 C 
ATOM     25  O   UNL     1       0.569  -0.997  -3.360  0.00  0.00    -0.266 OA
BRANCH  23  26
ATOM     26  C   UNL     1       0.017  -0.138  -0.028  0.00  0.00    +0.044 A 
ATOM     27  C   UNL     1      -0.145   1.185   0.322  0.00  0.00    +0.024 A 
ATOM     28  C   UNL     1      -0.812   1.536   1.492  0.00  0.00    +0.002 A 
ATOM     29  C   UNL     1      -1.322   0.585   2.322  0.00  0.00    +0.008 A 
ATOM     30  C   UNL     1      -1.180  -0.776   2.002  0.00  0.00    -0.016 A 
ATOM     31  C   UNL     1      -0.507  -1.145   0.811  0.00  0.00    +0.004 A 
ATOM     32  C   UNL     1      -0.370  -2.505   0.490  0.00  0.00    +0.010 A 
ATOM     33  C   UNL     1      -0.888  -3.450   1.322  0.00  0.00    +0.001 A 
ATOM     34  C   UNL     1      -1.555  -3.087   2.491  0.00  0.00    +0.001 A 
ATOM     35  C   UNL     1      -1.696  -1.779   2.840  0.00  0.00    +0.008 A 
ENDBRANCH  23  26
BRANCH  23  37
ATOM     36  C   UNL     1       2.427  -2.148  -0.792  0.00  0.00    +0.025 C 
ATOM     37  C   UNL     1       2.136  -0.698  -1.182  0.00  0.00    +0.111 C 
ENDBRANCH  23  37
ENDBRANCH   1  24
TORSDOF 4
