REMARK  Name = ZINC17306038
REMARK  16 active torsions:
REMARK  status: ('A' for Active; 'I' for Inactive)
REMARK    1  A    between atoms: C_1  and  C_2
REMARK    2  A    between atoms: C_2  and  C_3
REMARK    3  A    between atoms: C_3  and  C_4
REMARK    4  A    between atoms: C_4  and  N_5
REMARK    5  A    between atoms: N_5  and  C_6
REMARK    6  A    between atoms: C_7  and  N_18
REMARK    7  A    between atoms: N_8  and  C_15
REMARK    8  A    between atoms: C_15  and  C_16
REMARK    9  A    between atoms: C_16  and  C_17
REMARK   10  A    between atoms: C_19  and  C_21
REMARK   11  A    between atoms: C_21  and  N_69
REMARK   12  A    between atoms: C_22  and  N_69
REMARK   13  A    between atoms: C_23  and  C_25
REMARK   14  A    between atoms: C_23  and  C_26
REMARK   15  A    between atoms: C_23  and  N_69
REMARK   16  A    between atoms: C_29  and  N_32
REMARK                            x       y       z     vdW  Elec       q    Type
REMARK                         _______ _______ _______ _____ _____    ______ ____
ROOT
ATOM      1  N   UNL     1       0.048  -2.816   2.371  0.00  0.00    -0.266 N 
ATOM      2  C   UNL     1      -0.061  -2.179   3.556  0.00  0.00    +0.203 C 
ATOM      3  O   UNL     1      -0.075  -0.967   3.594  0.00  0.00    -0.277 OA
ENDROOT
BRANCH   1   4
ATOM      4  C   UNL     1       0.038  -2.077   1.170  0.00  0.00    +0.140 A 
ATOM      5  C   UNL     1      -1.006  -2.204   0.276  0.00  0.00    +0.127 A 
ATOM      6  N   UNL     1      -0.987  -1.470  -0.887  0.00  0.00    -0.280 N 
ATOM      7  C   UNL     1       0.039  -0.641  -1.153  0.00  0.00    +0.331 A 
ATOM      8  O   UNL     1       0.039  -0.004  -2.188  0.00  0.00    -0.246 OA
ATOM      9  N   UNL     1       1.062  -0.500  -0.291  0.00  0.00    -0.273 N 
ATOM     10  H   UNL     1       1.808   0.129  -0.508  0.00  0.00    +0.173 HD
ATOM     11  C   UNL     1       1.092  -1.196   0.862  0.00  0.00    +0.277 A 
ATOM     12  O   UNL     1       2.026  -1.064   1.635  0.00  0.00    -0.266 OA
BRANCH   5  13
ATOM     13  N   UNL     1      -2.051  -3.054   0.544  0.00  0.00    -0.343 N 
ATOM     14  H   UNL     1      -2.817  -3.085  -0.051  0.00  0.00    +0.144 HD
ATOM     15  H   UNL     1      -2.024  -3.624   1.329  0.00  0.00    +0.144 HD
ENDBRANCH   5  13
BRANCH   6  16
ATOM     16  C   UNL     1      -2.088  -1.595  -1.845  0.00  0.00    +0.128 C 
BRANCH  16  17
ATOM     17  C   UNL     1      -3.173  -0.569  -1.514  0.00  0.00    +0.018 C 
ATOM     18  C   UNL     1      -4.322  -0.700  -2.515  0.00  0.00    +0.005 C 
ENDBRANCH  16  17
ENDBRANCH   6  16
ENDBRANCH   1   4
BRANCH   1  19
ATOM     19  C   UNL     1       0.175  -4.275   2.333  0.00  0.00    +0.114 C 
BRANCH  19  20
ATOM     20  C   UNL     1       1.645  -4.663   2.503  0.00  0.00    +0.019 C 
BRANCH  20  22
ATOM     21  C   UNL     1       3.249  -6.574   2.634  0.00  0.00    +0.004 C 
ATOM     22  C   UNL     1       1.779  -6.186   2.463  0.00  0.00    -0.002 C 
ENDBRANCH  20  22
ENDBRANCH  19  20
ENDBRANCH   1  19
BRANCH   2  23
ATOM     23  C   UNL     1      -0.165  -2.974   4.832  0.00  0.00    +0.020 C 
BRANCH  23  25
ATOM     24  C   UNL     1      -1.532  -1.303   5.928  0.00  0.00    -0.095 C 
ATOM     25  N   UNL     1      -0.250  -2.037   5.972  0.00  0.00    +0.388 N 
ATOM     26  H   UNL     1       0.522  -1.364   5.909  0.00  0.00    -0.081 HD
BRANCH  25  27
ATOM     27  C   UNL     1      -0.137  -2.779   7.245  0.00  0.00    -0.041 C 
ATOM     28  C   UNL     1       1.228  -3.470   7.297  0.00  0.00    -0.008 C 
BRANCH  27  29
ATOM     29  C   UNL     1      -0.252  -1.807   8.391  0.00  0.00    -0.061 A 
ATOM     30  C   UNL     1       0.348  -0.564   8.304  0.00  0.00    +0.004 A 
ATOM     31  C   UNL     1       0.240   0.331   9.350  0.00  0.00    +0.028 A 
ATOM     32  C   UNL     1      -0.462  -0.022  10.494  0.00  0.00    +0.067 A 
ATOM     33  C   UNL     1      -1.059  -1.272  10.581  0.00  0.00    +0.028 A 
ATOM     34  C   UNL     1      -0.952  -2.161   9.529  0.00  0.00    +0.004 A 
BRANCH  32  35
ATOM     35  N   UNL     1      -0.569   0.883  11.560  0.00  0.00    -0.220 N 
ATOM     36  C   UNL     1      -0.043   2.122  11.624  0.00  0.00    +0.225 A 
ATOM     37  N   UNL     1      -0.369   2.641  12.780  0.00  0.00    -0.222 NA
ATOM     38  C   UNL     1      -1.091   1.767  13.480  0.00  0.00    +0.245 A 
ATOM     39  N   UNL     1      -1.240   0.676  12.776  0.00  0.00    -0.154 NA
ENDBRANCH  32  35
ENDBRANCH  27  29
ENDBRANCH  25  27
ENDBRANCH  23  25
ENDBRANCH   2  23
TORSDOF 12
