REMARK  Name = ZINC06443669
REMARK  7 active torsions:
REMARK  status: ('A' for Active; 'I' for Inactive)
REMARK    1  A    between atoms: C_1  and  C_2
REMARK    2  A    between atoms: C_12  and  C_14
REMARK    3  A    between atoms: C_14  and  C_16
REMARK    4  A    between atoms: C_14  and  N_73
REMARK    5  A    between atoms: N_20  and  C_21
REMARK    6  A    between atoms: C_29  and  C_32
REMARK    7  A    between atoms: C_32  and  C_33
REMARK                            x       y       z     vdW  Elec       q    Type
REMARK                         _______ _______ _______ _____ _____    ______ ____
ROOT
ATOM      1  C   UNL     1       0.086  -2.865   4.922  0.00  0.00    +0.039 C 
ENDROOT
BRANCH   1  13
ATOM      2  C   UNL     1      -0.018   1.503   0.010  0.00  0.00    +0.046 C 
ATOM      3  C   UNL     1       0.002  -0.004   0.002  0.00  0.00    -0.026 A 
ATOM      4  C   UNL     1      -0.006  -0.690  -1.194  0.00  0.00    +0.005 A 
ATOM      5  C   UNL     1       0.020  -2.077  -1.215  0.00  0.00    +0.001 A 
ATOM      6  C   UNL     1       0.040  -2.790  -0.050  0.00  0.00    +0.010 A 
ATOM      7  C   UNL     1       0.042  -2.116   1.175  0.00  0.00    -0.001 A 
ATOM      8  C   UNL     1       0.023  -0.709   1.201  0.00  0.00    +0.052 A 
ATOM      9  N   UNL     1       0.025  -0.049   2.412  0.00  0.00    -0.322 N 
ATOM     10  H   UNL     1       0.013   0.921   2.428  0.00  0.00    +0.169 HD
ATOM     11  C   UNL     1       0.045  -0.730   3.571  0.00  0.00    +0.251 A 
ATOM     12  O   UNL     1       0.046  -0.114   4.622  0.00  0.00    -0.268 OA
ATOM     13  C   UNL     1       0.064  -2.141   3.600  0.00  0.00    +0.011 A 
ATOM     14  C   UNL     1       0.064  -2.849   2.443  0.00  0.00    +0.017 A 
ENDBRANCH   1  13
BRANCH   1  20
ATOM     15  C   UNL     1      -2.305  -2.496   4.990  0.00  0.00    -0.077 C 
ATOM     16  C   UNL     1      -3.437  -1.889   5.822  0.00  0.00    -0.015 C 
ATOM     17  C   UNL     1      -3.562  -2.656   7.141  0.00  0.00    -0.010 C 
ATOM     18  C   UNL     1      -2.224  -2.601   7.883  0.00  0.00    -0.015 C 
ATOM     19  C   UNL     1      -1.127  -3.187   6.992  0.00  0.00    -0.077 C 
ATOM     20  N   UNL     1      -1.041  -2.389   5.750  0.00  0.00    +0.389 N 
ATOM     21  H   UNL     1      -0.883  -1.405   5.996  0.00  0.00    -0.080 HD
BRANCH  17  22
ATOM     22  C   UNL     1      -4.652  -2.016   8.004  0.00  0.00    +0.038 C 
BRANCH  22  23
ATOM     23  C   UNL     1      -5.989  -2.180   7.327  0.00  0.00    -0.047 A 
ATOM     24  C   UNL     1      -6.444  -1.212   6.452  0.00  0.00    +0.003 A 
ATOM     25  C   UNL     1      -7.668  -1.365   5.829  0.00  0.00    +0.000 A 
ATOM     26  C   UNL     1      -8.441  -2.481   6.088  0.00  0.00    +0.000 A 
ATOM     27  C   UNL     1      -7.988  -3.447   6.967  0.00  0.00    +0.000 A 
ATOM     28  C   UNL     1      -6.762  -3.296   7.587  0.00  0.00    +0.003 A 
ENDBRANCH  22  23
ENDBRANCH  17  22
ENDBRANCH   1  20
BRANCH   1  29
ATOM     29  C   UNL     1       1.377  -2.561   5.639  0.00  0.00    +0.143 A 
ATOM     30  N   UNL     1       1.688  -1.445   6.250  0.00  0.00    -0.115 NA
ATOM     31  N   UNL     1       2.874  -1.575   6.738  0.00  0.00    -0.023 NA
ATOM     32  N   UNL     1       3.326  -2.747   6.453  0.00  0.00    -0.044 NA
ATOM     33  N   UNL     1       2.430  -3.387   5.781  0.00  0.00    -0.227 N 
BRANCH  33  34
ATOM     34  C   UNL     1       2.540  -4.754   5.266  0.00  0.00    +0.111 C 
ATOM     35  C   UNL     1       2.752  -5.722   6.432  0.00  0.00    +0.027 C 
ATOM     36  C   UNL     1       2.867  -7.150   5.894  0.00  0.00    +0.002 C 
ATOM     37  C   UNL     1       4.055  -7.240   4.934  0.00  0.00    +0.000 C 
ATOM     38  C   UNL     1       3.843  -6.271   3.769  0.00  0.00    +0.002 C 
ATOM     39  C   UNL     1       3.728  -4.843   4.306  0.00  0.00    +0.027 C 
ENDBRANCH  33  34
ENDBRANCH   1  29
TORSDOF 6
