REMARK  Name = ZINC63964312
REMARK  6 active torsions:
REMARK  status: ('A' for Active; 'I' for Inactive)
REMARK    1  A    between atoms: C_1  and  C_2
REMARK    2  A    between atoms: C_2  and  C_3
REMARK    3  A    between atoms: C_8  and  N_13
REMARK    4  A    between atoms: C_14  and  C_16
REMARK    5  A    between atoms: C_16  and  C_18
REMARK    6  A    between atoms: C_26  and  C_28
REMARK                            x       y       z     vdW  Elec       q    Type
REMARK                         _______ _______ _______ _____ _____    ______ ____
ROOT
ATOM      1  N   UNL     1      -3.423  -5.165  -3.075  0.00  0.00    -0.279 N 
ATOM      2  C   UNL     1      -3.950  -5.409  -4.291  0.00  0.00    +0.288 C 
ATOM      3  O   UNL     1      -4.098  -4.499  -5.082  0.00  0.00    -0.266 OA
ATOM      4  H   UNL     1      -3.255  -5.900  -2.463  0.00  0.00    +0.155 HD
ENDROOT
BRANCH   1   9
ATOM      5  C   UNL     1      -1.732   0.556  -3.051  0.00  0.00    +0.260 C 
ATOM      6  N   UNL     1      -1.850  -0.566  -3.992  0.00  0.00    -0.307 N 
ATOM      7  C   UNL     1      -2.340  -1.650  -3.251  0.00  0.00    +0.074 A 
ATOM      8  C   UNL     1      -2.639  -2.951  -3.631  0.00  0.00    +0.050 A 
ATOM      9  C   UNL     1      -3.121  -3.854  -2.693  0.00  0.00    +0.036 A 
ATOM     10  C   UNL     1      -3.301  -3.454  -1.375  0.00  0.00    +0.027 A 
ATOM     11  C   UNL     1      -3.003  -2.160  -0.997  0.00  0.00    +0.049 A 
ATOM     12  C   UNL     1      -2.521  -1.250  -1.931  0.00  0.00    +0.144 A 
ATOM     13  O   UNL     1      -2.167   0.057  -1.783  0.00  0.00    -0.469 OA
ATOM     14  H   UNL     1      -1.634  -0.557  -4.937  0.00  0.00    +0.150 HD
BRANCH   5  16
ATOM     15  C   UNL     1      -2.417   2.909  -2.564  0.00  0.00    +0.009 C 
ATOM     16  C   UNL     1      -2.627   1.714  -3.496  0.00  0.00    +0.062 C 
ENDBRANCH   5  16
ENDBRANCH   1   9
BRANCH   2  17
ATOM     17  C   UNL     1      -4.349  -6.793  -4.666  0.00  0.00    +0.246 C 
ATOM     18  O   UNL     1      -4.092  -7.722  -3.924  0.00  0.00    -0.282 OA
BRANCH  17  19
ATOM     19  C   UNL     1      -5.025  -7.027  -5.883  0.00  0.00    +0.035 C 
ATOM     20  C   UNL     1      -5.363  -8.255  -6.433  0.00  0.00    +0.007 A 
ATOM     21  C   UNL     1      -5.165  -9.586  -6.004  0.00  0.00    +0.010 A 
ATOM     22  C   UNL     1      -5.610 -10.619  -6.759  0.00  0.00    +0.001 A 
ATOM     23  C   UNL     1      -6.275 -10.429  -7.979  0.00  0.00    +0.002 A 
ATOM     24  C   UNL     1      -6.514  -9.196  -8.478  0.00  0.00    +0.026 A 
ATOM     25  C   UNL     1      -6.064  -8.017  -7.718  0.00  0.00    +0.043 A 
ATOM     26  N   UNL     1      -6.159  -6.740  -7.957  0.00  0.00    -0.377 N 
ATOM     27  C   UNL     1      -5.540  -5.992  -6.859  0.00  0.00    +0.111 C 
ATOM     28  C   UNL     1      -6.577  -5.097  -6.178  0.00  0.00    +0.035 C 
ATOM     29  H   UNL     1      -6.577  -6.346  -8.738  0.00  0.00    +0.160 HD
ENDBRANCH  17  19
ENDBRANCH   2  17
TORSDOF 4
