REMARK  Name = ZINC36570400
REMARK  15 active torsions:
REMARK  status: ('A' for Active; 'I' for Inactive)
REMARK    1  A    between atoms: C_1  and  C_2
REMARK    2  A    between atoms: C_2  and  C_3
REMARK    3  A    between atoms: C_3  and  C_4
REMARK    4  A    between atoms: C_4  and  N_5
REMARK    5  A    between atoms: C_6  and  C_8
REMARK    6  A    between atoms: C_8  and  C_10
REMARK    7  A    between atoms: C_8  and  N_19
REMARK    8  A    between atoms: C_11  and  O_18
REMARK    9  A    between atoms: C_13  and  O_17
REMARK   10  A    between atoms: C_15  and  O_16
REMARK   11  A    between atoms: N_19  and  C_20
REMARK   12  A    between atoms: C_20  and  C_21
REMARK   13  A    between atoms: C_21  and  C_22
REMARK   14  A    between atoms: C_23  and  C_25
REMARK   15  A    between atoms: C_26  and  C_27
REMARK                            x       y       z     vdW  Elec       q    Type
REMARK                         _______ _______ _______ _____ _____    ______ ____
ROOT
ATOM      1  C   UNL     1      -4.571  -4.430   0.031  0.00  0.00    +0.200 C 
ENDROOT
BRANCH   1   2
ATOM      2  C   UNL     1      -5.239  -3.833  -1.181  0.00  0.00    +0.065 A 
ATOM      3  C   UNL     1      -6.133  -2.783  -1.033  0.00  0.00    +0.129 A 
ATOM      4  C   UNL     1      -6.747  -2.233  -2.148  0.00  0.00    +0.091 A 
ATOM      5  C   UNL     1      -6.468  -2.733  -3.411  0.00  0.00    +0.124 A 
ATOM      6  C   UNL     1      -5.573  -3.783  -3.559  0.00  0.00    +0.091 A 
ATOM      7  C   UNL     1      -4.955  -4.330  -2.445  0.00  0.00    +0.129 A 
BRANCH   7   8
ATOM      8  O   UNL     1      -4.075  -5.355  -2.590  0.00  0.00    -0.506 OA
ATOM      9  H   UNL     1      -4.483  -6.231  -2.553  0.00  0.00    +0.292 HD
ENDBRANCH   7   8
BRANCH   5  10
ATOM     10  O   UNL     1      -7.071  -2.195  -4.504  0.00  0.00    -0.507 OA
ATOM     11  H   UNL     1      -6.582  -1.462  -4.902  0.00  0.00    +0.292 HD
ENDBRANCH   5  10
BRANCH   3  12
ATOM     12  O   UNL     1      -6.406  -2.293   0.204  0.00  0.00    -0.506 OA
ATOM     13  H   UNL     1      -5.777  -1.626   0.511  0.00  0.00    +0.292 HD
ENDBRANCH   3  12
ENDBRANCH   1   2
BRANCH   1  15
ATOM     14  N   UNL     1      -2.728  -2.828  -0.364  0.00  0.00    -0.313 N 
ATOM     15  C   UNL     1      -3.111  -4.057   0.035  0.00  0.00    +0.238 C 
ATOM     16  O   UNL     1      -2.280  -4.863   0.396  0.00  0.00    -0.273 OA
ATOM     17  H   UNL     1      -3.393  -2.183  -0.653  0.00  0.00    +0.149 HD
BRANCH  14  18
ATOM     18  C   UNL     1      -1.309  -2.465  -0.360  0.00  0.00    +0.104 C 
BRANCH  18  19
ATOM     19  C   UNL     1      -1.149  -1.025  -0.854  0.00  0.00    +0.018 C 
BRANCH  19  21
ATOM     20  C   UNL     1       0.493   0.793  -1.343  0.00  0.00    +0.004 C 
ATOM     21  C   UNL     1       0.333  -0.646  -0.850  0.00  0.00    -0.002 C 
ENDBRANCH  19  21
ENDBRANCH  18  19
ENDBRANCH  14  18
ENDBRANCH   1  15
BRANCH   1  22
ATOM     22  N   UNL     1      -4.702  -5.889  -0.009  0.00  0.00    -0.275 N 
ATOM     23  C   UNL     1      -5.903  -6.463   0.201  0.00  0.00    +0.292 C 
ATOM     24  O   UNL     1      -6.878  -5.771   0.423  0.00  0.00    -0.260 OA
BRANCH  23  25
ATOM     25  C   UNL     1      -6.031  -7.889   0.162  0.00  0.00    -0.003 C 
ATOM     26  C   UNL     1      -6.136  -9.058   0.131  0.00  0.00    -0.057 C 
BRANCH  26  27
ATOM     27  C   UNL     1      -6.264 -10.484   0.092  0.00  0.00    +0.025 A 
ATOM     28  C   UNL     1      -5.144 -11.284  -0.157  0.00  0.00    +0.017 A 
ATOM     29  C   UNL     1      -5.276 -12.656  -0.192  0.00  0.00    +0.001 A 
ATOM     30  C   UNL     1      -6.512 -13.242   0.018  0.00  0.00    +0.000 A 
ATOM     31  C   UNL     1      -7.625 -12.457   0.265  0.00  0.00    +0.001 A 
ATOM     32  C   UNL     1      -7.509 -11.084   0.309  0.00  0.00    +0.017 A 
ENDBRANCH  26  27
ENDBRANCH  23  25
BRANCH  22  33
ATOM     33  C   UNL     1      -3.528  -6.723  -0.276  0.00  0.00    +0.109 C 
BRANCH  33  34
ATOM     34  C   UNL     1      -2.950  -7.230   1.047  0.00  0.00    +0.016 C 
ATOM     35  C   UNL     1      -1.671  -8.024   0.774  0.00  0.00    +0.005 C 
ENDBRANCH  33  34
ENDBRANCH  22  33
ENDBRANCH   1  22
TORSDOF 13
