REMARK  Name = ZINC08695258
REMARK  20 active torsions:
REMARK  status: ('A' for Active; 'I' for Inactive)
REMARK    1  A    between atoms: C_1  and  C_2
REMARK    2  A    between atoms: C_2  and  C_3
REMARK    3  A    between atoms: C_3  and  C_4
REMARK    4  A    between atoms: C_4  and  N_81
REMARK    5  A    between atoms: C_5  and  C_6
REMARK    6  A    between atoms: C_5  and  N_81
REMARK    7  A    between atoms: C_6  and  C_7
REMARK    8  A    between atoms: C_7  and  C_8
REMARK    9  A    between atoms: C_9  and  C_10
REMARK   10  A    between atoms: C_9  and  N_81
REMARK   11  A    between atoms: C_10  and  C_11
REMARK   12  A    between atoms: C_11  and  N_12
REMARK   13  A    between atoms: C_13  and  C_29
REMARK   14  A    between atoms: C_15  and  C_20
REMARK   15  A    between atoms: C_16  and  O_19
REMARK   16  A    between atoms: C_20  and  C_22
REMARK   17  A    between atoms: C_32  and  C_35
REMARK   18  A    between atoms: C_35  and  C_36
REMARK   19  A    between atoms: C_35  and  C_37
REMARK   20  A    between atoms: C_35  and  C_38
REMARK                            x       y       z     vdW  Elec       q    Type
REMARK                         _______ _______ _______ _____ _____    ______ ____
ROOT
ATOM      1  N   UNL     1      -1.132   4.242   0.328  0.00  0.00    -0.284 N 
ATOM      2  C   UNL     1       0.221   3.950  -0.158  0.00  0.00    +0.144 C 
ATOM      3  C   UNL     1       0.323   2.445  -0.243  0.00  0.00    +0.071 C 
ATOM      4  C   UNL     1      -0.872   1.950   0.155  0.00  0.00    +0.188 C 
ATOM      5  C   UNL     1      -1.767   3.071   0.513  0.00  0.00    +0.282 C 
ATOM      6  O   UNL     1      -2.909   2.952   0.910  0.00  0.00    -0.267 OA
ENDROOT
BRANCH   2   7
ATOM      7  C   UNL     1       0.426   4.562  -1.520  0.00  0.00    -0.022 A 
ATOM      8  C   UNL     1      -0.535   4.403  -2.500  0.00  0.00    +0.006 A 
ATOM      9  C   UNL     1      -0.350   4.968  -3.748  0.00  0.00    +0.004 A 
ATOM     10  C   UNL     1       0.802   5.683  -4.019  0.00  0.00    -0.042 A 
ATOM     11  C   UNL     1       1.766   5.837  -3.040  0.00  0.00    +0.004 A 
ATOM     12  C   UNL     1       1.578   5.276  -1.791  0.00  0.00    +0.006 A 
BRANCH  10  13
ATOM     13  C   UNL     1       1.007   6.293  -5.381  0.00  0.00    -0.013 C 
ATOM     14  C   UNL     1       2.273   5.713  -6.015  0.00  0.00    +0.015 C 
ATOM     15  C   UNL     1      -0.198   5.976  -6.269  0.00  0.00    +0.015 C 
ATOM     16  C   UNL     1       1.155   7.810  -5.244  0.00  0.00    +0.015 C 
ENDBRANCH  10  13
ENDBRANCH   2   7
BRANCH   4  17
ATOM     17  O   UNL     1      -1.196   0.638   0.217  0.00  0.00    -0.502 OA
ATOM     18  H   UNL     1      -2.137   0.542   0.542  0.00  0.00    +0.292 HD
ENDBRANCH   4  17
BRANCH   3  19
ATOM     19  C   UNL     1       1.488   1.671  -0.680  0.00  0.00    +0.195 C 
ATOM     20  O   UNL     1       1.429   1.002  -1.694  0.00  0.00    -0.287 OA
BRANCH  19  21
ATOM     21  C   UNL     1       2.738   1.708   0.109  0.00  0.00    +0.022 A 
ATOM     22  C   UNL     1       2.823   2.510   1.250  0.00  0.00    +0.013 A 
ATOM     23  C   UNL     1       3.989   2.536   1.985  0.00  0.00    +0.021 A 
ATOM     24  C   UNL     1       5.079   1.777   1.589  0.00  0.00    +0.041 A 
ATOM     25  C   UNL     1       5.002   0.984   0.455  0.00  0.00    +0.021 A 
ATOM     26  C   UNL     1       3.839   0.945  -0.285  0.00  0.00    +0.013 A 
ATOM     27 CL   UNL     1       6.546   1.820   2.515  0.00  0.00    -0.084 Cl
ENDBRANCH  19  21
ENDBRANCH   3  19
BRANCH   1  28
ATOM     28  C   UNL     1      -1.693   5.574   0.569  0.00  0.00    +0.107 C 
BRANCH  28  29
ATOM     29  C   UNL     1      -2.366   6.083  -0.707  0.00  0.00    +0.000 C 
BRANCH  29  30
ATOM     30  C   UNL     1      -2.952   7.474  -0.455  0.00  0.00    -0.077 C 
BRANCH  30  31
ATOM     31  N   UNL     1      -3.580   7.960  -1.701  0.00  0.00    +0.380 N 
ATOM     32  H   UNL     1      -2.904   7.875  -2.470  0.00  0.00    -0.082 HD
BRANCH  31  33
ATOM     33  C   UNL     1      -4.772   7.145  -2.017  0.00  0.00    -0.079 C 
BRANCH  33  34
ATOM     34  C   UNL     1      -5.800   7.238  -0.888  0.00  0.00    -0.019 C 
BRANCH  34  36
ATOM     35  C   UNL     1      -8.044   6.469  -0.104  0.00  0.00    +0.004 C 
ATOM     36  C   UNL     1      -7.016   6.377  -1.234  0.00  0.00    -0.005 C 
ENDBRANCH  34  36
ENDBRANCH  33  34
ENDBRANCH  31  33
BRANCH  31  37
ATOM     37  C   UNL     1      -3.963   9.380  -1.554  0.00  0.00    -0.079 C 
BRANCH  37  38
ATOM     38  C   UNL     1      -4.387   9.921  -2.920  0.00  0.00    -0.019 C 
BRANCH  38  39
ATOM     39  C   UNL     1      -4.711  11.412  -2.801  0.00  0.00    -0.005 C 
ATOM     40  C   UNL     1      -5.135  11.953  -4.167  0.00  0.00    +0.004 C 
ENDBRANCH  38  39
ENDBRANCH  37  38
ENDBRANCH  31  37
ENDBRANCH  30  31
ENDBRANCH  29  30
ENDBRANCH  28  29
ENDBRANCH   1  28
TORSDOF 15
