REMARK  Name = ZINC36569768
REMARK  9 active torsions:
REMARK  status: ('A' for Active; 'I' for Inactive)
REMARK    1  A    between atoms: C_1  and  O_2
REMARK    2  A    between atoms: O_2  and  C_3
REMARK    3  A    between atoms: C_3  and  C_5
REMARK    4  A    between atoms: C_5  and  C_6
REMARK    5  A    between atoms: C_6  and  C_8
REMARK    6  A    between atoms: C_6  and  N_12
REMARK    7  A    between atoms: C_8  and  O_10
REMARK    8  A    between atoms: O_10  and  C_11
REMARK    9  A    between atoms: C_24  and  C_26
REMARK                            x       y       z     vdW  Elec       q    Type
REMARK                         _______ _______ _______ _____ _____    ______ ____
ROOT
ATOM      1  N   UNL     1      -5.771  -2.111   0.033  0.00  0.00    -0.286 N 
ATOM      2  C   UNL     1      -4.893  -2.023  -0.986  0.00  0.00    +0.304 C 
ATOM      3  O   UNL     1      -3.703  -2.159  -0.777  0.00  0.00    -0.253 OA
ATOM      4  N   UNL     1      -5.335  -1.784  -2.237  0.00  0.00    -0.273 N 
ATOM      5  C   UNL     1      -4.409  -1.803  -3.379  0.00  0.00    +0.116 C 
ATOM      6  C   UNL     1      -4.341  -0.400  -3.994  0.00  0.00    +0.074 C 
ATOM      7  C   UNL     1      -5.741   0.144  -4.118  0.00  0.00    +0.040 A 
ATOM      8  C   UNL     1      -6.815  -0.334  -3.454  0.00  0.00    +0.062 A 
ATOM      9  N   UNL     1      -7.878   0.392  -3.807  0.00  0.00    -0.348 N 
ATOM     10  C   UNL     1      -7.507   1.302  -4.669  0.00  0.00    +0.171 A 
ATOM     11  N   UNL     1      -6.178   1.178  -4.889  0.00  0.00    -0.349 N 
ATOM     12  H   UNL     1      -5.638   1.722  -5.484  0.00  0.00    +0.166 HD
ATOM     13  C   UNL     1      -6.759  -1.504  -2.494  0.00  0.00    +0.156 C 
ATOM     14  H   UNL     1      -6.712  -1.932  -0.120  0.00  0.00    +0.151 HD
ATOM     15  H   UNL     1      -8.781   0.265  -3.477  0.00  0.00    +0.167 HD
ENDROOT
BRANCH  13  16
ATOM     16  C   UNL     1      -7.416  -2.711  -3.111  0.00  0.00    -0.021 A 
ATOM     17  C   UNL     1      -7.006  -3.163  -4.352  0.00  0.00    +0.007 A 
ATOM     18  C   UNL     1      -7.608  -4.270  -4.918  0.00  0.00    +0.015 A 
ATOM     19  C   UNL     1      -8.622  -4.927  -4.244  0.00  0.00    +0.018 A 
ATOM     20  C   UNL     1      -9.032  -4.474  -3.002  0.00  0.00    +0.015 A 
ATOM     21  C   UNL     1      -8.425  -3.370  -2.434  0.00  0.00    +0.007 A 
ATOM     22 BR   UNL     1      -9.447  -6.442  -5.018  0.00  0.00    -0.050 Br
ENDBRANCH  13  16
BRANCH   1  23
ATOM     23  C   UNL     1      -5.304  -2.478   1.372  0.00  0.00    +0.194 C 
BRANCH  23  24
ATOM     24  C   UNL     1      -4.816  -1.245   2.089  0.00  0.00    +0.328 C 
ATOM     25  O   UNL     1      -4.855  -0.171   1.538  0.00  0.00    -0.249 OA
BRANCH  24  26
ATOM     26  O   UNL     1      -4.339  -1.341   3.340  0.00  0.00    -0.467 OA
ATOM     27  C   UNL     1      -3.894  -0.132   3.959  0.00  0.00    +0.280 C 
ENDBRANCH  24  26
ENDBRANCH  23  24
BRANCH  23  28
ATOM     28  C   UNL     1      -6.456  -3.104   2.161  0.00  0.00    +0.154 C 
BRANCH  28  29
ATOM     29  C   UNL     1      -6.862  -4.402   1.511  0.00  0.00    +0.309 C 
ATOM     30  O   UNL     1      -6.288  -4.787   0.519  0.00  0.00    -0.251 OA
BRANCH  29  32
ATOM     31  C   UNL     1      -8.192  -6.350   1.367  0.00  0.00    +0.280 C 
ATOM     32  O   UNL     1      -7.860  -5.131   2.034  0.00  0.00    -0.468 OA
ENDBRANCH  29  32
ENDBRANCH  28  29
ENDBRANCH  23  28
ENDBRANCH   1  23
TORSDOF 7
