REMARK  Name = ZINC09332333
REMARK  4 active torsions:
REMARK  status: ('A' for Active; 'I' for Inactive)
REMARK    1  A    between atoms: C_3  and  C_10
REMARK    2  A    between atoms: C_5  and  N_7
REMARK    3  A    between atoms: C_10  and  C_12
REMARK    4  A    between atoms: N_27  and  C_30
REMARK                            x       y       z     vdW  Elec       q    Type
REMARK                         _______ _______ _______ _____ _____    ______ ____
ROOT
ATOM      1  C   UNL     1       3.632   3.659  -0.128  0.00  0.00    +0.176 C 
ATOM      2  C   UNL     1       3.231   4.091  -1.536  0.00  0.00    +0.119 C 
ATOM      3  C   UNL     1       3.851   5.543  -1.490  0.00  0.00    +0.116 C 
ATOM      4  C   UNL     1       5.213   5.289  -0.998  0.00  0.00    +0.129 C 
ATOM      5  N   UNL     1       4.995   4.212   0.040  0.00  0.00    -0.237 N 
ATOM      6  N   UNL     1       5.957   3.885   0.999  0.00  0.00    -0.191 NA
ATOM      7  C   UNL     1       6.706   4.872   1.424  0.00  0.00    +0.130 C 
ATOM      8  C   UNL     1       6.513   6.220   0.884  0.00  0.00    +0.019 C 
ATOM      9  C   UNL     1       5.830   6.454  -0.258  0.00  0.00    -0.001 C 
ATOM     10  C   UNL     1       3.178   6.184  -2.593  0.00  0.00    +0.232 C 
ATOM     11  O   UNL     1       3.624   7.034  -3.334  0.00  0.00    -0.274 OA
ATOM     12  N   UNL     1       1.926   5.625  -2.623  0.00  0.00    -0.210 N 
ATOM     13  C   UNL     1       1.823   4.490  -1.845  0.00  0.00    +0.232 C 
ATOM     14  O   UNL     1       0.810   3.933  -1.480  0.00  0.00    -0.274 OA
ENDROOT
BRANCH  12  15
ATOM     15  C   UNL     1       0.861   6.143  -3.375  0.00  0.00    +0.044 A 
ATOM     16  C   UNL     1      -0.379   5.519  -3.345  0.00  0.00    +0.025 A 
ATOM     17  C   UNL     1      -1.425   6.031  -4.087  0.00  0.00    +0.017 A 
ATOM     18  C   UNL     1      -1.239   7.165  -4.858  0.00  0.00    +0.018 A 
ATOM     19  C   UNL     1      -0.004   7.788  -4.889  0.00  0.00    +0.017 A 
ATOM     20  C   UNL     1       1.044   7.283  -4.145  0.00  0.00    +0.025 A 
ATOM     21 BR   UNL     1      -2.674   7.863  -5.872  0.00  0.00    -0.050 Br
ENDBRANCH  12  15
BRANCH   1  22
ATOM     22  C   UNL     1       3.653   2.155  -0.022  0.00  0.00    +0.186 C 
ATOM     23  O   UNL     1       4.673   1.545  -0.260  0.00  0.00    -0.290 OA
BRANCH  22  26
ATOM     24  C   UNL     1       0.155   1.443   1.131  0.00  0.00    +0.003 A 
ATOM     25  C   UNL     1       1.293   2.131   0.765  0.00  0.00    +0.011 A 
ATOM     26  C   UNL     1       2.435   1.428   0.370  0.00  0.00    +0.022 A 
ATOM     27  C   UNL     1       2.414   0.030   0.350  0.00  0.00    +0.044 A 
ATOM     28  C   UNL     1       1.270  -0.644   0.719  0.00  0.00    +0.127 A 
ATOM     29  C   UNL     1       0.143   0.059   1.108  0.00  0.00    +0.033 A 
BRANCH  28  30
ATOM     30  N   UNL     1       1.245  -2.124   0.697  0.00  0.00    +0.056 N 
ATOM     31  O   UNL     1       2.228  -2.740   0.357  0.00  0.00    -0.126 OA
ATOM     32  O   UNL     1       0.242  -2.717   1.020  0.00  0.00    -0.126 OA
ENDBRANCH  28  30
ENDBRANCH  22  26
ENDBRANCH   1  22
TORSDOF 4
