REMARK  Name = ZINC38914862
REMARK  12 active torsions:
REMARK  status: ('A' for Active; 'I' for Inactive)
REMARK    1  A    between atoms: C_1  and  C_2
REMARK    2  A    between atoms: C_2  and  O_3
REMARK    3  A    between atoms: O_3  and  C_4
REMARK    4  A    between atoms: C_4  and  C_6
REMARK    5  A    between atoms: C_7  and  C_38
REMARK    6  A    between atoms: N_11  and  C_12
REMARK    7  A    between atoms: C_12  and  C_14
REMARK    8  A    between atoms: C_14  and  S_15
REMARK    9  A    between atoms: S_15  and  C_16
REMARK   10  A    between atoms: C_23  and  C_27
REMARK   11  A    between atoms: C_24  and  C_26
REMARK   12  A    between atoms: N_30  and  C_31
REMARK                            x       y       z     vdW  Elec       q    Type
REMARK                         _______ _______ _______ _____ _____    ______ ____
ROOT
ATOM      1  C   UNL     1     -11.135  -0.596   0.070  0.00  0.00    +0.210 C 
ATOM      2  N   UNL     1     -11.351  -1.057   1.444  0.00  0.00    -0.277 NA
ATOM      3  C   UNL     1     -12.209  -2.231   1.487  0.00  0.00    +0.135 C 
ATOM      4  C   UNL     1     -11.579  -3.242   0.477  0.00  0.00    +0.129 C 
ATOM      5  C   UNL     1     -11.842  -4.627   0.873  0.00  0.00    -0.049 C 
ATOM      6  C   UNL     1     -12.057  -4.871   2.169  0.00  0.00    -0.016 C 
ATOM      7  S   UNL     1     -11.998  -3.249   2.997  0.00  0.00    -0.110 S 
ATOM      8  C   UNL     1     -12.295  -6.212   2.815  0.00  0.00    +0.051 C 
ATOM      9  C   UNL     1     -11.871  -5.737  -0.146  0.00  0.00    +0.041 C 
ATOM     10  C   UNL     1     -11.943  -2.729  -0.875  0.00  0.00    +0.231 C 
ATOM     11  O   UNL     1     -12.334  -3.433  -1.782  0.00  0.00    -0.274 OA
ATOM     12  N   UNL     1     -11.785  -1.375  -0.973  0.00  0.00    -0.246 N 
ATOM     13  H   UNL     1     -10.473  -1.233   1.909  0.00  0.00    +0.126 HD
ENDROOT
BRANCH  12  14
ATOM     14  C   UNL     1     -12.262  -0.720  -2.114  0.00  0.00    +0.039 A 
ATOM     15  C   UNL     1     -11.661  -0.941  -3.346  0.00  0.00    +0.023 A 
ATOM     16  C   UNL     1     -12.135  -0.294  -4.470  0.00  0.00    +0.002 A 
ATOM     17  C   UNL     1     -13.207   0.574  -4.370  0.00  0.00    +0.000 A 
ATOM     18  C   UNL     1     -13.808   0.796  -3.144  0.00  0.00    +0.002 A 
ATOM     19  C   UNL     1     -13.343   0.147  -2.017  0.00  0.00    +0.023 A 
ENDBRANCH  12  14
BRANCH   1  20
ATOM     20  S   UNL     1      -9.350  -0.598  -0.253  0.00  0.00    -0.113 S 
BRANCH  20  21
ATOM     21  C   UNL     1      -8.714   0.744   0.789  0.00  0.00    +0.170 C 
BRANCH  21  22
ATOM     22  C   UNL     1      -7.217   0.826   0.644  0.00  0.00    +0.248 C 
ATOM     23  O   UNL     1      -6.633   0.052  -0.091  0.00  0.00    -0.273 OA
BRANCH  22  29
ATOM     24  C   UNL     1      -2.642   1.622   0.663  0.00  0.00    +0.118 A 
ATOM     25  C   UNL     1      -3.031   2.590   1.536  0.00  0.00    +0.036 A 
ATOM     26  N   UNL     1      -4.347   2.679   1.799  0.00  0.00    -0.339 N 
ATOM     27  H   UNL     1      -4.679   3.352   2.414  0.00  0.00    +0.167 HD
ATOM     28  C   UNL     1      -5.209   1.814   1.192  0.00  0.00    +0.164 A 
ATOM     29  N   UNL     1      -6.533   1.742   1.320  0.00  0.00    -0.156 NA
ATOM     30  S   UNL     1      -4.200   0.866   0.238  0.00  0.00    -0.046 S 
ATOM     31  C   UNL     1      -2.034   3.519   2.178  0.00  0.00    +0.065 C 
BRANCH  24  32
ATOM     32  C   UNL     1      -1.294   1.291   0.190  0.00  0.00    +0.348 C 
ATOM     33  O   UNL     1      -0.337   1.923   0.593  0.00  0.00    -0.244 OA
BRANCH  32  34
ATOM     34  O   UNL     1      -1.117   0.286  -0.691  0.00  0.00    -0.461 OA
BRANCH  34  36
ATOM     35  C   UNL     1       0.226  -1.146  -2.102  0.00  0.00    +0.048 C 
ATOM     36  C   UNL     1       0.224   0.018  -1.109  0.00  0.00    +0.229 C 
ENDBRANCH  34  36
ENDBRANCH  32  34
ENDBRANCH  24  32
ENDBRANCH  22  29
ENDBRANCH  21  22
ENDBRANCH  20  21
ENDBRANCH   1  20
TORSDOF 8
