REMARK  Name = ZINC41040722
REMARK  5 active torsions:
REMARK  status: ('A' for Active; 'I' for Inactive)
REMARK    1  A    between atoms: C_1  and  C_2
REMARK    2  A    between atoms: C_7  and  N_8
REMARK    3  A    between atoms: N_9  and  S_10
REMARK    4  A    between atoms: S_10  and  C_13
REMARK    5  A    between atoms: C_18  and  C_19
REMARK                            x       y       z     vdW  Elec       q    Type
REMARK                         _______ _______ _______ _____ _____    ______ ____
ROOT
ATOM      1  C   UNL     1      -0.018   1.503   0.010  0.00  0.00    +0.046 C 
ATOM      2  C   UNL     1       0.002  -0.004   0.002  0.00  0.00    -0.025 A 
ATOM      3  C   UNL     1       0.006  -0.680  -1.176  0.00  0.00    +0.053 A 
ATOM      4  C   UNL     1       0.026  -2.094  -1.165  0.00  0.00    +0.153 A 
ATOM      5  N   UNL     1       0.041  -2.765   0.033  0.00  0.00    -0.343 N 
ATOM      6  C   UNL     1       0.036  -2.073   1.211  0.00  0.00    +0.107 A 
ATOM      7  C   UNL     1       0.023  -0.719   1.217  0.00  0.00    +0.044 A 
ATOM      8  N   UNL     1       0.029  -2.765  -2.299  0.00  0.00    -0.111 NA
ATOM      9  H   UNL     1       0.054  -3.735   0.042  0.00  0.00    +0.167 HD
ENDROOT
BRANCH   7  10
ATOM     10  N   UNL     1       0.025  -0.024   2.437  0.00  0.00    -0.357 N 
ATOM     11  H   UNL     1       0.011   0.946   2.443  0.00  0.00    +0.142 HD
ATOM     12  H   UNL     1       0.040  -0.514   3.274  0.00  0.00    +0.142 HD
ENDBRANCH   7  10
BRANCH   8  13
ATOM     13  S   UNL     1       0.052  -4.421  -2.282  0.00  0.00    +0.104 S 
ATOM     14  O   UNL     1       1.306  -4.804  -1.733  0.00  0.00    -0.146 OA
ATOM     15  O   UNL     1      -1.185  -4.839  -1.720  0.00  0.00    -0.146 OA
BRANCH  13  16
ATOM     16  C   UNL     1       0.051  -4.960  -3.960  0.00  0.00    +0.152 A 
ATOM     17  C   UNL     1       1.046  -5.635  -4.580  0.00  0.00    +0.134 A 
ATOM     18  N   UNL     1       0.660  -5.859  -5.853  0.00  0.00    -0.283 N 
ATOM     19  N   UNL     1      -0.615  -5.304  -6.021  0.00  0.00    -0.177 NA
ATOM     20  H   UNL     1       1.174  -6.323  -6.532  0.00  0.00    +0.188 HD
ATOM     21  C   UNL     1      -0.982  -4.771  -4.884  0.00  0.00    +0.087 A 
ATOM     22  C   UNL     1      -2.289  -4.069  -4.617  0.00  0.00    +0.069 C 
ENDBRANCH  13  16
ENDBRANCH   8  13
TORSDOF 3
