REMARK  Name = ZINC03348871
REMARK  4 active torsions:
REMARK  status: ('A' for Active; 'I' for Inactive)
REMARK    1  A    between atoms: C_4  and  C_7
REMARK    2  A    between atoms: C_15  and  C_17
REMARK    3  A    between atoms: C_17  and  N_46
REMARK    4  A    between atoms: C_20  and  C_23
REMARK                            x       y       z     vdW  Elec       q    Type
REMARK                         _______ _______ _______ _____ _____    ______ ____
ROOT
ATOM      1  C   UNL     1      -1.085  -0.852  -0.036  0.00  0.00    +0.066 A 
ATOM      2  C   UNL     1      -0.903  -2.179   0.110  0.00  0.00    +0.075 A 
ATOM      3  S   UNL     1       0.857  -2.338  -0.141  0.00  0.00    -0.057 S 
ATOM      4  C   UNL     1       1.214  -0.617  -0.421  0.00  0.00    +0.181 A 
ATOM      5  N   UNL     1      -0.015  -0.023  -0.309  0.00  0.00    -0.255 N 
ATOM      6  C   UNL     1      -0.056   1.332  -0.480  0.00  0.00    +0.259 A 
ATOM      7  O   UNL     1      -1.119   1.927  -0.399  0.00  0.00    -0.267 OA
ATOM      8  C   UNL     1       1.118   2.035  -0.753  0.00  0.00    +0.092 A 
ATOM      9  C   UNL     1       2.314   1.357  -0.850  0.00  0.00    +0.033 A 
ATOM     10  N   UNL     1       2.320   0.037  -0.678  0.00  0.00    -0.229 NA
ENDROOT
BRANCH   1  14
ATOM     11  C   UNL     1      -4.981   0.796   0.350  0.00  0.00    +0.000 A 
ATOM     12  C   UNL     1      -4.734  -0.168  -0.610  0.00  0.00    +0.001 A 
ATOM     13  C   UNL     1      -3.470  -0.707  -0.741  0.00  0.00    +0.010 A 
ATOM     14  C   UNL     1      -2.442  -0.278   0.098  0.00  0.00    -0.001 A 
ATOM     15  C   UNL     1      -2.700   0.691   1.068  0.00  0.00    +0.010 A 
ATOM     16  C   UNL     1      -3.966   1.226   1.185  0.00  0.00    +0.001 A 
ENDBRANCH   1  14
BRANCH   9  17
ATOM     17  C   UNL     1       3.594   2.096  -1.145  0.00  0.00    -0.022 C 
BRANCH  17  23
ATOM     18  C   UNL     1       3.780   2.373   1.253  0.00  0.00    -0.078 C 
ATOM     19  C   UNL     1       4.771   2.416   2.417  0.00  0.00    -0.006 C 
ATOM     20  C   UNL     1       5.433   1.043   2.569  0.00  0.00    +0.071 C 
ATOM     21  C   UNL     1       6.122   0.669   1.253  0.00  0.00    -0.006 C 
ATOM     22  C   UNL     1       5.090   0.677   0.123  0.00  0.00    -0.078 C 
ATOM     23  N   UNL     1       4.509   2.032   0.013  0.00  0.00    +0.383 N 
ATOM     24  H   UNL     1       5.268   2.710  -0.124  0.00  0.00    -0.081 HD
BRANCH  20  25
ATOM     25  C   UNL     1       6.454   1.095   3.675  0.00  0.00    +0.213 C 
ATOM     26  O   UNL     1       7.619   0.857   3.437  0.00  0.00    -0.276 OA
ATOM     27  N   UNL     1       6.073   1.407   4.930  0.00  0.00    -0.329 N 
ATOM     28  H   UNL     1       5.141   1.597   5.121  0.00  0.00    +0.145 HD
ATOM     29  H   UNL     1       6.731   1.440   5.642  0.00  0.00    +0.145 HD
ENDBRANCH  20  25
ENDBRANCH  17  23
ENDBRANCH   9  17
TORSDOF 4
