REMARK  Name = ZINC06759645
REMARK  9 active torsions:
REMARK  status: ('A' for Active; 'I' for Inactive)
REMARK    1  A    between atoms: C_1  and  C_2
REMARK    2  A    between atoms: C_2  and  O_3
REMARK    3  A    between atoms: O_3  and  C_4
REMARK    4  A    between atoms: C_4  and  C_6
REMARK    5  A    between atoms: C_6  and  N_7
REMARK    6  A    between atoms: N_15  and  C_18
REMARK    7  A    between atoms: C_18  and  C_19
REMARK    8  A    between atoms: C_19  and  N_58
REMARK    9  A    between atoms: C_25  and  C_29
REMARK                            x       y       z     vdW  Elec       q    Type
REMARK                         _______ _______ _______ _____ _____    ______ ____
ROOT
ATOM      1  N   UNL     1      -2.430   0.973   0.019  0.00  0.00    -0.249 N 
ATOM      2  C   UNL     1      -2.915   0.535   1.194  0.00  0.00    +0.266 A 
ATOM      3  O   UNL     1      -2.445   0.937   2.243  0.00  0.00    -0.267 OA
ATOM      4  C   UNL     1      -4.027  -0.441   1.198  0.00  0.00    +0.074 A 
ATOM      5  C   UNL     1      -4.704  -1.048   2.345  0.00  0.00    -0.023 A 
ATOM      6  C   UNL     1      -5.694  -1.915   2.053  0.00  0.00    -0.004 A 
ATOM      7  S   UNL     1      -5.757  -1.952   0.283  0.00  0.00    -0.075 S 
ATOM      8  C   UNL     1      -4.489  -0.835  -0.058  0.00  0.00    +0.097 A 
ATOM      9  N   UNL     1      -3.938  -0.339  -1.208  0.00  0.00    -0.289 N 
ATOM     10  C   UNL     1      -2.929   0.552  -1.155  0.00  0.00    +0.333 A 
ATOM     11  O   UNL     1      -2.459   0.982  -2.191  0.00  0.00    -0.246 OA
ATOM     12  C   UNL     1      -6.546  -2.675   3.022  0.00  0.00    +0.046 C 
ATOM     13  C   UNL     1      -5.881  -2.609   4.404  0.00  0.00    -0.009 C 
ATOM     14  C   UNL     1      -5.492  -1.157   4.696  0.00  0.00    +0.008 C 
ATOM     15  C   UNL     1      -4.334  -0.736   3.790  0.00  0.00    +0.037 C 
ATOM     16  C   UNL     1      -6.862  -3.102   5.470  0.00  0.00    +0.008 C 
ENDROOT
BRANCH   1  17
ATOM     17  C   UNL     1      -1.329   1.940   0.019  0.00  0.00    +0.250 C 
BRANCH  17  18
ATOM     18  C   UNL     1      -0.014   1.204   0.009  0.00  0.00    +0.327 C 
ATOM     19  O   UNL     1       0.002  -0.004   0.002  0.00  0.00    -0.249 OA
BRANCH  18  20
ATOM     20  O   UNL     1       1.139   1.891   0.001  0.00  0.00    -0.464 OA
BRANCH  20  22
ATOM     21  C   UNL     1       3.568   2.065  -0.021  0.00  0.00    +0.048 C 
ATOM     22  C   UNL     1       2.367   1.117  -0.015  0.00  0.00    +0.229 C 
ENDBRANCH  20  22
ENDBRANCH  18  20
ENDBRANCH  17  18
ENDBRANCH   1  17
BRANCH   9  23
ATOM     23  C   UNL     1      -4.452  -0.778  -2.508  0.00  0.00    +0.109 C 
BRANCH  23  24
ATOM     24  C   UNL     1      -5.583   0.153  -2.950  0.00  0.00    -0.057 C 
BRANCH  24  29
ATOM     25  C   UNL     1      -6.461  -1.726  -4.224  0.00  0.00    -0.079 C 
ATOM     26  C   UNL     1      -7.432  -1.872  -5.422  0.00  0.00    -0.020 C 
ATOM     27  C   UNL     1      -8.232  -0.549  -5.382  0.00  0.00    -0.020 C 
ATOM     28  C   UNL     1      -7.341   0.436  -4.603  0.00  0.00    -0.079 C 
ATOM     29  N   UNL     1      -6.118  -0.296  -4.270  0.00  0.00    +0.381 N 
ATOM     30  H   UNL     1      -5.409  -0.133  -4.994  0.00  0.00    -0.082 HD
ENDBRANCH  24  29
ENDBRANCH  23  24
ENDBRANCH   9  23
TORSDOF 7
