REMARK  Name = ZINC63139732
REMARK  8 active torsions:
REMARK  status: ('A' for Active; 'I' for Inactive)
REMARK    1  A    between atoms: C_1  and  O_2
REMARK    2  A    between atoms: O_2  and  C_3
REMARK    3  A    between atoms: C_5  and  C_13
REMARK    4  A    between atoms: C_7  and  O_11
REMARK    5  A    between atoms: C_8  and  O_9
REMARK    6  A    between atoms: O_9  and  C_10
REMARK    7  A    between atoms: O_11  and  C_12
REMARK    8  A    between atoms: N_32  and  C_35
REMARK                            x       y       z     vdW  Elec       q    Type
REMARK                         _______ _______ _______ _____ _____    ______ ____
ROOT
ATOM      1  C   UNL     1       2.462   0.340   4.203  0.00  0.00    +0.134 C 
ATOM      2  C   UNL     1       1.502   0.401   5.391  0.00  0.00    +0.131 C 
ATOM      3  C   UNL     1       2.323   0.927   6.566  0.00  0.00    -0.034 C 
ATOM      4  C   UNL     1       1.759   2.064   6.948  0.00  0.00    -0.001 A 
ATOM      5  C   UNL     1       2.082   3.001   8.037  0.00  0.00    +0.010 A 
ATOM      6  C   UNL     1       1.282   4.095   8.144  0.00  0.00    +0.001 A 
ATOM      7  C   UNL     1       0.207   4.348   7.288  0.00  0.00    +0.002 A 
ATOM      8  C   UNL     1      -0.164   3.540   6.262  0.00  0.00    +0.026 A 
ATOM      9  C   UNL     1       0.601   2.356   6.050  0.00  0.00    +0.043 A 
ATOM     10  N   UNL     1       0.454   1.402   5.152  0.00  0.00    -0.375 N 
ATOM     11  C   UNL     1       3.538   0.190   7.059  0.00  0.00    +0.065 C 
ATOM     12  C   UNL     1       4.332  -0.329   5.888  0.00  0.00    +0.167 C 
ATOM     13  N   UNL     1       3.741  -0.249   4.570  0.00  0.00    -0.279 N 
ATOM     14  C   UNL     1       4.512  -0.750   3.549  0.00  0.00    +0.234 C 
ATOM     15  O   UNL     1       4.101  -0.801   2.409  0.00  0.00    -0.274 OA
ATOM     16  C   UNL     1       5.899  -1.236   3.914  0.00  0.00    +0.204 C 
ATOM     17  N   UNL     1       6.516  -0.251   4.822  0.00  0.00    -0.288 N 
ATOM     18  C   UNL     1       5.740   0.208   5.847  0.00  0.00    +0.237 C 
ATOM     19  O   UNL     1       6.157   0.993   6.672  0.00  0.00    -0.274 OA
ATOM     20  H   UNL     1      -0.219   1.362   4.454  0.00  0.00    +0.160 HD
ENDROOT
BRANCH   1  23
ATOM     21  C   UNL     1       0.626  -0.619   1.042  0.00  0.00    +0.165 A 
ATOM     22  C   UNL     1       1.202   0.138   2.051  0.00  0.00    +0.055 A 
ATOM     23  C   UNL     1       1.837  -0.486   3.109  0.00  0.00    -0.018 A 
ATOM     24  C   UNL     1       1.900  -1.866   3.166  0.00  0.00    +0.055 A 
ATOM     25  C   UNL     1       1.327  -2.630   2.160  0.00  0.00    +0.165 A 
ATOM     26  C   UNL     1       0.683  -2.006   1.098  0.00  0.00    +0.204 A 
BRANCH  21  28
ATOM     27  C   UNL     1      -0.017   1.425   0.010  0.00  0.00    +0.277 C 
ATOM     28  O   UNL     1       0.002  -0.004   0.002  0.00  0.00    -0.491 OA
ENDBRANCH  21  28
BRANCH  26  29
ATOM     29  O   UNL     1       0.114  -2.753   0.113  0.00  0.00    -0.488 OA
ATOM     30  C   UNL     1       0.939  -3.090  -1.004  0.00  0.00    +0.277 C 
ENDBRANCH  26  29
BRANCH  25  31
ATOM     31  O   UNL     1       1.390  -3.987   2.217  0.00  0.00    -0.491 OA
ATOM     32  C   UNL     1       2.062  -4.559   3.340  0.00  0.00    +0.277 C 
ENDBRANCH  25  31
ENDBRANCH   1  23
BRANCH  17  33
ATOM     33  C   UNL     1       7.892   0.213   4.633  0.00  0.00    +0.077 C 
ATOM     34  C   UNL     1       8.021   0.880   3.262  0.00  0.00    +0.022 C 
ATOM     35  C   UNL     1       9.459   1.365   3.064  0.00  0.00    +0.002 C 
ATOM     36  C   UNL     1      10.415   0.173   3.144  0.00  0.00    +0.000 C 
ATOM     37  C   UNL     1      10.286  -0.493   4.516  0.00  0.00    +0.002 C 
ATOM     38  C   UNL     1       8.848  -0.978   4.713  0.00  0.00    +0.022 C 
ENDBRANCH  17  33
TORSDOF 5
