REMARK  Name = ZINC32594652
REMARK  6 active torsions:
REMARK  status: ('A' for Active; 'I' for Inactive)
REMARK    1  A    between atoms: C_1  and  C_2
REMARK    2  A    between atoms: N_13  and  C_17
REMARK    3  A    between atoms: C_17  and  C_18
REMARK    4  A    between atoms: C_18  and  C_20
REMARK    5  A    between atoms: C_27  and  C_28
REMARK    6  A    between atoms: C_27  and  C_29
REMARK                            x       y       z     vdW  Elec       q    Type
REMARK                         _______ _______ _______ _____ _____    ______ ____
ROOT
ATOM      1  C   UNL     1      -0.013   1.086   0.008  0.00  0.00    +0.007 C 
ATOM      2  C   UNL     1      -0.729   1.579   1.267  0.00  0.00    -0.013 C 
ATOM      3  C   UNL     1      -0.751   3.109   1.274  0.00  0.00    +0.003 C 
ATOM      4  C   UNL     1      -1.467   3.604   2.533  0.00  0.00    +0.006 C 
ATOM      5  C   UNL     1      -0.726   3.095   3.771  0.00  0.00    +0.013 C 
ATOM      6  C   UNL     1      -0.704   1.569   3.764  0.00  0.00    +0.033 C 
ATOM      7  C   UNL     1       0.011   1.072   2.506  0.00  0.00    +0.012 C 
ATOM      8  C   UNL     1      -0.048   1.028   4.987  0.00  0.00    +0.028 A 
ATOM      9  C   UNL     1       0.142   1.609   6.186  0.00  0.00    +0.090 A 
ATOM     10  N   UNL     1       0.758   0.839   7.145  0.00  0.00    -0.289 N 
ATOM     11  C   UNL     1       1.173  -0.400   6.856  0.00  0.00    +0.292 A 
ATOM     12  O   UNL     1       1.738  -1.204   7.576  0.00  0.00    -0.259 OA
ATOM     13  S   UNL     1       0.640  -0.594   5.216  0.00  0.00    -0.030 S 
ATOM     14  S   UNL     1      -0.365   3.295   6.462  0.00  0.00    -0.100 S 
ATOM     15  C   UNL     1      -1.440   3.605   5.027  0.00  0.00    +0.020 C 
ATOM     16  C   UNL     1      -1.705   5.106   4.896  0.00  0.00    +0.023 C 
ATOM     17  C   UNL     1      -2.766   2.862   5.205  0.00  0.00    +0.023 C 
ENDROOT
BRANCH  10  18
ATOM     18  C   UNL     1       1.021   1.400   8.473  0.00  0.00    +0.206 C 
BRANCH  18  19
ATOM     19  C   UNL     1      -0.158   1.133   9.373  0.00  0.00    +0.183 C 
ATOM     20  O   UNL     1      -1.122   0.533   8.948  0.00  0.00    -0.290 OA
BRANCH  19  21
ATOM     21  C   UNL     1      -0.138   1.600  10.768  0.00  0.00    +0.019 A 
ATOM     22  C   UNL     1       0.974   2.287  11.264  0.00  0.00    +0.011 A 
ATOM     23  C   UNL     1       0.982   2.727  12.571  0.00  0.00    +0.001 A 
ATOM     24  C   UNL     1      -0.102   2.479  13.395  0.00  0.00    +0.000 A 
ATOM     25  C   UNL     1      -1.204   1.795  12.914  0.00  0.00    +0.001 A 
ATOM     26  C   UNL     1      -1.230   1.354  11.607  0.00  0.00    +0.011 A 
ENDBRANCH  19  21
ENDBRANCH  18  19
ENDBRANCH  10  18
TORSDOF 3
