REMARK  Name = ZINC12490086
REMARK  10 active torsions:
REMARK  status: ('A' for Active; 'I' for Inactive)
REMARK    1  A    between atoms: C_1  and  C_2
REMARK    2  A    between atoms: C_5  and  O_9
REMARK    3  A    between atoms: O_9  and  C_10
REMARK    4  A    between atoms: C_10  and  C_11
REMARK    5  A    between atoms: N_13  and  N_14
REMARK    6  A    between atoms: C_15  and  C_17
REMARK    7  A    between atoms: C_17  and  O_18
REMARK    8  A    between atoms: O_18  and  C_19
REMARK    9  A    between atoms: C_20  and  C_27
REMARK   10  A    between atoms: C_24  and  C_25
REMARK                            x       y       z     vdW  Elec       q    Type
REMARK                         _______ _______ _______ _____ _____    ______ ____
ROOT
ATOM      1  N   UNL     1       0.585  -0.664  -1.018  0.00  0.00    -0.231 N 
ATOM      2  C   UNL     1       0.002  -0.004   0.002  0.00  0.00    +0.267 C 
ATOM      3  O   UNL     1      -0.506  -0.622   0.913  0.00  0.00    -0.271 OA
ATOM      4  H   UNL     1       0.992  -0.170  -1.747  0.00  0.00    +0.173 HD
ENDROOT
BRANCH   1   7
ATOM      5  C   UNL     1       1.187  -2.726  -2.046  0.00  0.00    +0.267 C 
ATOM      6  O   UNL     1       1.695  -2.107  -2.957  0.00  0.00    -0.271 OA
ATOM      7  N   UNL     1       0.604  -2.065  -1.026  0.00  0.00    -0.231 N 
ATOM      8  H   UNL     1       0.198  -2.560  -0.297  0.00  0.00    +0.173 HD
BRANCH   5   9
ATOM      9  C   UNL     1       1.208  -4.233  -2.054  0.00  0.00    +0.326 C 
BRANCH   9  10
ATOM     10  O   UNL     1       1.876  -4.694  -3.230  0.00  0.00    -0.482 OA
BRANCH  10  15
ATOM     11  C   UNL     1       2.312 -10.269  -3.904  0.00  0.00    +0.044 C 
ATOM     12  C   UNL     1       2.196  -8.777  -3.724  0.00  0.00    -0.049 A 
ATOM     13  C   UNL     1       1.562  -8.264  -2.607  0.00  0.00    +0.007 A 
ATOM     14  C   UNL     1       1.453  -6.897  -2.440  0.00  0.00    +0.047 A 
ATOM     15  C   UNL     1       1.982  -6.039  -3.392  0.00  0.00    +0.135 A 
ATOM     16  C   UNL     1       2.615  -6.556  -4.514  0.00  0.00    +0.060 A 
ATOM     17  C   UNL     1       2.724  -7.925  -4.675  0.00  0.00    +0.022 A 
ATOM     18 BR   UNL     1       3.331  -5.389  -5.819  0.00  0.00    -0.047 Br
ENDBRANCH  10  15
ENDBRANCH   9  10
ENDBRANCH   5   9
ENDBRANCH   1   7
BRANCH   2  19
ATOM     19  C   UNL     1      -0.018   1.503   0.010  0.00  0.00    +0.326 C 
BRANCH  19  20
ATOM     20  O   UNL     1      -0.687   1.964   1.186  0.00  0.00    -0.482 OA
BRANCH  20  21
ATOM     21  C   UNL     1      -0.793   3.309   1.349  0.00  0.00    +0.127 A 
ATOM     22  C   UNL     1       0.196   4.006   2.027  0.00  0.00    -0.007 A 
ATOM     23  C   UNL     1       0.089   5.375   2.186  0.00  0.00    +0.022 A 
ATOM     24  C   UNL     1      -1.009   6.047   1.679  0.00  0.00    +0.019 A 
ATOM     25  C   UNL     1      -1.998   5.353   1.007  0.00  0.00    +0.022 A 
ATOM     26  C   UNL     1      -1.893   3.985   0.841  0.00  0.00    -0.007 A 
ATOM     27  C   UNL     1      -2.971   3.229   0.108  0.00  0.00    +0.047 C 
ATOM     28 BR   UNL     1      -1.156   7.919   1.905  0.00  0.00    -0.050 Br
ATOM     29  C   UNL     1       1.388   3.273   2.585  0.00  0.00    +0.047 C 
ENDBRANCH  20  21
ENDBRANCH  19  20
ENDBRANCH   2  19
TORSDOF 7
