REMARK  Name = ZINC45243248
REMARK  10 active torsions:
REMARK  status: ('A' for Active; 'I' for Inactive)
REMARK    1  A    between atoms: C_1  and  C_2
REMARK    2  A    between atoms: C_2  and  C_36
REMARK    3  A    between atoms: C_3  and  C_4
REMARK    4  A    between atoms: N_6  and  C_7
REMARK    5  A    between atoms: C_8  and  C_18
REMARK    6  A    between atoms: C_9  and  C_12
REMARK    7  A    between atoms: C_18  and  O_20
REMARK    8  A    between atoms: O_20  and  C_21
REMARK    9  A    between atoms: C_21  and  C_22
REMARK   10  A    between atoms: N_24  and  C_25
REMARK                            x       y       z     vdW  Elec       q    Type
REMARK                         _______ _______ _______ _____ _____    ______ ____
ROOT
ATOM      1  C   UNL     1       0.350   0.066   4.780  0.00  0.00    +0.087 A 
ATOM      2  C   UNL     1       0.565  -0.451   6.048  0.00  0.00    +0.095 A 
ATOM      3  C   UNL     1       0.512   0.492   7.151  0.00  0.00    +0.005 A 
ATOM      4  C   UNL     1       0.256   1.780   6.805  0.00  0.00    +0.056 A 
ATOM      5  S   UNL     1       0.101   1.705   5.034  0.00  0.00    -0.080 S 
ENDROOT
BRANCH   3   6
ATOM      6  C   UNL     1       0.723   0.078   8.559  0.00  0.00    -0.017 A 
ATOM      7  C   UNL     1       0.023  -1.010   9.080  0.00  0.00    +0.008 A 
ATOM      8  C   UNL     1       0.224  -1.391  10.391  0.00  0.00    +0.001 A 
ATOM      9  C   UNL     1       1.116  -0.697  11.188  0.00  0.00    +0.000 A 
ATOM     10  C   UNL     1       1.813   0.383  10.676  0.00  0.00    +0.001 A 
ATOM     11  C   UNL     1       1.625   0.770   9.365  0.00  0.00    +0.008 A 
ENDBRANCH   3   6
BRANCH   1  14
ATOM     12  C   UNL     1       0.125   0.050   2.425  0.00  0.00    +0.241 C 
ATOM     13  O   UNL     1      -0.074   1.250   2.445  0.00  0.00    -0.270 OA
ATOM     14  N   UNL     1       0.348  -0.616   3.575  0.00  0.00    -0.276 N 
ATOM     15  H   UNL     1       0.506  -1.573   3.559  0.00  0.00    +0.156 HD
BRANCH  12  18
ATOM     16  C   UNL     1      -0.770   1.358   0.087  0.00  0.00    +0.039 C 
ATOM     17  C   UNL     1      -0.222  -0.044   0.025  0.00  0.00    -0.071 C 
ATOM     18  C   UNL     1       0.122  -0.674   1.145  0.00  0.00    +0.066 C 
ATOM     19  C   UNL     1      -0.064  -0.733  -1.306  0.00  0.00    +0.039 C 
ENDBRANCH  12  18
ENDBRANCH   1  14
BRANCH   2  20
ATOM     20  C   UNL     1       0.831  -1.873   6.265  0.00  0.00    +0.343 C 
ATOM     21  O   UNL     1       1.974  -2.287   6.252  0.00  0.00    -0.245 OA
BRANCH  20  22
ATOM     22  O   UNL     1      -0.193  -2.726   6.478  0.00  0.00    -0.452 OA
BRANCH  22  23
ATOM     23  C   UNL     1       0.140  -4.101   6.681  0.00  0.00    +0.328 C 
BRANCH  23  24
ATOM     24  C   UNL     1      -1.122  -4.895   6.902  0.00  0.00    +0.251 C 
ATOM     25  O   UNL     1      -2.199  -4.339   6.886  0.00  0.00    -0.272 OA
ATOM     26  N   UNL     1      -1.052  -6.224   7.116  0.00  0.00    -0.305 N 
ATOM     27  H   UNL     1      -0.190  -6.669   7.129  0.00  0.00    +0.149 HD
BRANCH  26  28
ATOM     28  C   UNL     1      -2.279  -6.996   7.330  0.00  0.00    +0.110 C 
ATOM     29  C   UNL     1      -2.038  -8.455   6.933  0.00  0.00    +0.068 C 
ATOM     30  C   UNL     1      -3.220  -9.293   7.437  0.00  0.00    +0.231 C 
ATOM     31  O   UNL     1      -3.221  -9.255   8.865  0.00  0.00    -0.492 OA
ATOM     32  C   UNL     1      -3.117  -8.042   9.467  0.00  0.00    +0.125 A 
ATOM     33  C   UNL     1      -2.668  -6.926   8.785  0.00  0.00    +0.014 A 
ATOM     34  C   UNL     1      -2.573  -5.710   9.442  0.00  0.00    +0.009 A 
ATOM     35  C   UNL     1      -2.925  -5.608  10.774  0.00  0.00    +0.001 A 
ATOM     36  C   UNL     1      -3.376  -6.723  11.457  0.00  0.00    +0.004 A 
ATOM     37  C   UNL     1      -3.473  -7.935  10.808  0.00  0.00    +0.046 A 
ENDBRANCH  26  28
ENDBRANCH  23  24
ENDBRANCH  22  23
ENDBRANCH  20  22
ENDBRANCH   2  20
TORSDOF 8
