REMARK  Name = ZINC08600252
REMARK  6 active torsions:
REMARK  status: ('A' for Active; 'I' for Inactive)
REMARK    1  A    between atoms: C_1  and  C_2
REMARK    2  A    between atoms: C_5  and  C_32
REMARK    3  A    between atoms: C_6  and  N_8
REMARK    4  A    between atoms: C_9  and  C_11
REMARK    5  A    between atoms: N_16  and  S_17
REMARK    6  A    between atoms: S_17  and  C_20
REMARK                            x       y       z     vdW  Elec       q    Type
REMARK                         _______ _______ _______ _____ _____    ______ ____
ROOT
ATOM      1  C   UNL     1       0.280  -2.900   4.854  0.00  0.00    +0.166 C 
ATOM      2  C   UNL     1       1.574  -3.741   4.837  0.00  0.00    +0.031 C 
ATOM      3  C   UNL     1       2.579  -2.847   5.612  0.00  0.00    +0.019 C 
ATOM      4  C   UNL     1       1.660  -2.199   6.678  0.00  0.00    +0.110 C 
ATOM      5  N   UNL     1       0.378  -1.963   5.982  0.00  0.00    -0.165 NA
ENDROOT
BRANCH   1   7
ATOM      6  N   UNL     1       0.052  -2.797   2.393  0.00  0.00    -0.284 N 
ATOM      7  C   UNL     1       0.150  -2.135   3.562  0.00  0.00    +0.236 C 
ATOM      8  O   UNL     1       0.134  -0.922   3.575  0.00  0.00    -0.274 OA
ATOM      9  H   UNL     1      -0.016  -3.765   2.388  0.00  0.00    +0.155 HD
BRANCH   6  15
ATOM     10  C   UNL     1       1.264   1.227  -0.158  0.00  0.00    +0.044 C 
ATOM     11  C   UNL     1       0.628  -0.137  -0.079  0.00  0.00    -0.049 A 
ATOM     12  C   UNL     1       0.039  -0.690  -1.201  0.00  0.00    +0.004 A 
ATOM     13  C   UNL     1      -0.546  -1.941  -1.133  0.00  0.00    +0.005 A 
ATOM     14  C   UNL     1      -0.543  -2.643   0.057  0.00  0.00    -0.029 A 
ATOM     15  C   UNL     1       0.048  -2.090   1.185  0.00  0.00    +0.037 A 
ATOM     16  C   UNL     1       0.639  -0.835   1.112  0.00  0.00    +0.027 A 
ATOM     17  C   UNL     1      -1.181  -4.006   0.131  0.00  0.00    +0.045 C 
ENDBRANCH   6  15
ENDBRANCH   1   7
BRANCH   5  18
ATOM     18  S   UNL     1      -0.757  -0.833   6.400  0.00  0.00    +0.062 S 
ATOM     19  O   UNL     1      -0.075   0.179   7.127  0.00  0.00    -0.153 OA
ATOM     20  O   UNL     1      -1.504  -0.554   5.224  0.00  0.00    -0.153 OA
BRANCH  18  21
ATOM     21  C   UNL     1      -1.868  -1.603   7.531  0.00  0.00    +0.106 A 
ATOM     22  C   UNL     1      -2.990  -2.265   7.066  0.00  0.00    +0.030 A 
ATOM     23  C   UNL     1      -3.843  -2.863   7.960  0.00  0.00    +0.025 A 
ATOM     24  C   UNL     1      -3.605  -2.816   9.345  0.00  0.00    +0.037 A 
ATOM     25  C   UNL     1      -2.488  -2.151   9.803  0.00  0.00    -0.024 A 
ATOM     26  C   UNL     1      -1.623  -1.556   8.884  0.00  0.00    +0.034 A 
ATOM     27  C   UNL     1      -2.105  -2.000  11.239  0.00  0.00    +0.037 C 
ATOM     28  C   UNL     1      -3.239  -1.838  12.202  0.00  0.00    +0.014 C 
ATOM     29  C   UNL     1      -3.948  -3.132  12.519  0.00  0.00    +0.096 C 
ATOM     30  C   UNL     1      -4.793  -3.594  11.386  0.00  0.00    +0.217 C 
ATOM     31  O   UNL     1      -5.835  -4.142  11.678  0.00  0.00    -0.275 OA
ATOM     32  N   UNL     1      -4.537  -3.474  10.114  0.00  0.00    -0.285 N 
ATOM     33  H   UNL     1      -5.163  -3.978   9.571  0.00  0.00    +0.155 HD
ENDBRANCH  18  21
ENDBRANCH   5  18
TORSDOF 4
