REMARK  Name = ZINC45865278
REMARK  6 active torsions:
REMARK  status: ('A' for Active; 'I' for Inactive)
REMARK    1  A    between atoms: C_1  and  C_2
REMARK    2  A    between atoms: C_2  and  N_3
REMARK    3  A    between atoms: N_6  and  C_9
REMARK    4  A    between atoms: C_14  and  N_15
REMARK    5  A    between atoms: C_16  and  C_18
REMARK    6  A    between atoms: C_18  and  N_19
REMARK                            x       y       z     vdW  Elec       q    Type
REMARK                         _______ _______ _______ _____ _____    ______ ____
ROOT
ATOM      1  N   UNL     1       3.337  -2.333  -5.351  0.00  0.00    -0.283 N 
ATOM      2  C   UNL     1       3.333  -2.881  -6.582  0.00  0.00    +0.235 C 
ATOM      3  O   UNL     1       3.861  -3.957  -6.769  0.00  0.00    -0.274 OA
ATOM      4  H   UNL     1       2.846  -1.513  -5.184  0.00  0.00    +0.155 HD
ENDROOT
BRANCH   1  10
ATOM      5  C   UNL     1       3.682  -2.728  -2.986  0.00  0.00    +0.051 A 
ATOM      6  C   UNL     1       4.389  -3.343  -1.964  0.00  0.00    +0.025 A 
ATOM      7  C   UNL     1       5.459  -4.167  -2.261  0.00  0.00    +0.002 A 
ATOM      8  C   UNL     1       5.828  -4.379  -3.577  0.00  0.00    +0.002 A 
ATOM      9  C   UNL     1       5.129  -3.770  -4.602  0.00  0.00    +0.025 A 
ATOM     10  C   UNL     1       4.051  -2.947  -4.313  0.00  0.00    +0.055 A 
BRANCH   5  14
ATOM     11  N   UNL     1       0.701  -0.486  -1.196  0.00  0.00    +0.382 N 
ATOM     12  C   UNL     1       2.105  -0.061  -1.160  0.00  0.00    -0.060 C 
ATOM     13  C   UNL     1       2.791  -0.452  -2.473  0.00  0.00    +0.086 C 
ATOM     14  N   UNL     1       2.599  -1.895  -2.687  0.00  0.00    -0.332 N 
ATOM     15  C   UNL     1       1.235  -2.437  -2.579  0.00  0.00    +0.086 C 
ATOM     16  C   UNL     1       0.624  -1.952  -1.260  0.00  0.00    -0.060 C 
ATOM     17  H   UNL     1       0.253  -0.091  -2.009  0.00  0.00    -0.082 HD
BRANCH  11  19
ATOM     18  C   UNL     1      -0.013   1.515   0.022  0.00  0.00    -0.017 C 
ATOM     19  C   UNL     1       0.017  -0.015   0.016  0.00  0.00    -0.082 C 
ENDBRANCH  11  19
ENDBRANCH   5  14
ENDBRANCH   1  10
BRANCH   2  20
ATOM     20  C   UNL     1       2.671  -2.158  -7.727  0.00  0.00    +0.214 C 
BRANCH  20  21
ATOM     21  N   UNL     1       2.801  -2.955  -8.949  0.00  0.00    -0.215 N 
ATOM     22  C   UNL     1       3.835  -2.858  -9.813  0.00  0.00    +0.251 C 
ATOM     23  O   UNL     1       4.797  -2.125  -9.730  0.00  0.00    -0.272 OA
ATOM     24  C   UNL     1       3.538  -3.857 -10.900  0.00  0.00    +0.138 C 
ATOM     25  C   UNL     1       3.433  -3.174 -12.270  0.00  0.00    +0.045 C 
ATOM     26  C   UNL     1       3.973  -4.266 -13.221  0.00  0.00    +0.038 C 
ATOM     27  C   UNL     1       4.886  -5.121 -12.367  0.00  0.00    -0.042 A 
ATOM     28  C   UNL     1       4.631  -4.884 -11.026  0.00  0.00    -0.012 A 
ATOM     29  C   UNL     1       5.354  -5.564 -10.060  0.00  0.00    +0.006 A 
ATOM     30  C   UNL     1       6.325  -6.474 -10.428  0.00  0.00    +0.000 A 
ATOM     31  C   UNL     1       6.580  -6.709 -11.765  0.00  0.00    +0.000 A 
ATOM     32  C   UNL     1       5.860  -6.034 -12.732  0.00  0.00    +0.004 A 
ATOM     33  N   UNL     1       2.266  -4.463 -10.507  0.00  0.00    -0.281 N 
ATOM     34  C   UNL     1       1.912  -3.875  -9.347  0.00  0.00    +0.310 C 
ATOM     35  O   UNL     1       0.899  -4.147  -8.732  0.00  0.00    -0.252 OA
ATOM     36  H   UNL     1       1.777  -5.152 -10.984  0.00  0.00    +0.152 HD
ENDBRANCH  20  21
ENDBRANCH   2  20
TORSDOF 5
