REMARK  Name = ZINC13598514
REMARK  9 active torsions:
REMARK  status: ('A' for Active; 'I' for Inactive)
REMARK    1  A    between atoms: C_1  and  C_2
REMARK    2  A    between atoms: C_2  and  N_3
REMARK    3  A    between atoms: N_6  and  C_9
REMARK    4  A    between atoms: C_10  and  C_20
REMARK    5  A    between atoms: C_11  and  C_19
REMARK    6  A    between atoms: C_12  and  C_17
REMARK    7  A    between atoms: N_15  and  C_16
REMARK    8  A    between atoms: N_24  and  C_28
REMARK    9  A    between atoms: C_28  and  C_29
REMARK                            x       y       z     vdW  Elec       q    Type
REMARK                         _______ _______ _______ _____ _____    ______ ____
ROOT
ATOM      1  C   UNL     1       0.841  -3.064   4.717  0.00  0.00    +0.111 A 
ATOM      2  C   UNL     1       0.891  -4.439   4.431  0.00  0.00    +0.019 A 
ATOM      3  C   UNL     1       0.334  -5.354   5.339  0.00  0.00    -0.017 A 
ATOM      4  C   UNL     1      -0.255  -4.872   6.505  0.00  0.00    +0.120 A 
ATOM      5  C   UNL     1      -0.280  -3.475   6.746  0.00  0.00    +0.270 A 
ATOM      6  O   UNL     1      -0.794  -3.046   7.765  0.00  0.00    -0.266 OA
ATOM      7  N   UNL     1       0.265  -2.619   5.863  0.00  0.00    -0.298 N 
ATOM      8  C   UNL     1       0.231  -1.181   6.140  0.00  0.00    +0.154 C 
ATOM      9  C   UNL     1       0.374  -6.834   5.057  0.00  0.00    +0.046 C 
ENDROOT
BRANCH   2  10
ATOM     10  C   UNL     1       1.518  -4.913   3.196  0.00  0.00    +0.032 C 
ATOM     11  C   UNL     1       2.643  -5.675   3.253  0.00  0.00    +0.077 C 
ATOM     12  C   UNL     1       3.372  -6.301   2.196  0.00  0.00    +0.259 C 
ATOM     13  O   UNL     1       3.012  -6.195   1.038  0.00  0.00    -0.269 OA
ATOM     14  N   UNL     1       4.449  -6.999   2.513  0.00  0.00    -0.248 N 
ATOM     15  C   UNL     1       4.848  -7.117   3.799  0.00  0.00    +0.121 C 
ATOM     16  S   UNL     1       6.196  -7.962   4.431  0.00  0.00    -0.027 S 
ATOM     17  S   UNL     1       3.617  -6.160   4.672  0.00  0.00    -0.061 S 
BRANCH  14  18
ATOM     18  C   UNL     1       5.221  -7.655   1.455  0.00  0.00    +0.189 C 
BRANCH  18  19
ATOM     19  C   UNL     1       6.283  -6.713   0.951  0.00  0.00    +0.122 A 
ATOM     20  C   UNL     1       7.536  -6.611   1.431  0.00  0.00    +0.046 A 
ATOM     21  C   UNL     1       8.185  -5.611   0.670  0.00  0.00    +0.041 A 
ATOM     22  C   UNL     1       7.291  -5.162  -0.229  0.00  0.00    +0.195 A 
ATOM     23  O   UNL     1       6.143  -5.838  -0.058  0.00  0.00    -0.466 OA
ENDBRANCH  18  19
ENDBRANCH  14  18
ENDBRANCH   2  10
BRANCH   1  27
ATOM     24  N   UNL     1       2.687  -1.166   1.581  0.00  0.00    +0.382 N 
ATOM     25  C   UNL     1       1.356  -1.770   1.434  0.00  0.00    -0.060 C 
ATOM     26  C   UNL     1       0.576  -1.607   2.743  0.00  0.00    +0.088 C 
ATOM     27  N   UNL     1       1.380  -2.170   3.838  0.00  0.00    -0.320 N 
ATOM     28  C   UNL     1       2.781  -1.741   3.961  0.00  0.00    +0.088 C 
ATOM     29  C   UNL     1       3.458  -1.897   2.595  0.00  0.00    -0.060 C 
ATOM     30  H   UNL     1       2.587  -0.203   1.866  0.00  0.00    -0.082 HD
BRANCH  24  32
ATOM     31  C   UNL     1       2.657  -0.360  -0.731  0.00  0.00    -0.017 C 
ATOM     32  C   UNL     1       3.394  -1.224   0.295  0.00  0.00    -0.082 C 
ENDBRANCH  24  32
ENDBRANCH   1  27
BRANCH   4  33
ATOM     33  C   UNL     1      -0.832  -5.779   7.451  0.00  0.00    +0.105 C 
ATOM     34  N   UNL     1      -1.289  -6.498   8.202  0.00  0.00    -0.191 NA
ENDBRANCH   4  33
TORSDOF 6
