REMARK  Name = ZINC06672944
REMARK  2 active torsions:
REMARK  status: ('A' for Active; 'I' for Inactive)
REMARK    1  A    between atoms: C_6  and  N_7
REMARK    2  A    between atoms: C_17  and  C_26
REMARK                            x       y       z     vdW  Elec       q    Type
REMARK                         _______ _______ _______ _____ _____    ______ ____
ROOT
ATOM      1  N   UNL     1      -1.198  -0.721   0.010  0.00  0.00    -0.327 N 
ATOM      2  C   UNL     1      -2.485  -0.022   0.131  0.00  0.00    +0.124 C 
ATOM      3  C   UNL     1      -3.374  -0.424  -1.053  0.00  0.00    +0.126 C 
ATOM      4  N   UNL     1      -3.371  -1.890  -1.165  0.00  0.00    -0.302 N 
ATOM      5  C   UNL     1      -2.083  -2.588  -1.286  0.00  0.00    +0.126 C 
ATOM      6  C   UNL     1      -1.195  -2.185  -0.108  0.00  0.00    +0.124 C 
ATOM      7  C   UNL     1      -4.540  -2.588  -1.157  0.00  0.00    +0.175 C 
ATOM      8  N   UNL     1      -5.692  -1.946  -1.053  0.00  0.00    -0.150 NA
ATOM      9  C   UNL     1      -6.859  -2.574  -1.022  0.00  0.00    +0.258 C 
ATOM     10  O   UNL     1      -7.884  -1.924  -0.951  0.00  0.00    -0.272 OA
ATOM     11  C   UNL     1      -6.941  -4.078  -1.073  0.00  0.00    +0.202 C 
ATOM     12  C   UNL     1      -5.710  -4.616  -1.812  0.00  0.00    +0.058 C 
ATOM     13  N   UNL     1      -4.522  -3.951  -1.263  0.00  0.00    -0.312 N 
ATOM     14  C   UNL     1      -5.599  -6.125  -1.603  0.00  0.00    +0.027 C 
ATOM     15  C   UNL     1      -4.363  -6.653  -2.334  0.00  0.00    +0.002 C 
ATOM     16  C   UNL     1      -4.485  -6.346  -3.828  0.00  0.00    +0.000 C 
ATOM     17  C   UNL     1      -4.588  -4.833  -4.032  0.00  0.00    +0.002 C 
ATOM     18  C   UNL     1      -5.825  -4.304  -3.302  0.00  0.00    +0.027 C 
ATOM     19  H   UNL     1      -3.748  -4.464  -0.982  0.00  0.00    +0.149 HD
ENDROOT
BRANCH   1  25
ATOM     20  C   UNL     1       1.216  -0.679   0.003  0.00  0.00    +0.024 A 
ATOM     21  C   UNL     1       2.400   0.031  -0.005  0.00  0.00    +0.022 A 
ATOM     22  C   UNL     1       2.378   1.415  -0.014  0.00  0.00    +0.041 A 
ATOM     23  C   UNL     1       1.170   2.090  -0.015  0.00  0.00    +0.022 A 
ATOM     24  C   UNL     1      -0.017   1.385  -0.007  0.00  0.00    +0.024 A 
ATOM     25  C   UNL     1       0.002  -0.004   0.002  0.00  0.00    +0.030 A 
ATOM     26 CL   UNL     1       3.869   2.305  -0.025  0.00  0.00    -0.084 Cl
ENDBRANCH   1  25
BRANCH  11  27
ATOM     27  C   UNL     1      -6.971  -4.617   0.296  0.00  0.00    +0.077 C 
ATOM     28  N   UNL     1      -6.995  -5.034   1.353  0.00  0.00    -0.196 NA
ENDBRANCH  11  27
TORSDOF 2
