REMARK  Name = ZINC45898917
REMARK  7 active torsions:
REMARK  status: ('A' for Active; 'I' for Inactive)
REMARK    1  A    between atoms: C_1  and  C_2
REMARK    2  A    between atoms: C_2  and  C_4
REMARK    3  A    between atoms: C_2  and  S_18
REMARK    4  A    between atoms: N_9  and  C_10
REMARK    5  A    between atoms: C_13  and  C_16
REMARK    6  A    between atoms: S_18  and  C_19
REMARK    7  A    between atoms: N_28  and  C_29
REMARK                            x       y       z     vdW  Elec       q    Type
REMARK                         _______ _______ _______ _____ _____    ______ ____
ROOT
ATOM      1  C   UNL     1      -1.410  -0.529   0.014  0.00  0.00    +0.234 C 
ATOM      2  O   UNL     1      -1.929  -0.895  -1.019  0.00  0.00    -0.274 OA
ATOM      3  N   UNL     1      -2.101  -0.580   1.170  0.00  0.00    -0.239 N 
ATOM      4  C   UNL     1      -3.368  -1.039   1.178  0.00  0.00    +0.310 C 
ATOM      5  O   UNL     1      -3.888  -1.407   0.143  0.00  0.00    -0.252 OA
ATOM      6  N   UNL     1      -4.059  -1.091   2.334  0.00  0.00    -0.269 N 
ATOM      7  H   UNL     1      -1.686  -0.287   1.996  0.00  0.00    +0.159 HD
ATOM      8  H   UNL     1      -3.623  -0.861   3.170  0.00  0.00    +0.156 HD
ENDROOT
BRANCH   6   9
ATOM      9  C   UNL     1      -5.400  -1.475   2.329  0.00  0.00    +0.035 A 
ATOM     10  C   UNL     1      -5.841  -2.445   1.434  0.00  0.00    +0.024 A 
ATOM     11  C   UNL     1      -7.164  -2.826   1.426  0.00  0.00    +0.020 A 
ATOM     12  C   UNL     1      -8.065  -2.237   2.318  0.00  0.00    +0.052 A 
ATOM     13  C   UNL     1      -7.619  -1.262   3.216  0.00  0.00    +0.020 A 
ATOM     14  C   UNL     1      -6.293  -0.890   3.222  0.00  0.00    +0.024 A 
BRANCH  12  15
ATOM     15  C   UNL     1      -9.442  -2.630   2.312  0.00  0.00    +0.099 C 
ATOM     16  N   UNL     1     -10.534  -2.942   2.307  0.00  0.00    -0.191 NA
ENDBRANCH  12  15
ENDBRANCH   6   9
BRANCH   1  18
ATOM     17  C   UNL     1      -0.005   1.515   0.021  0.00  0.00    +0.029 C 
ATOM     18  C   UNL     1       0.007  -0.015   0.005  0.00  0.00    +0.137 C 
BRANCH  18  19
ATOM     19  S   UNL     1       0.851  -0.597  -1.492  0.00  0.00    -0.075 S 
BRANCH  19  20
ATOM     20  C   UNL     1       2.512  -0.048  -1.285  0.00  0.00    +0.173 A 
ATOM     21  N   UNL     1       2.846   0.619  -0.198  0.00  0.00    -0.216 NA
ATOM     22  C   UNL     1       4.090   1.045  -0.015  0.00  0.00    +0.116 A 
ATOM     23  C   UNL     1       5.106   0.811  -0.960  0.00  0.00    +0.072 A 
ATOM     24  C   UNL     1       6.409   1.345  -0.603  0.00  0.00    +0.023 A 
ATOM     25  C   UNL     1       6.553   2.000   0.558  0.00  0.00    +0.048 A 
ATOM     26  S   UNL     1       4.919   1.946   1.269  0.00  0.00    -0.077 S 
ATOM     27  C   UNL     1       4.714   0.087  -2.130  0.00  0.00    +0.263 A 
ATOM     28  O   UNL     1       5.527  -0.162  -3.003  0.00  0.00    -0.267 OA
ATOM     29  N   UNL     1       3.438  -0.322  -2.250  0.00  0.00    -0.290 N 
ATOM     30  C   UNL     1       3.032  -1.070  -3.442  0.00  0.00    +0.154 C 
ENDBRANCH  19  20
ENDBRANCH  18  19
ENDBRANCH   1  18
TORSDOF 5
