REMARK  Name = ZINC06553958
REMARK  7 active torsions:
REMARK  status: ('A' for Active; 'I' for Inactive)
REMARK    1  A    between atoms: C_1  and  N_2
REMARK    2  A    between atoms: N_7  and  C_10
REMARK    3  A    between atoms: N_11  and  C_23
REMARK    4  A    between atoms: N_14  and  N_15
REMARK    5  A    between atoms: C_16  and  C_17
REMARK    6  A    between atoms: C_23  and  C_24
REMARK    7  A    between atoms: C_24  and  C_25
REMARK                            x       y       z     vdW  Elec       q    Type
REMARK                         _______ _______ _______ _____ _____    ______ ____
ROOT
ATOM      1  C   UNL     1       9.921  -2.965  -1.557  0.00  0.00    +0.155 C 
ATOM      2  N   UNL     1       8.947  -1.871  -1.541  0.00  0.00    -0.280 N 
ATOM      3  C   UNL     1       7.590  -2.153  -1.529  0.00  0.00    +0.170 A 
ATOM      4  C   UNL     1       6.686  -1.095  -1.520  0.00  0.00    +0.153 A 
ATOM      5  C   UNL     1       7.173   0.224  -1.525  0.00  0.00    +0.282 A 
ATOM      6  O   UNL     1       6.400   1.166  -1.514  0.00  0.00    -0.265 OA
ATOM      7  N   UNL     1       8.506   0.436  -1.542  0.00  0.00    -0.262 N 
ATOM      8  C   UNL     1       9.370  -0.593  -1.554  0.00  0.00    +0.333 A 
ATOM      9  O   UNL     1      10.564  -0.364  -1.570  0.00  0.00    -0.246 OA
ATOM     10  C   UNL     1       9.018   1.808  -1.547  0.00  0.00    +0.157 C 
ATOM     11  N   UNL     1       5.420  -1.663  -1.505  0.00  0.00    -0.305 N 
ATOM     12  C   UNL     1       5.596  -3.012  -1.515  0.00  0.00    +0.218 A 
ATOM     13  N   UNL     1       6.885  -3.285  -1.529  0.00  0.00    -0.195 NA
ATOM     14  N   UNL     1       4.584  -3.946  -1.510  0.00  0.00    -0.206 N 
ATOM     15  H   UNL     1       3.658  -3.658  -1.499  0.00  0.00    +0.177 HD
ENDROOT
BRANCH  14  16
ATOM     16  N   UNL     1       4.893  -5.312  -1.522  0.00  0.00    -0.188 NA
ATOM     17  C   UNL     1       3.940  -6.193  -1.517  0.00  0.00    +0.139 C 
BRANCH  17  18
ATOM     18  C   UNL     1       4.264  -7.631  -1.529  0.00  0.00    +0.013 A 
ATOM     19  C   UNL     1       3.245  -8.592  -1.519  0.00  0.00    +0.012 A 
ATOM     20  C   UNL     1       3.603  -9.928  -1.536  0.00  0.00    +0.020 A 
ATOM     21  C   UNL     1       4.944 -10.270  -1.552  0.00  0.00    +0.111 A 
ATOM     22  N   UNL     1       5.883  -9.344  -1.556  0.00  0.00    -0.263 NA
ATOM     23  C   UNL     1       5.594  -8.059  -1.545  0.00  0.00    +0.120 A 
ENDBRANCH  17  18
ENDBRANCH  14  16
BRANCH  11  24
ATOM     24  C   UNL     1       4.142  -0.948  -1.488  0.00  0.00    +0.130 C 
BRANCH  24  25
ATOM     25  C   UNL     1       3.711  -0.707  -0.039  0.00  0.00    +0.057 C 
BRANCH  25  26
ATOM     26  C   UNL     1       2.396   0.029  -0.022  0.00  0.00    -0.046 A 
ATOM     27  C   UNL     1       1.208  -0.679  -0.014  0.00  0.00    +0.004 A 
ATOM     28  C   UNL     1       0.002  -0.004   0.002  0.00  0.00    +0.000 A 
ATOM     29  C   UNL     1      -0.017   1.378   0.010  0.00  0.00    +0.000 A 
ATOM     30  C   UNL     1       1.171   2.086   0.002  0.00  0.00    +0.000 A 
ATOM     31  C   UNL     1       2.377   1.411  -0.014  0.00  0.00    +0.004 A 
ENDBRANCH  25  26
ENDBRANCH  24  25
ENDBRANCH  11  24
TORSDOF 5
