REMARK  Name = ZINC09443390
REMARK  9 active torsions:
REMARK  status: ('A' for Active; 'I' for Inactive)
REMARK    1  A    between atoms: C_1  and  C_2
REMARK    2  A    between atoms: N_4  and  C_11
REMARK    3  A    between atoms: C_15  and  C_21
REMARK    4  A    between atoms: C_17  and  O_20
REMARK    5  A    between atoms: C_21  and  O_22
REMARK    6  A    between atoms: O_22  and  C_23
REMARK    7  A    between atoms: C_23  and  C_24
REMARK    8  A    between atoms: C_23  and  C_30
REMARK    9  A    between atoms: C_23  and  C_36
REMARK                            x       y       z     vdW  Elec       q    Type
REMARK                         _______ _______ _______ _____ _____    ______ ____
ROOT
ATOM      1  O   UNL     1       0.635   6.324  -0.521  0.00  0.00    -0.359 OA
ENDROOT
BRANCH   1   2
ATOM      2  C   UNL     1       1.882   6.081   0.133  0.00  0.00    +0.168 C 
BRANCH   2   6
ATOM      3  C   UNL     1       5.398   8.300  -1.069  0.00  0.00    +0.094 C 
ATOM      4  C   UNL     1       4.110   8.500  -1.869  0.00  0.00    +0.026 C 
ATOM      5  C   UNL     1       3.162   7.326  -1.614  0.00  0.00    +0.010 C 
ATOM      6  C   UNL     1       2.830   7.255  -0.122  0.00  0.00    +0.043 C 
ATOM      7  C   UNL     1       4.118   7.054   0.678  0.00  0.00    +0.122 C 
ATOM      8  C   UNL     1       5.065   8.228   0.423  0.00  0.00    +0.057 C 
BRANCH   3  12
ATOM      9  C   UNL     1       5.246   3.400  -1.601  0.00  0.00    +0.051 C 
ATOM     10  C   UNL     1       5.968   4.716  -1.738  0.00  0.00    +0.030 A 
ATOM     11  C   UNL     1       5.375   5.865  -1.349  0.00  0.00    +0.099 A 
ATOM     12  N   UNL     1       6.043   7.052  -1.486  0.00  0.00    -0.297 N 
ATOM     13  C   UNL     1       7.288   7.083  -1.995  0.00  0.00    +0.330 A 
ATOM     14  O   UNL     1       7.865   8.148  -2.103  0.00  0.00    -0.246 OA
ATOM     15  N   UNL     1       7.904   5.952  -2.385  0.00  0.00    -0.275 N 
ATOM     16  H   UNL     1       8.829   5.993  -2.762  0.00  0.00    +0.173 HD
ATOM     17  C   UNL     1       7.278   4.763  -2.272  0.00  0.00    +0.257 A 
ATOM     18  O   UNL     1       7.835   3.739  -2.625  0.00  0.00    -0.267 OA
ENDBRANCH   3  12
BRANCH   7  19
ATOM     19  O   UNL     1       3.807   6.987   2.072  0.00  0.00    -0.391 OA
ATOM     20  H   UNL     1       4.578   6.861   2.641  0.00  0.00    +0.210 HD
ENDBRANCH   7  19
ENDBRANCH   2   6
ENDBRANCH   1   2
BRANCH   1  21
ATOM     21  C   UNL     1      -0.341   5.303  -0.309  0.00  0.00    +0.144 C 
BRANCH  21  22
ATOM     22  C   UNL     1       0.226   3.971  -0.728  0.00  0.00    -0.007 A 
ATOM     23  C   UNL     1       1.137   3.321   0.084  0.00  0.00    +0.007 A 
ATOM     24  C   UNL     1       1.657   2.099  -0.300  0.00  0.00    +0.000 A 
ATOM     25  C   UNL     1       1.266   1.527  -1.496  0.00  0.00    +0.000 A 
ATOM     26  C   UNL     1       0.360   2.179  -2.311  0.00  0.00    +0.000 A 
ATOM     27  C   UNL     1      -0.164   3.398  -1.925  0.00  0.00    +0.007 A 
ENDBRANCH  21  22
BRANCH  21  28
ATOM     28  C   UNL     1      -1.570   5.605  -1.128  0.00  0.00    -0.007 A 
ATOM     29  C   UNL     1      -2.709   4.837  -0.973  0.00  0.00    +0.007 A 
ATOM     30  C   UNL     1      -3.838   5.118  -1.720  0.00  0.00    +0.000 A 
ATOM     31  C   UNL     1      -3.824   6.159  -2.630  0.00  0.00    +0.000 A 
ATOM     32  C   UNL     1      -2.683   6.923  -2.788  0.00  0.00    +0.000 A 
ATOM     33  C   UNL     1      -1.556   6.646  -2.037  0.00  0.00    +0.007 A 
ENDBRANCH  21  28
BRANCH  21  34
ATOM     34  C   UNL     1      -0.710   5.255   1.151  0.00  0.00    -0.007 A 
ATOM     35  C   UNL     1      -1.109   4.062   1.724  0.00  0.00    +0.007 A 
ATOM     36  C   UNL     1      -1.442   4.017   3.065  0.00  0.00    +0.000 A 
ATOM     37  C   UNL     1      -1.386   5.167   3.830  0.00  0.00    +0.000 A 
ATOM     38  C   UNL     1      -0.992   6.361   3.256  0.00  0.00    +0.000 A 
ATOM     39  C   UNL     1      -0.654   6.405   1.916  0.00  0.00    +0.007 A 
ENDBRANCH  21  34
ENDBRANCH   1  21
TORSDOF 8
