REMARK  Name = ZINC02514140
REMARK  7 active torsions:
REMARK  status: ('A' for Active; 'I' for Inactive)
REMARK    1  A    between atoms: C_1  and  C_2
REMARK    2  A    between atoms: C_2  and  C_3
REMARK    3  A    between atoms: C_2  and  C_4
REMARK    4  A    between atoms: C_2  and  C_5
REMARK    5  A    between atoms: C_5  and  C_6
REMARK    6  A    between atoms: C_6  and  C_8
REMARK    7  A    between atoms: C_11  and  C_14
REMARK                            x       y       z     vdW  Elec       q    Type
REMARK                         _______ _______ _______ _____ _____    ______ ____
ROOT
ATOM      1  C   UNL     1       3.033  -0.313  -2.382  0.00  0.00    +0.017 A 
ATOM      2  C   UNL     1       2.575  -1.113  -3.434  0.00  0.00    +0.012 A 
ATOM      3  C   UNL     1       3.418  -1.428  -4.476  0.00  0.00    +0.019 A 
ATOM      4  C   UNL     1       4.730  -0.949  -4.483  0.00  0.00    +0.052 A 
ATOM      5  C   UNL     1       5.189  -0.150  -3.432  0.00  0.00    +0.019 A 
ATOM      6  C   UNL     1       4.345   0.171  -2.393  0.00  0.00    +0.012 A 
ENDROOT
BRANCH   1   7
ATOM      7  C   UNL     1       2.132   0.024  -1.268  0.00  0.00    +0.164 C 
ATOM      8  O   UNL     1       2.528   0.722  -0.358  0.00  0.00    -0.292 OA
BRANCH   7   9
ATOM      9  C   UNL     1       0.718  -0.497  -1.257  0.00  0.00    +0.085 C 
BRANCH   9  11
ATOM     10  C   UNL     1      -0.019   1.526   0.010  0.00  0.00    +0.011 C 
ATOM     11  C   UNL     1       0.002  -0.004   0.002  0.00  0.00    -0.031 C 
ATOM     12  C   UNL     1       0.742  -0.511   1.242  0.00  0.00    +0.011 C 
ATOM     13  C   UNL     1      -1.433  -0.534   0.013  0.00  0.00    +0.011 C 
ENDBRANCH   9  11
ENDBRANCH   7   9
ENDBRANCH   1   7
BRANCH   4  14
ATOM     14  C   UNL     1       5.606  -1.277  -5.567  0.00  0.00    +0.099 C 
ATOM     15  N   UNL     1       6.301  -1.538  -6.427  0.00  0.00    -0.191 NA
ENDBRANCH   4  14
TORSDOF 4
