REMARK  Name = ZINC38778013
REMARK  9 active torsions:
REMARK  status: ('A' for Active; 'I' for Inactive)
REMARK    1  A    between atoms: C_1  and  N_2
REMARK    2  A    between atoms: N_2  and  C_3
REMARK    3  A    between atoms: N_2  and  S_4
REMARK    4  A    between atoms: S_4  and  C_7
REMARK    5  A    between atoms: C_10  and  C_13
REMARK    6  A    between atoms: N_15  and  C_16
REMARK    7  A    between atoms: C_16  and  C_17
REMARK    8  A    between atoms: C_17  and  N_18
REMARK    9  A    between atoms: C_29  and  N_33
REMARK                            x       y       z     vdW  Elec       q    Type
REMARK                         _______ _______ _______ _____ _____    ______ ____
ROOT
ATOM      1  N   UNL     1       9.708  -4.449  -2.849  0.00  0.00    +0.383 N 
ATOM      2  C   UNL     1      10.536  -3.404  -2.234  0.00  0.00    -0.059 C 
ATOM      3  C   UNL     1      11.979  -3.539  -2.732  0.00  0.00    +0.088 C 
ATOM      4  N   UNL     1      12.437  -4.911  -2.467  0.00  0.00    -0.313 N 
ATOM      5  C   UNL     1      11.582  -6.025  -2.907  0.00  0.00    +0.088 C 
ATOM      6  C   UNL     1      10.158  -5.773  -2.401  0.00  0.00    -0.059 C 
ATOM      7  C   UNL     1      13.635  -5.148  -1.824  0.00  0.00    +0.162 A 
ATOM      8  N   UNL     1      14.508  -4.281  -1.364  0.00  0.00    -0.225 NA
ATOM      9  C   UNL     1      15.651  -4.659  -0.749  0.00  0.00    +0.080 A 
ATOM     10  C   UNL     1      16.667  -3.835  -0.212  0.00  0.00    +0.031 A 
ATOM     11  C   UNL     1      17.772  -4.384   0.384  0.00  0.00    +0.035 A 
ATOM     12  C   UNL     1      17.935  -5.758   0.483  0.00  0.00    +0.127 A 
ATOM     13  C   UNL     1      16.960  -6.594  -0.032  0.00  0.00    +0.050 A 
ATOM     14  C   UNL     1      15.850  -6.053  -0.630  0.00  0.00    +0.043 A 
ATOM     15  S   UNL     1      14.390  -6.711  -1.399  0.00  0.00    -0.052 S 
ATOM     16  H   UNL     1       9.787  -4.390  -3.853  0.00  0.00    -0.082 HD
ENDROOT
BRANCH  12  17
ATOM     17  N   UNL     1      19.139  -6.324   1.131  0.00  0.00    +0.056 N 
ATOM     18  O   UNL     1      19.987  -5.587   1.578  0.00  0.00    -0.126 OA
ATOM     19  O   UNL     1      19.274  -7.522   1.214  0.00  0.00    -0.126 OA
ENDBRANCH  12  17
BRANCH   1  20
ATOM     20  C   UNL     1       8.305  -4.253  -2.458  0.00  0.00    -0.060 C 
BRANCH  20  21
ATOM     21  C   UNL     1       7.796  -2.929  -3.031  0.00  0.00    +0.086 C 
BRANCH  21  24
ATOM     22  C   UNL     1       5.737  -1.626  -3.035  0.00  0.00    +0.244 C 
ATOM     23  O   UNL     1       6.301  -0.791  -3.714  0.00  0.00    -0.270 OA
ATOM     24  N   UNL     1       6.398  -2.733  -2.641  0.00  0.00    -0.313 N 
ATOM     25  H   UNL     1       5.948  -3.400  -2.099  0.00  0.00    +0.149 HD
BRANCH  22  29
ATOM     26  C   UNL     1       1.682  -1.059  -1.905  0.00  0.00    +0.105 A 
ATOM     27  C   UNL     1       2.321  -0.106  -2.678  0.00  0.00    +0.029 A 
ATOM     28  C   UNL     1       3.638  -0.284  -3.048  0.00  0.00    +0.015 A 
ATOM     29  C   UNL     1       4.326  -1.429  -2.642  0.00  0.00    +0.037 A 
ATOM     30  C   UNL     1       3.675  -2.386  -1.862  0.00  0.00    +0.015 A 
ATOM     31  C   UNL     1       2.359  -2.194  -1.494  0.00  0.00    +0.029 A 
BRANCH  26  32
ATOM     32  S   UNL     1      -0.000  -0.824  -1.437  0.00  0.00    +0.060 S 
ATOM     33  O   UNL     1      -0.531  -2.115  -1.167  0.00  0.00    -0.153 OA
ATOM     34  O   UNL     1      -0.572   0.049  -2.401  0.00  0.00    -0.153 OA
BRANCH  32  36
ATOM     35  C   UNL     1      -0.018   1.461   0.010  0.00  0.00    +0.131 C 
ATOM     36  N   UNL     1       0.002  -0.004   0.002  0.00  0.00    -0.183 NA
ATOM     37  C   UNL     1       0.024  -0.743   1.267  0.00  0.00    +0.131 C 
ENDBRANCH  32  36
ENDBRANCH  26  32
ENDBRANCH  22  29
ENDBRANCH  21  24
ENDBRANCH  20  21
ENDBRANCH   1  20
TORSDOF 7
