REMARK  Name = ZINC07889706
REMARK  3 active torsions:
REMARK  status: ('A' for Active; 'I' for Inactive)
REMARK    1  A    between atoms: N_9  and  C_22
REMARK    2  A    between atoms: C_10  and  C_13
REMARK    3  A    between atoms: C_16  and  N_19
REMARK                            x       y       z     vdW  Elec       q    Type
REMARK                         _______ _______ _______ _____ _____    ______ ____
ROOT
ATOM      1  C   UNL     1       1.378  -4.825   4.784  0.00  0.00    +0.001 A 
ATOM      2  C   UNL     1       2.550  -4.619   4.073  0.00  0.00    +0.002 A 
ATOM      3  C   UNL     1       2.533  -4.560   2.693  0.00  0.00    +0.024 A 
ATOM      4  C   UNL     1       1.335  -4.706   2.015  0.00  0.00    +0.041 A 
ATOM      5  C   UNL     1       0.143  -4.907   2.732  0.00  0.00    +0.058 A 
ATOM      6  C   UNL     1       0.175  -4.970   4.124  0.00  0.00    +0.015 A 
ATOM      7  C   UNL     1      -1.118  -5.042   1.982  0.00  0.00    +0.250 C 
ATOM      8  O   UNL     1      -2.137  -5.385   2.551  0.00  0.00    -0.270 OA
ATOM      9  N   UNL     1      -1.132  -4.780   0.660  0.00  0.00    -0.272 N 
ATOM     10  C   UNL     1       0.031  -4.196  -0.008  0.00  0.00    +0.193 C 
ATOM     11  N   UNL     1       1.269  -4.662   0.627  0.00  0.00    -0.321 N 
ATOM     12  H   UNL     1       2.029  -4.933   0.088  0.00  0.00    +0.148 HD
ENDROOT
BRANCH  10  13
ATOM     13  C   UNL     1      -0.043  -2.694   0.084  0.00  0.00    -0.009 A 
ATOM     14  C   UNL     1       1.119  -1.944   0.100  0.00  0.00    +0.009 A 
ATOM     15  C   UNL     1       1.051  -0.566   0.184  0.00  0.00    +0.033 A 
ATOM     16  C   UNL     1      -0.178   0.063   0.252  0.00  0.00    +0.126 A 
ATOM     17  C   UNL     1      -1.339  -0.687   0.242  0.00  0.00    +0.033 A 
ATOM     18  C   UNL     1      -1.272  -2.065   0.152  0.00  0.00    +0.009 A 
BRANCH  16  19
ATOM     19  N   UNL     1      -0.250   1.538   0.342  0.00  0.00    +0.056 N 
ATOM     20  O   UNL     1       0.773   2.199   0.357  0.00  0.00    -0.126 OA
ATOM     21  O   UNL     1      -1.333   2.093   0.397  0.00  0.00    -0.126 OA
ENDBRANCH  16  19
ENDBRANCH  10  13
BRANCH   9  22
ATOM     22  C   UNL     1      -2.333  -5.085  -0.122  0.00  0.00    +0.079 C 
ATOM     23  C   UNL     1      -2.971  -6.462   0.072  0.00  0.00    +0.024 C 
ATOM     24  C   UNL     1      -2.212  -6.145  -1.218  0.00  0.00    +0.024 C 
ENDBRANCH   9  22
TORSDOF 3
