REMARK  Name = ZINC00995816
REMARK  4 active torsions:
REMARK  status: ('A' for Active; 'I' for Inactive)
REMARK    1  A    between atoms: C_6  and  C_7
REMARK    2  A    between atoms: C_9  and  C_28
REMARK    3  A    between atoms: C_10  and  N_27
REMARK    4  A    between atoms: N_11  and  C_19
REMARK                            x       y       z     vdW  Elec       q    Type
REMARK                         _______ _______ _______ _____ _____    ______ ____
ROOT
ATOM      1  C   UNL     1       1.148   3.596   0.010  0.00  0.00    +0.097 C 
ATOM      2  C   UNL     1       1.825   4.092   1.254  0.00  0.00    +0.077 C 
ATOM      3  C   UNL     1       3.091   4.581   1.216  0.00  0.00    +0.107 C 
ATOM      4  N   UNL     1       3.775   4.635   0.023  0.00  0.00    -0.257 N 
ATOM      5  C   UNL     1       3.102   4.587  -1.169  0.00  0.00    +0.025 C 
ATOM      6  C   UNL     1       1.841   4.107  -1.228  0.00  0.00    +0.025 C 
ATOM      7  C   UNL     1       1.135   4.071  -2.443  0.00  0.00    +0.162 C 
ATOM      8  O   UNL     1       0.006   3.624  -2.464  0.00  0.00    -0.292 OA
ATOM      9  C   UNL     1       1.753   4.576  -3.719  0.00  0.00    +0.080 C 
ATOM     10  C   UNL     1       2.773   5.668  -3.381  0.00  0.00    +0.014 C 
ATOM     11  C   UNL     1       3.802   5.087  -2.409  0.00  0.00    +0.052 C 
ENDROOT
BRANCH   1  17
ATOM     12  C   UNL     1       2.379   1.418  -0.013  0.00  0.00    +0.008 A 
ATOM     13  C   UNL     1       2.405   0.035  -0.021  0.00  0.00    +0.050 A 
ATOM     14  C   UNL     1       1.220  -0.680  -0.013  0.00  0.00    +0.166 A 
ATOM     15  C   UNL     1       0.002  -0.004   0.002  0.00  0.00    +0.167 A 
ATOM     16  C   UNL     1      -0.017   1.381   0.010  0.00  0.00    +0.054 A 
ATOM     17  C   UNL     1       1.171   2.089   0.002  0.00  0.00    -0.031 A 
ATOM     18  O   UNL     1      -1.007  -0.923   0.006  0.00  0.00    -0.453 OA
ATOM     19  C   UNL     1      -0.396  -2.164   0.406  0.00  0.00    +0.466 C 
ATOM     20  O   UNL     1       0.973  -2.023  -0.019  0.00  0.00    -0.453 OA
ENDBRANCH   1  17
BRANCH   4  21
ATOM     21  C   UNL     1       5.172   4.740   0.028  0.00  0.00    +0.075 A 
ATOM     22  C   UNL     1       5.776   5.991   0.027  0.00  0.00    +0.028 A 
ATOM     23  C   UNL     1       7.153   6.092   0.037  0.00  0.00    +0.017 A 
ATOM     24  C   UNL     1       7.933   4.949   0.036  0.00  0.00    +0.021 A 
ATOM     25  C   UNL     1       7.336   3.701   0.031  0.00  0.00    +0.055 A 
ATOM     26  C   UNL     1       5.958   3.593   0.027  0.00  0.00    +0.146 A 
ATOM     27  F   UNL     1       5.375   2.374   0.021  0.00  0.00    -0.203 F 
ATOM     28 BR   UNL     1       9.819   5.094   0.043  0.00  0.00    -0.050 Br
ENDBRANCH   4  21
BRANCH   3  29
ATOM     29  N   UNL     1       3.691   5.022   2.371  0.00  0.00    -0.345 N 
ATOM     30  H   UNL     1       4.595   5.372   2.345  0.00  0.00    +0.144 HD
ATOM     31  H   UNL     1       3.209   4.984   3.213  0.00  0.00    +0.144 HD
ENDBRANCH   3  29
BRANCH   2  32
ATOM     32  C   UNL     1       1.123   4.050   2.502  0.00  0.00    +0.099 C 
ATOM     33  N   UNL     1       0.567   4.016   3.491  0.00  0.00    -0.191 NA
ENDBRANCH   2  32
TORSDOF 4
