REMARK  Name = ZINC39457731
REMARK  10 active torsions:
REMARK  status: ('A' for Active; 'I' for Inactive)
REMARK    1  A    between atoms: C_1  and  C_2
REMARK    2  A    between atoms: C_2  and  O_3
REMARK    3  A    between atoms: O_3  and  C_4
REMARK    4  A    between atoms: C_5  and  C_36
REMARK    5  A    between atoms: N_6  and  C_29
REMARK    6  A    between atoms: C_22  and  S_23
REMARK    7  A    between atoms: S_23  and  C_26
REMARK    8  A    between atoms: C_26  and  C_27
REMARK    9  A    between atoms: C_26  and  C_28
REMARK   10  A    between atoms: C_34  and  O_35
REMARK                            x       y       z     vdW  Elec       q    Type
REMARK                         _______ _______ _______ _____ _____    ______ ____
ROOT
ATOM      1  C   UNL     1       0.201  -3.067   1.788  0.00  0.00    +0.145 A 
ATOM      2  C   UNL     1      -0.548  -4.168   2.055  0.00  0.00    +0.063 A 
ATOM      3  N   UNL     1       0.151  -5.277   1.660  0.00  0.00    -0.305 N 
ATOM      4  C   UNL     1       1.350  -4.869   1.153  0.00  0.00    +0.080 A 
ATOM      5  C   UNL     1       1.395  -3.498   1.201  0.00  0.00    +0.022 A 
ATOM      6  C   UNL     1       2.532  -2.663   0.683  0.00  0.00    +0.049 C 
ATOM      7  C   UNL     1       3.751  -2.760   1.609  0.00  0.00    +0.084 C 
ATOM      8  C   UNL     1       3.946  -4.198   2.033  0.00  0.00    +0.167 C 
ATOM      9  O   UNL     1       4.217  -4.446   3.189  0.00  0.00    -0.292 OA
ATOM     10  C   UNL     1       3.815  -5.295   1.075  0.00  0.00    +0.070 A 
ATOM     11  C   UNL     1       2.470  -5.676   0.635  0.00  0.00    +0.101 A 
ATOM     12  N   UNL     1       2.299  -6.678  -0.195  0.00  0.00    -0.244 NA
ATOM     13  C   UNL     1       3.341  -7.368  -0.676  0.00  0.00    +0.074 A 
ATOM     14  C   UNL     1       3.127  -8.432  -1.572  0.00  0.00    +0.028 A 
ATOM     15  C   UNL     1       4.188  -9.123  -2.071  0.00  0.00    +0.002 A 
ATOM     16  C   UNL     1       5.493  -8.797  -1.708  0.00  0.00    +0.001 A 
ATOM     17  C   UNL     1       5.742  -7.777  -0.841  0.00  0.00    +0.012 A 
ATOM     18  C   UNL     1       4.670  -7.042  -0.303  0.00  0.00    +0.026 A 
ATOM     19  C   UNL     1       4.907  -5.987   0.582  0.00  0.00    +0.110 A 
ATOM     20  C   UNL     1      -1.919  -4.169   2.681  0.00  0.00    +0.068 C 
ENDROOT
BRANCH   3  21
ATOM     21  C   UNL     1      -0.290  -6.604   1.760  0.00  0.00    +0.089 A 
ATOM     22  C   UNL     1      -0.993  -7.184   0.714  0.00  0.00    +0.030 A 
ATOM     23  C   UNL     1      -1.426  -8.492   0.815  0.00  0.00    +0.002 A 
ATOM     24  C   UNL     1      -1.161  -9.226   1.956  0.00  0.00    +0.004 A 
ATOM     25  C   UNL     1      -0.461  -8.655   3.002  0.00  0.00    +0.047 A 
ATOM     26  C   UNL     1      -0.019  -7.346   2.908  0.00  0.00    +0.141 A 
BRANCH  26  27
ATOM     27  O   UNL     1       0.674  -6.784   3.934  0.00  0.00    -0.505 OA
ATOM     28  H   UNL     1       0.117  -6.343   4.590  0.00  0.00    +0.292 HD
ENDBRANCH  26  27
ENDBRANCH   3  21
BRANCH  19  29
ATOM     29  S   UNL     1       6.547  -5.566   1.066  0.00  0.00    +0.001 S 
ATOM     30  O   UNL     1       7.315  -5.671  -0.125  0.00  0.00    -0.169 OA
ATOM     31  O   UNL     1       6.418  -4.320   1.737  0.00  0.00    -0.169 OA
BRANCH  29  32
ATOM     32  C   UNL     1       7.034  -6.860   2.240  0.00  0.00    +0.130 C 
ATOM     33  C   UNL     1       8.466  -6.604   2.716  0.00  0.00    +0.032 C 
ATOM     34  C   UNL     1       6.086  -6.842   3.441  0.00  0.00    +0.032 C 
ENDBRANCH  29  32
ENDBRANCH  19  29
BRANCH   1  35
ATOM     35  O   UNL     1      -0.150  -1.775   2.041  0.00  0.00    -0.490 OA
BRANCH  35  37
ATOM     36  C   UNL     1      -1.161   0.345   1.472  0.00  0.00    +0.048 C 
ATOM     37  C   UNL     1      -0.855  -1.081   1.009  0.00  0.00    +0.226 C 
ENDBRANCH  35  37
ENDBRANCH   1  35
TORSDOF 6
