REMARK  Name = ZINC40427262
REMARK  11 active torsions:
REMARK  status: ('A' for Active; 'I' for Inactive)
REMARK    1  A    between atoms: C_1  and  C_2
REMARK    2  A    between atoms: C_2  and  C_3
REMARK    3  A    between atoms: C_3  and  N_4
REMARK    4  A    between atoms: N_4  and  C_5
REMARK    5  A    between atoms: C_5  and  C_6
REMARK    6  A    between atoms: C_7  and  C_25
REMARK    7  A    between atoms: N_9  and  C_19
REMARK    8  A    between atoms: C_10  and  N_11
REMARK    9  A    between atoms: N_14  and  C_17
REMARK   10  A    between atoms: C_17  and  C_18
REMARK   11  A    between atoms: C_26  and  C_28
REMARK                            x       y       z     vdW  Elec       q    Type
REMARK                         _______ _______ _______ _____ _____    ______ ____
ROOT
ATOM      1  C   UNL     1      -3.129  -3.997   1.606  0.00  0.00    +0.032 A 
ATOM      2  C   UNL     1      -4.305  -3.345   1.989  0.00  0.00    +0.067 A 
ATOM      3  N   UNL     1      -5.290  -4.205   1.942  0.00  0.00    -0.170 NA
ATOM      4  N   UNL     1      -4.780  -5.441   1.527  0.00  0.00    -0.218 N 
ATOM      5  C   UNL     1      -3.444  -5.290   1.318  0.00  0.00    +0.130 A 
ATOM      6  C   UNL     1      -4.418  -1.897   2.390  0.00  0.00    +0.068 C 
ENDROOT
BRANCH   5   7
ATOM      7  N   UNL     1      -2.560  -6.278   0.892  0.00  0.00    -0.318 N 
ATOM      8  C   UNL     1      -1.929  -7.194   1.855  0.00  0.00    +0.088 C 
ATOM      9  C   UNL     1      -2.128  -8.630   1.361  0.00  0.00    -0.060 C 
ATOM     10  N   UNL     1      -1.621  -8.750  -0.012  0.00  0.00    +0.382 N 
ATOM     11  C   UNL     1      -2.416  -7.907  -0.914  0.00  0.00    -0.060 C 
ATOM     12  C   UNL     1      -2.235  -6.439  -0.533  0.00  0.00    +0.088 C 
ATOM     13  H   UNL     1      -0.657  -8.453  -0.040  0.00  0.00    -0.082 HD
BRANCH  10  14
ATOM     14  C   UNL     1      -1.712 -10.150  -0.446  0.00  0.00    -0.082 C 
ATOM     15  C   UNL     1      -1.070 -10.299  -1.827  0.00  0.00    -0.017 C 
ENDBRANCH  10  14
ENDBRANCH   5   7
BRANCH   4  16
ATOM     16  C   UNL     1      -5.516  -6.621   1.351  0.00  0.00    +0.067 A 
ATOM     17  C   UNL     1      -5.376  -7.361   0.184  0.00  0.00    +0.028 A 
ATOM     18  C   UNL     1      -6.102  -8.523   0.014  0.00  0.00    +0.002 A 
ATOM     19  C   UNL     1      -6.967  -8.951   1.004  0.00  0.00    +0.000 A 
ATOM     20  C   UNL     1      -7.109  -8.216   2.167  0.00  0.00    +0.002 A 
ATOM     21  C   UNL     1      -6.381  -7.056   2.345  0.00  0.00    +0.028 A 
ENDBRANCH   4  16
BRANCH   1  22
ATOM     22  C   UNL     1      -1.758  -3.377   1.520  0.00  0.00    +0.148 C 
BRANCH  22  23
ATOM     23  N   UNL     1      -1.500  -2.952   0.142  0.00  0.00    -0.293 N 
ATOM     24  C   UNL     1      -0.753  -3.723  -0.672  0.00  0.00    +0.247 C 
ATOM     25  O   UNL     1      -0.249  -4.745  -0.248  0.00  0.00    -0.270 OA
BRANCH  24  26
ATOM     26  C   UNL     1      -0.546  -3.327  -2.081  0.00  0.00    +0.040 A 
ATOM     27  C   UNL     1      -0.441  -1.978  -2.421  0.00  0.00    +0.033 A 
ATOM     28  C   UNL     1      -0.248  -1.614  -3.739  0.00  0.00    +0.043 A 
ATOM     29  C   UNL     1      -0.160  -2.584  -4.723  0.00  0.00    +0.040 A 
ATOM     30  C   UNL     1      -0.265  -3.925  -4.392  0.00  0.00    +0.043 A 
ATOM     31  C   UNL     1      -0.451  -4.301  -3.076  0.00  0.00    +0.033 A 
ATOM     32 CL   UNL     1      -0.154  -5.135  -5.632  0.00  0.00    -0.083 Cl
ATOM     33 CL   UNL     1      -0.117   0.064  -4.164  0.00  0.00    -0.083 Cl
ENDBRANCH  24  26
BRANCH  23  34
ATOM     34  C   UNL     1      -2.053  -1.688  -0.350  0.00  0.00    +0.108 C 
BRANCH  34  36
ATOM     35  C   UNL     1      -1.804   0.798  -0.320  0.00  0.00    +0.005 C 
ATOM     36  C   UNL     1      -1.226  -0.522   0.194  0.00  0.00    +0.016 C 
ENDBRANCH  34  36
ENDBRANCH  23  34
ENDBRANCH  22  23
ENDBRANCH   1  22
TORSDOF 8
