REMARK  Name = ZINC06135309
REMARK  10 active torsions:
REMARK  status: ('A' for Active; 'I' for Inactive)
REMARK    1  A    between atoms: C_1  and  C_2
REMARK    2  A    between atoms: C_2  and  C_3
REMARK    3  A    between atoms: C_10  and  C_15
REMARK    4  A    between atoms: C_15  and  C_17
REMARK    5  A    between atoms: C_15  and  N_75
REMARK    6  A    between atoms: N_21  and  C_22
REMARK    7  A    between atoms: C_28  and  C_29
REMARK    8  A    between atoms: C_28  and  N_75
REMARK    9  A    between atoms: C_35  and  C_36
REMARK   10  A    between atoms: C_35  and  N_75
REMARK                            x       y       z     vdW  Elec       q    Type
REMARK                         _______ _______ _______ _____ _____    ______ ____
ROOT
ATOM      1  C   UNL     1      -0.943   1.120  -1.926  0.00  0.00    +0.040 C 
ENDROOT
BRANCH   1   9
ATOM      2  C   UNL     1      -0.451   3.645  -7.553  0.00  0.00    -0.047 A 
ATOM      3  C   UNL     1      -1.758   4.107  -7.631  0.00  0.00    +0.005 A 
ATOM      4  C   UNL     1      -2.641   3.897  -6.595  0.00  0.00    +0.026 A 
ATOM      5  C   UNL     1      -2.220   3.217  -5.457  0.00  0.00    +0.049 A 
ATOM      6  C   UNL     1      -0.894   2.751  -5.380  0.00  0.00    -0.001 A 
ATOM      7  C   UNL     1      -0.015   2.975  -6.445  0.00  0.00    +0.013 A 
ATOM      8  C   UNL     1      -0.459   2.042  -4.176  0.00  0.00    +0.017 A 
ATOM      9  C   UNL     1      -1.357   1.850  -3.177  0.00  0.00    +0.011 A 
ATOM     10  C   UNL     1      -2.675   2.338  -3.304  0.00  0.00    +0.251 A 
ATOM     11  O   UNL     1      -3.465   2.159  -2.392  0.00  0.00    -0.268 OA
ATOM     12  N   UNL     1      -3.082   2.994  -4.404  0.00  0.00    -0.322 N 
ATOM     13  H   UNL     1      -4.024   3.326  -4.460  0.00  0.00    +0.169 HD
BRANCH   2  15
ATOM     14  C   UNL     1       0.412   2.719  -9.685  0.00  0.00    +0.009 C 
ATOM     15  C   UNL     1       0.496   3.886  -8.700  0.00  0.00    +0.032 C 
ENDBRANCH   2  15
ENDBRANCH   1   9
BRANCH   1  16
ATOM     16  C   UNL     1      -1.685  -0.189  -1.839  0.00  0.00    +0.143 A 
ATOM     17  N   UNL     1      -2.943  -0.354  -1.508  0.00  0.00    -0.115 NA
ATOM     18  N   UNL     1      -3.203  -1.615  -1.552  0.00  0.00    -0.023 NA
ATOM     19  N   UNL     1      -2.142  -2.259  -1.894  0.00  0.00    -0.044 NA
ATOM     20  N   UNL     1      -1.185  -1.414  -2.080  0.00  0.00    -0.227 N 
BRANCH  20  21
ATOM     21  C   UNL     1       0.189  -1.730  -2.479  0.00  0.00    +0.111 C 
ATOM     22  C   UNL     1       0.177  -2.438  -3.835  0.00  0.00    +0.027 C 
ATOM     23  C   UNL     1       1.611  -2.768  -4.252  0.00  0.00    +0.002 C 
ATOM     24  C   UNL     1       2.249  -3.683  -3.204  0.00  0.00    +0.000 C 
ATOM     25  C   UNL     1       2.262  -2.975  -1.848  0.00  0.00    +0.002 C 
ATOM     26  C   UNL     1       0.827  -2.645  -1.432  0.00  0.00    +0.027 C 
ENDBRANCH  20  21
ENDBRANCH   1  16
BRANCH   1  27
ATOM     27  N   UNL     1      -1.287   1.954  -0.755  0.00  0.00    +0.395 N 
ATOM     28  H   UNL     1      -2.222   2.354  -0.894  0.00  0.00    -0.079 HD
BRANCH  27  29
ATOM     29  C   UNL     1      -1.296   1.126   0.469  0.00  0.00    -0.041 C 
BRANCH  29  30
ATOM     30  C   UNL     1      -1.861   1.942   1.604  0.00  0.00    -0.064 A 
ATOM     31  C   UNL     1      -1.016   2.684   2.409  0.00  0.00    +0.002 A 
ATOM     32  C   UNL     1      -1.534   3.436   3.446  0.00  0.00    +0.000 A 
ATOM     33  C   UNL     1      -2.896   3.439   3.685  0.00  0.00    +0.000 A 
ATOM     34  C   UNL     1      -3.739   2.692   2.884  0.00  0.00    +0.000 A 
ATOM     35  C   UNL     1      -3.222   1.944   1.843  0.00  0.00    +0.002 A 
ENDBRANCH  29  30
ENDBRANCH  27  29
BRANCH  27  36
ATOM     36  C   UNL     1      -0.310   3.054  -0.613  0.00  0.00    -0.040 C 
BRANCH  36  37
ATOM     37  C   UNL     1      -0.608   4.102  -1.655  0.00  0.00    -0.046 A 
ATOM     38  C   UNL     1       0.292   4.349  -2.680  0.00  0.00    +0.005 A 
ATOM     39  C   UNL     1      -0.027   5.319  -3.618  0.00  0.00    +0.020 A 
ATOM     40  C   UNL     1      -1.218   6.009  -3.495  0.00  0.00    +0.111 A 
ATOM     41  N   UNL     1      -2.047   5.752  -2.503  0.00  0.00    -0.263 NA
ATOM     42  C   UNL     1      -1.780   4.833  -1.596  0.00  0.00    +0.112 A 
ENDBRANCH  36  37
ENDBRANCH  27  36
ENDBRANCH   1  27
TORSDOF 9
