REMARK  Name = ZINC20858751
REMARK  9 active torsions:
REMARK  status: ('A' for Active; 'I' for Inactive)
REMARK    1  A    between atoms: C_1  and  C_2
REMARK    2  A    between atoms: C_3  and  C_16
REMARK    3  A    between atoms: N_5  and  C_7
REMARK    4  A    between atoms: C_7  and  C_8
REMARK    5  A    between atoms: N_17  and  N_18
REMARK    6  A    between atoms: C_19  and  C_21
REMARK    7  A    between atoms: C_21  and  C_22
REMARK    8  A    between atoms: C_22  and  N_23
REMARK    9  A    between atoms: N_26  and  C_29
REMARK                            x       y       z     vdW  Elec       q    Type
REMARK                         _______ _______ _______ _____ _____    ______ ____
ROOT
ATOM      1  N   UNL     1       3.111   1.885   4.311  0.00  0.00    -0.207 N 
ATOM      2  C   UNL     1       3.554   2.186   5.548  0.00  0.00    +0.230 C 
ATOM      3  O   UNL     1       2.773   2.565   6.396  0.00  0.00    -0.274 OA
ATOM      4  H   UNL     1       3.818   1.541   3.542  0.00  0.00    +0.177 HD
ENDROOT
BRANCH   1   6
ATOM      5  C   UNL     1       1.323   1.718   2.814  0.00  0.00    +0.143 C 
ATOM      6  N   UNL     1       1.749   2.009   4.005  0.00  0.00    -0.188 NA
BRANCH   5   9
ATOM      7  C   UNL     1      -0.013   1.086   0.008  0.00  0.00    +0.068 C 
ATOM      8  C   UNL     1      -0.718   1.572   1.248  0.00  0.00    +0.070 A 
ATOM      9  C   UNL     1      -0.111   1.849   2.492  0.00  0.00    +0.054 A 
ATOM     10  C   UNL     1      -1.108   2.267   3.350  0.00  0.00    +0.136 A 
ATOM     11  N   UNL     1      -2.266   2.244   2.661  0.00  0.00    -0.248 N 
ATOM     12  N   UNL     1      -1.996   1.815   1.357  0.00  0.00    -0.174 NA
ATOM     13 CL   UNL     1      -0.908   2.734   5.010  0.00  0.00    -0.062 Cl
BRANCH  11  14
ATOM     14  C   UNL     1      -3.583   2.612   3.187  0.00  0.00    +0.180 C 
BRANCH  14  15
ATOM     15  C   UNL     1      -3.821   4.084   2.962  0.00  0.00    -0.026 A 
ATOM     16  C   UNL     1      -3.442   5.000   3.926  0.00  0.00    +0.007 A 
ATOM     17  C   UNL     1      -3.654   6.349   3.719  0.00  0.00    +0.020 A 
ATOM     18  C   UNL     1      -4.256   6.783   2.551  0.00  0.00    +0.041 A 
ATOM     19  C   UNL     1      -4.639   5.866   1.589  0.00  0.00    +0.020 A 
ATOM     20  C   UNL     1      -4.421   4.517   1.795  0.00  0.00    +0.007 A 
ATOM     21 CL   UNL     1      -4.528   8.478   2.292  0.00  0.00    -0.084 Cl
ENDBRANCH  14  15
ENDBRANCH  11  14
ENDBRANCH   5   9
ENDBRANCH   1   6
BRANCH   2  22
ATOM     22  C   UNL     1       5.018   2.052   5.877  0.00  0.00    +0.079 C 
BRANCH  22  23
ATOM     23  C   UNL     1       5.252   2.454   7.335  0.00  0.00    -0.069 C 
BRANCH  23  24
ATOM     24  N   UNL     1       6.679   2.323   7.656  0.00  0.00    +0.382 N 
ATOM     25  C   UNL     1       7.103   0.917   7.612  0.00  0.00    -0.060 C 
ATOM     26  C   UNL     1       8.608   0.832   7.873  0.00  0.00    +0.086 C 
ATOM     27  N   UNL     1       8.911   1.429   9.181  0.00  0.00    -0.333 N 
ATOM     28  C   UNL     1       8.487   2.835   9.225  0.00  0.00    +0.086 C 
ATOM     29  C   UNL     1       6.981   2.921   8.964  0.00  0.00    -0.060 C 
ATOM     30  H   UNL     1       7.248   2.873   6.891  0.00  0.00    -0.082 HD
BRANCH  27  31
ATOM     31  C   UNL     1      10.268   1.305   9.486  0.00  0.00    +0.030 A 
ATOM     32  C   UNL     1      11.023   2.435   9.772  0.00  0.00    +0.023 A 
ATOM     33  C   UNL     1      12.364   2.308  10.078  0.00  0.00    +0.002 A 
ATOM     34  C   UNL     1      12.957   1.059  10.090  0.00  0.00    +0.000 A 
ATOM     35  C   UNL     1      12.209  -0.068   9.801  0.00  0.00    +0.002 A 
ATOM     36  C   UNL     1      10.867   0.051   9.499  0.00  0.00    +0.023 A 
ENDBRANCH  27  31
ENDBRANCH  23  24
ENDBRANCH  22  23
ENDBRANCH   2  22
TORSDOF 8
