REMARK  Name = ZINC11690717
REMARK  10 active torsions:
REMARK  status: ('A' for Active; 'I' for Inactive)
REMARK    1  A    between atoms: C_1  and  C_2
REMARK    2  A    between atoms: C_2  and  O_3
REMARK    3  A    between atoms: O_3  and  C_4
REMARK    4  A    between atoms: C_4  and  C_6
REMARK    5  A    between atoms: C_12  and  C_19
REMARK    6  A    between atoms: N_20  and  C_32
REMARK    7  A    between atoms: N_22  and  C_23
REMARK    8  A    between atoms: C_23  and  C_25
REMARK    9  A    between atoms: C_30  and  C_31
REMARK   10  A    between atoms: C_32  and  C_33
REMARK                            x       y       z     vdW  Elec       q    Type
REMARK                         _______ _______ _______ _____ _____    ______ ____
ROOT
ATOM      1  C   UNL     1      -2.282   5.700  -0.209  0.00  0.00    +0.100 A 
ATOM      2  C   UNL     1      -1.247   4.780  -0.381  0.00  0.00    +0.035 A 
ATOM      3  C   UNL     1      -1.546   3.507  -0.872  0.00  0.00    +0.083 A 
ATOM      4  C   UNL     1      -2.882   3.160  -1.189  0.00  0.00    +0.150 A 
ATOM      5  N   UNL     1      -3.142   1.947  -1.653  0.00  0.00    -0.211 NA
ATOM      6  C   UNL     1      -2.187   1.035  -1.835  0.00  0.00    +0.145 A 
ATOM      7  C   UNL     1      -2.549  -0.230  -2.337  0.00  0.00    -0.007 A 
ATOM      8  C   UNL     1      -1.590  -1.180  -2.526  0.00  0.00    +0.008 A 
ATOM      9  C   UNL     1      -0.253  -0.884  -2.227  0.00  0.00    +0.019 A 
ATOM     10  C   UNL     1       0.078   0.337  -1.749  0.00  0.00    +0.096 A 
ATOM     11  N   UNL     1      -0.874   1.291  -1.552  0.00  0.00    -0.267 N 
ATOM     12  C   UNL     1      -0.502   2.501  -1.073  0.00  0.00    +0.268 A 
ATOM     13  O   UNL     1       0.663   2.745  -0.817  0.00  0.00    -0.267 OA
ATOM     14  C   UNL     1      -3.989  -0.532  -2.661  0.00  0.00    +0.047 C 
ATOM     15  N   UNL     1      -3.886   4.078  -1.014  0.00  0.00    -0.309 N 
ATOM     16  C   UNL     1      -3.610   5.328  -0.534  0.00  0.00    +0.142 A 
ATOM     17  N   UNL     1      -4.598   6.205  -0.371  0.00  0.00    -0.158 NA
ENDROOT
BRANCH   1  18
ATOM     18  C   UNL     1      -1.996   7.045   0.306  0.00  0.00    +0.343 C 
ATOM     19  O   UNL     1      -2.900   7.844   0.454  0.00  0.00    -0.245 OA
BRANCH  18  20
ATOM     20  O   UNL     1      -0.731   7.394   0.614  0.00  0.00    -0.461 OA
BRANCH  20  22
ATOM     21  C   UNL     1       0.965   8.950   1.410  0.00  0.00    +0.048 C 
ATOM     22  C   UNL     1      -0.522   8.740   1.118  0.00  0.00    +0.229 C 
ENDBRANCH  20  22
ENDBRANCH  18  20
ENDBRANCH   1  18
BRANCH  17  23
ATOM     23  C   UNL     1      -5.753   6.038  -1.022  0.00  0.00    +0.269 C 
ATOM     24  O   UNL     1      -5.774   6.056  -2.240  0.00  0.00    -0.268 OA
BRANCH  23  25
ATOM     25  C   UNL     1      -7.008   5.833  -0.263  0.00  0.00    +0.042 A 
ATOM     26  C   UNL     1      -6.973   5.694   1.125  0.00  0.00    +0.013 A 
ATOM     27  C   UNL     1      -8.145   5.502   1.827  0.00  0.00    +0.001 A 
ATOM     28  C   UNL     1      -9.354   5.449   1.157  0.00  0.00    +0.000 A 
ATOM     29  C   UNL     1      -9.396   5.587  -0.219  0.00  0.00    +0.004 A 
ATOM     30  C   UNL     1      -8.231   5.784  -0.931  0.00  0.00    -0.038 A 
ATOM     31  C   UNL     1      -8.279   5.941  -2.429  0.00  0.00    +0.044 C 
ENDBRANCH  23  25
ENDBRANCH  17  23
BRANCH  15  32
ATOM     32  C   UNL     1      -5.267   3.716  -1.344  0.00  0.00    +0.156 C 
BRANCH  32  33
ATOM     33  C   UNL     1      -5.373   2.197  -1.496  0.00  0.00    +0.138 C 
ATOM     34  C   UNL     1      -6.840   1.799  -1.768  0.00  0.00    +0.035 C 
ATOM     35  C   UNL     1      -6.988   0.498  -0.931  0.00  0.00    +0.031 C 
ATOM     36  C   UNL     1      -6.066   0.815   0.274  0.00  0.00    +0.160 C 
ATOM     37  O   UNL     1      -4.968   1.558  -0.280  0.00  0.00    -0.375 OA
ENDBRANCH  32  33
ENDBRANCH  15  32
TORSDOF 7
