REMARK  Name = ZINC39228656
REMARK  4 active torsions:
REMARK  status: ('A' for Active; 'I' for Inactive)
REMARK    1  A    between atoms: C_8  and  C_29
REMARK    2  A    between atoms: N_10  and  C_16
REMARK    3  A    between atoms: C_16  and  C_17
REMARK    4  A    between atoms: N_19  and  C_20
REMARK                            x       y       z     vdW  Elec       q    Type
REMARK                         _______ _______ _______ _____ _____    ______ ____
ROOT
ATOM      1  C   UNL     1      -0.070   1.931  -1.076  0.00  0.00    +0.001 A 
ATOM      2  C   UNL     1       0.040   0.549  -1.017  0.00  0.00    +0.002 A 
ATOM      3  C   UNL     1      -1.076  -0.237  -0.830  0.00  0.00    +0.026 A 
ATOM      4  C   UNL     1      -2.326   0.356  -0.698  0.00  0.00    +0.047 A 
ATOM      5  N   UNL     1      -3.596  -0.145  -0.506  0.00  0.00    -0.359 N 
ATOM      6  C   UNL     1      -4.495   0.879  -0.442  0.00  0.00    +0.011 A 
ATOM      7  H   UNL     1      -3.818  -1.086  -0.428  0.00  0.00    +0.166 HD
ATOM      8  C   UNL     1      -5.989   0.784  -0.238  0.00  0.00    +0.015 C 
ATOM      9  N   UNL     1      -6.488   2.100   0.188  0.00  0.00    +0.394 N 
ATOM     10  C   UNL     1      -6.049   3.140  -0.752  0.00  0.00    -0.072 C 
ATOM     11  C   UNL     1      -4.545   3.393  -0.571  0.00  0.00    +0.019 C 
ATOM     12  C   UNL     1      -3.850   2.055  -0.589  0.00  0.00    -0.022 A 
ATOM     13  C   UNL     1      -2.434   1.760  -0.758  0.00  0.00    +0.003 A 
ATOM     14  C   UNL     1      -1.288   2.536  -0.943  0.00  0.00    +0.010 A 
ATOM     15  H   UNL     1      -6.132   2.310   1.109  0.00  0.00    -0.080 HD
ENDROOT
BRANCH   8  16
ATOM     16  C   UNL     1      -6.291  -0.244   0.822  0.00  0.00    -0.008 A 
ATOM     17  C   UNL     1      -6.578   0.159   2.113  0.00  0.00    +0.026 A 
ATOM     18  C   UNL     1      -6.856  -0.782   3.088  0.00  0.00    +0.045 A 
ATOM     19  C   UNL     1      -6.847  -2.130   2.776  0.00  0.00    +0.069 A 
ATOM     20  C   UNL     1      -6.559  -2.539   1.484  0.00  0.00    +0.168 A 
ATOM     21  C   UNL     1      -6.285  -1.591   0.501  0.00  0.00    +0.168 A 
ATOM     22  O   UNL     1      -6.042  -2.241  -0.675  0.00  0.00    -0.452 OA
ATOM     23  C   UNL     1      -5.775  -3.608  -0.311  0.00  0.00    +0.466 C 
ATOM     24  O   UNL     1      -6.486  -3.782   0.924  0.00  0.00    -0.453 OA
ATOM     25 CL   UNL     1      -7.217  -0.270   4.707  0.00  0.00    -0.083 Cl
ENDBRANCH   8  16
BRANCH   9  26
ATOM     26  C   UNL     1      -7.956   2.073   0.233  0.00  0.00    +0.020 C 
BRANCH  26  27
ATOM     27  C   UNL     1      -8.466   3.378   0.786  0.00  0.00    +0.201 C 
ATOM     28  O   UNL     1      -7.684   4.246   1.112  0.00  0.00    -0.278 OA
ATOM     29  N   UNL     1      -9.792   3.582   0.919  0.00  0.00    -0.287 N 
ATOM     30  H   UNL     1     -10.420   2.920   0.589  0.00  0.00    +0.155 HD
BRANCH  29  31
ATOM     31  C   UNL     1     -10.263   4.749   1.535  0.00  0.00    +0.037 A 
ATOM     32  C   UNL     1     -11.458   5.320   1.118  0.00  0.00    +0.027 A 
ATOM     33  C   UNL     1     -11.924   6.470   1.725  0.00  0.00    +0.051 A 
ATOM     34  C   UNL     1     -11.201   7.058   2.751  0.00  0.00    +0.166 A 
ATOM     35  C   UNL     1     -10.002   6.487   3.171  0.00  0.00    +0.168 A 
ATOM     36  C   UNL     1      -9.539   5.330   2.566  0.00  0.00    +0.072 A 
ATOM     37  O   UNL     1      -9.489   7.246   4.183  0.00  0.00    -0.453 OA
ATOM     38  C   UNL     1     -10.174   8.510   4.101  0.00  0.00    +0.466 C 
ATOM     39  O   UNL     1     -11.438   8.175   3.499  0.00  0.00    -0.453 OA
ENDBRANCH  29  31
ENDBRANCH  26  27
ENDBRANCH   9  26
TORSDOF 4
