REMARK  Name = ZINC11612448
REMARK  5 active torsions:
REMARK  status: ('A' for Active; 'I' for Inactive)
REMARK    1  A    between atoms: C_1  and  C_2
REMARK    2  A    between atoms: C_7  and  C_23
REMARK    3  A    between atoms: C_8  and  N_13
REMARK    4  A    between atoms: C_14  and  C_16
REMARK    5  A    between atoms: C_16  and  C_17
REMARK                            x       y       z     vdW  Elec       q    Type
REMARK                         _______ _______ _______ _____ _____    ______ ____
ROOT
ATOM      1  C   UNL     1      -2.697   6.926  -8.949  0.00  0.00    +0.045 C 
ATOM      2  C   UNL     1      -2.526   5.447  -8.721  0.00  0.00    -0.034 A 
ATOM      3  C   UNL     1      -3.041   4.531  -9.650  0.00  0.00    +0.008 A 
ATOM      4  C   UNL     1      -2.883   3.195  -9.437  0.00  0.00    +0.047 A 
ATOM      5  C   UNL     1      -2.203   2.753  -8.286  0.00  0.00    +0.141 A 
ATOM      6  N   UNL     1      -2.049   1.448  -8.077  0.00  0.00    -0.232 NA
ATOM      7  C   UNL     1      -1.412   0.990  -7.010  0.00  0.00    +0.067 A 
ATOM      8  C   UNL     1      -0.899   1.875  -6.076  0.00  0.00    +0.120 A 
ATOM      9  C   UNL     1      -1.059   3.254  -6.291  0.00  0.00    +0.280 A 
ATOM     10  O   UNL     1      -0.616   4.063  -5.490  0.00  0.00    -0.265 OA
ATOM     11  N   UNL     1      -1.712   3.671  -7.397  0.00  0.00    -0.266 N 
ATOM     12  C   UNL     1      -1.876   5.005  -7.621  0.00  0.00    +0.099 A 
ATOM     13  C   UNL     1      -1.250  -0.495  -6.809  0.00  0.00    +0.068 C 
ENDROOT
BRANCH   8  14
ATOM     14  N   UNL     1      -0.226   1.403  -4.938  0.00  0.00    -0.280 N 
ATOM     15  C   UNL     1      -0.686   1.706  -3.708  0.00  0.00    +0.218 C 
ATOM     16  O   UNL     1      -1.631   2.456  -3.582  0.00  0.00    -0.275 OA
ATOM     17  H   UNL     1       0.571   0.858  -5.037  0.00  0.00    +0.155 HD
BRANCH  15  18
ATOM     18  C   UNL     1      -0.028   1.113  -2.489  0.00  0.00    +0.099 C 
BRANCH  18  19
ATOM     19  C   UNL     1      -0.738   1.614  -1.231  0.00  0.00    -0.002 C 
ATOM     20  C   UNL     1       0.006   1.113   0.009  0.00  0.00    +0.004 C 
ATOM     21  C   UNL     1      -0.705   1.615   1.268  0.00  0.00    +0.000 C 
ATOM     22  C   UNL     1      -2.141   1.088   1.287  0.00  0.00    +0.000 C 
ATOM     23  C   UNL     1      -2.885   1.589   0.047  0.00  0.00    +0.000 C 
ATOM     24  C   UNL     1      -2.174   1.087  -1.211  0.00  0.00    +0.004 C 
ENDBRANCH  18  19
ENDBRANCH  15  18
ENDBRANCH   8  14
TORSDOF 3
