REMARK  Name = ZINC12714725
REMARK  10 active torsions:
REMARK  status: ('A' for Active; 'I' for Inactive)
REMARK    1  A    between atoms: C_1  and  C_2
REMARK    2  A    between atoms: C_5  and  N_8
REMARK    3  A    between atoms: N_8  and  C_9
REMARK    4  A    between atoms: C_9  and  C_11
REMARK    5  A    between atoms: C_9  and  C_17
REMARK    6  A    between atoms: C_14  and  C_16
REMARK    7  A    between atoms: N_19  and  C_20
REMARK    8  A    between atoms: C_26  and  C_28
REMARK    9  A    between atoms: C_29  and  N_36
REMARK   10  A    between atoms: C_30  and  C_33
REMARK                            x       y       z     vdW  Elec       q    Type
REMARK                         _______ _______ _______ _____ _____    ______ ____
ROOT
ATOM      1  N   UNL     1      -4.226   3.581   2.041  0.00  0.00    -0.248 N 
ATOM      2  C   UNL     1      -5.040   4.324   2.816  0.00  0.00    +0.262 C 
ATOM      3  O   UNL     1      -4.684   4.654   3.932  0.00  0.00    -0.269 OA
ENDROOT
BRANCH   1   8
ATOM      4  C   UNL     1      -5.739   2.334  -3.282  0.00  0.00    +0.044 C 
ATOM      5  C   UNL     1      -5.337   2.665  -1.868  0.00  0.00    -0.050 A 
ATOM      6  C   UNL     1      -5.786   1.881  -0.822  0.00  0.00    +0.005 A 
ATOM      7  C   UNL     1      -5.419   2.182   0.476  0.00  0.00    +0.024 A 
ATOM      8  C   UNL     1      -4.599   3.273   0.728  0.00  0.00    +0.038 A 
ATOM      9  C   UNL     1      -4.154   4.063  -0.325  0.00  0.00    +0.024 A 
ATOM     10  C   UNL     1      -4.520   3.753  -1.620  0.00  0.00    +0.005 A 
ENDBRANCH   1   8
BRANCH   2  11
ATOM     11  C   UNL     1      -6.352   4.737   2.315  0.00  0.00    +0.116 A 
ATOM     12  C   UNL     1      -7.242   5.678   2.835  0.00  0.00    +0.076 A 
ATOM     13  C   UNL     1      -8.402   5.797   2.069  0.00  0.00    +0.155 A 
ATOM     14  N   UNL     1      -8.545   5.048   0.998  0.00  0.00    -0.203 NA
ATOM     15  S   UNL     1      -7.245   4.165   0.884  0.00  0.00    +0.019 S 
BRANCH  13  16
ATOM     16  C   UNL     1      -9.459   6.748   2.460  0.00  0.00    +0.262 C 
ATOM     17  O   UNL     1      -9.320   7.437   3.453  0.00  0.00    -0.269 OA
ATOM     18  N   UNL     1     -10.579   6.853   1.718  0.00  0.00    -0.324 N 
ATOM     19  H   UNL     1     -10.690   6.304   0.926  0.00  0.00    +0.145 HD
ATOM     20  H   UNL     1     -11.274   7.479   1.975  0.00  0.00    +0.145 HD
ENDBRANCH  13  16
BRANCH  12  21
ATOM     21  N   UNL     1      -6.998   6.417   3.985  0.00  0.00    -0.355 N 
ATOM     22  H   UNL     1      -6.171   6.293   4.475  0.00  0.00    +0.142 HD
ATOM     23  H   UNL     1      -7.656   7.058   4.298  0.00  0.00    +0.142 HD
ENDBRANCH  12  21
ENDBRANCH   2  11
BRANCH   1  24
ATOM     24  C   UNL     1      -2.950   3.095   2.573  0.00  0.00    +0.233 C 
BRANCH  24  25
ATOM     25  C   UNL     1      -1.832   3.509   1.652  0.00  0.00    +0.135 A 
ATOM     26  C   UNL     1      -0.744   4.218   2.005  0.00  0.00    +0.047 A 
ATOM     27  C   UNL     1       0.037   4.378   0.838  0.00  0.00    +0.045 A 
ATOM     28  C   UNL     1      -0.619   3.757  -0.159  0.00  0.00    +0.102 A 
ATOM     29  O   UNL     1      -1.753   3.237   0.339  0.00  0.00    -0.462 OA
ATOM     30  C   UNL     1      -0.163   3.665  -1.592  0.00  0.00    +0.086 C 
ENDBRANCH  24  25
BRANCH  24  31
ATOM     31  C   UNL     1      -2.988   1.592   2.673  0.00  0.00    +0.242 C 
ATOM     32  O   UNL     1      -3.958   0.981   2.275  0.00  0.00    -0.273 OA
ATOM     33  N   UNL     1      -1.944   0.925   3.205  0.00  0.00    -0.311 N 
ATOM     34  H   UNL     1      -1.169   1.413   3.523  0.00  0.00    +0.149 HD
BRANCH  33  35
ATOM     35  C   UNL     1      -1.981  -0.536   3.302  0.00  0.00    +0.073 C 
ATOM     36  C   UNL     1      -2.707  -0.944   4.585  0.00  0.00    +0.022 C 
ATOM     37  C   UNL     1      -2.745  -2.470   4.687  0.00  0.00    +0.002 C 
ATOM     38  C   UNL     1      -1.316  -3.015   4.714  0.00  0.00    +0.000 C 
ATOM     39  C   UNL     1      -0.590  -2.608   3.430  0.00  0.00    +0.002 C 
ATOM     40  C   UNL     1      -0.552  -1.081   3.329  0.00  0.00    +0.022 C 
ENDBRANCH  33  35
ENDBRANCH  24  31
ENDBRANCH   1  24
TORSDOF 8
