REMARK  Name = ZINC32535254
REMARK  9 active torsions:
REMARK  status: ('A' for Active; 'I' for Inactive)
REMARK    1  A    between atoms: C_1  and  C_2
REMARK    2  A    between atoms: C_4  and  C_37
REMARK    3  A    between atoms: C_8  and  C_36
REMARK    4  A    between atoms: C_12  and  S_15
REMARK    5  A    between atoms: S_15  and  C_16
REMARK    6  A    between atoms: C_16  and  C_18
REMARK    7  A    between atoms: C_16  and  C_19
REMARK    8  A    between atoms: C_24  and  C_27
REMARK    9  A    between atoms: C_31  and  N_33
REMARK                            x       y       z     vdW  Elec       q    Type
REMARK                         _______ _______ _______ _____ _____    ______ ____
ROOT
ATOM      1  C   UNL     1       2.947  10.497   0.084  0.00  0.00    +0.137 C 
ATOM      2  C   UNL     1       3.466  10.618   1.518  0.00  0.00    +0.029 C 
ENDROOT
BRANCH   1   3
ATOM      3  C   UNL     1       1.763   9.566   0.055  0.00  0.00    +0.232 C 
ATOM      4  O   UNL     1       0.637  10.018   0.025  0.00  0.00    -0.274 OA
ATOM      5  N   UNL     1       1.954   8.232   0.062  0.00  0.00    -0.264 N 
ATOM      6  C   UNL     1       0.861   7.374   0.035  0.00  0.00    +0.165 A 
ATOM      7  N   UNL     1       0.836   6.054   0.041  0.00  0.00    -0.225 NA
ATOM      8  C   UNL     1      -0.309   5.389   0.007  0.00  0.00    +0.080 A 
ATOM      9  C   UNL     1      -1.487   6.081  -0.024  0.00  0.00    +0.076 A 
ATOM     10  S   UNL     1      -0.883   7.764  -0.011  0.00  0.00    -0.060 S 
ATOM     11  H   UNL     1       2.974   7.823   0.089  0.00  0.00    +0.157 HD
BRANCH   8  12
ATOM     12  C   UNL     1      -0.313   3.905   0.010  0.00  0.00    +0.003 A 
ATOM     13  C   UNL     1      -1.520   3.209  -0.019  0.00  0.00    +0.010 A 
ATOM     14  C   UNL     1      -1.517   1.829  -0.021  0.00  0.00    +0.003 A 
ATOM     15  C   UNL     1      -0.319   1.137   0.016  0.00  0.00    +0.033 A 
ATOM     16  C   UNL     1       0.881   1.823   0.044  0.00  0.00    +0.127 A 
ATOM     17  C   UNL     1       0.891   3.203   0.042  0.00  0.00    +0.042 A 
BRANCH  16  18
ATOM     18  N   UNL     1       2.159   1.076   0.079  0.00  0.00    +0.056 N 
ATOM     19  O   UNL     1       2.152  -0.142   0.081  0.00  0.00    -0.126 OA
ATOM     20  O   UNL     1       3.216   1.679   0.104  0.00  0.00    -0.126 OA
ENDBRANCH  16  18
ENDBRANCH   8  12
ENDBRANCH   1   3
BRANCH   1  21
ATOM     21  S   UNL     1       2.447  12.130  -0.516  0.00  0.00    -0.073 S 
BRANCH  21  33
ATOM     22  C   UNL     1       1.141  18.563  -2.680  0.00  0.00    +0.044 C 
ATOM     23  C   UNL     1       2.071  17.422  -2.361  0.00  0.00    -0.050 A 
ATOM     24  C   UNL     1       1.773  16.139  -2.789  0.00  0.00    +0.008 A 
ATOM     25  C   UNL     1       2.550  15.066  -2.393  0.00  0.00    -0.026 A 
ATOM     26  C   UNL     1       3.602  15.256  -1.511  0.00  0.00    +0.061 A 
ATOM     27  C   UNL     1       4.065  16.582  -1.335  0.00  0.00    +0.002 A 
ATOM     28  C   UNL     1       3.224  17.654  -1.642  0.00  0.00    +0.013 A 
ATOM     29  C   UNL     1       5.420  16.798  -0.824  0.00  0.00    -0.038 A 
ATOM     30  C   UNL     1       6.165  15.723  -0.480  0.00  0.00    +0.052 A 
ATOM     31  C   UNL     1       5.597  14.429  -0.505  0.00  0.00    +0.162 A 
ATOM     32  N   UNL     1       4.281  14.230  -0.883  0.00  0.00    -0.270 N 
ATOM     33  C   UNL     1       4.009  12.947  -0.520  0.00  0.00    +0.197 A 
ATOM     34  N   UNL     1       5.151  12.379  -0.181  0.00  0.00    -0.122 NA
ATOM     35  N   UNL     1       6.090  13.250  -0.174  0.00  0.00    -0.129 NA
ATOM     36  C   UNL     1       6.004  18.182  -0.715  0.00  0.00    +0.044 C 
ATOM     37  C   UNL     1       2.267  13.723  -3.015  0.00  0.00    +0.046 C 
ENDBRANCH  21  33
ENDBRANCH   1  21
TORSDOF 5
