REMARK  Name = ZINC13643044
REMARK  9 active torsions:
REMARK  status: ('A' for Active; 'I' for Inactive)
REMARK    1  A    between atoms: C_1  and  C_2
REMARK    2  A    between atoms: C_2  and  N_3
REMARK    3  A    between atoms: C_14  and  C_16
REMARK    4  A    between atoms: C_29  and  C_32
REMARK    5  A    between atoms: N_34  and  C_35
REMARK    6  A    between atoms: C_35  and  C_36
REMARK    7  A    between atoms: C_36  and  C_37
REMARK    8  A    between atoms: C_37  and  O_38
REMARK    9  A    between atoms: O_38  and  C_39
REMARK                            x       y       z     vdW  Elec       q    Type
REMARK                         _______ _______ _______ _____ _____    ______ ____
ROOT
ATOM      1  C   UNL     1      -5.296  -1.363   0.022  0.00  0.00    +0.105 C 
ATOM      2  C   UNL     1      -5.864  -1.648  -1.370  0.00  0.00    +0.029 C 
ATOM      3  C   UNL     1      -4.727  -1.423  -2.405  0.00  0.00    +0.033 C 
ATOM      4  C   UNL     1      -4.736   0.077  -2.623  0.00  0.00    -0.030 C 
ATOM      5  C   UNL     1      -5.892   0.585  -2.275  0.00  0.00    -0.023 C 
ATOM      6  C   UNL     1      -6.815  -0.499  -1.767  0.00  0.00    +0.049 C 
ATOM      7  C   UNL     1      -7.605  -0.008  -0.589  0.00  0.00    -0.019 A 
ATOM      8  C   UNL     1      -8.611   0.920  -0.822  0.00  0.00    +0.006 A 
ATOM      9  C   UNL     1      -9.376   1.417   0.217  0.00  0.00    +0.001 A 
ATOM     10  C   UNL     1      -9.149   0.996   1.509  0.00  0.00    +0.015 A 
ATOM     11  C   UNL     1      -8.143   0.063   1.764  0.00  0.00    +0.058 A 
ATOM     12  C   UNL     1      -7.367  -0.443   0.703  0.00  0.00    +0.044 A 
ATOM     13  N   UNL     1      -6.382  -1.372   1.002  0.00  0.00    -0.336 N 
ATOM     14  H   UNL     1      -6.774  -2.296   1.099  0.00  0.00    +0.147 HD
ENDROOT
BRANCH   1  26
ATOM     15  N   UNL     1      -3.005   3.799   0.128  0.00  0.00    -0.340 N 
ATOM     16  C   UNL     1      -4.020   4.533   0.714  0.00  0.00    +0.050 A 
ATOM     17  C   UNL     1      -4.129   5.880   1.048  0.00  0.00    +0.026 A 
ATOM     18  C   UNL     1      -5.282   6.353   1.637  0.00  0.00    +0.002 A 
ATOM     19  C   UNL     1      -6.340   5.498   1.903  0.00  0.00    +0.001 A 
ATOM     20  C   UNL     1      -6.251   4.161   1.580  0.00  0.00    +0.010 A 
ATOM     21  C   UNL     1      -5.090   3.669   0.989  0.00  0.00    +0.008 A 
ATOM     22  C   UNL     1      -4.673   2.329   0.534  0.00  0.00    +0.008 A 
ATOM     23  C   UNL     1      -3.376   2.470   0.018  0.00  0.00    +0.050 A 
ATOM     24  C   UNL     1      -2.720   1.353  -0.490  0.00  0.00    +0.027 A 
ATOM     25  C   UNL     1      -3.345   0.124  -0.485  0.00  0.00    +0.007 A 
ATOM     26  C   UNL     1      -4.627  -0.013   0.025  0.00  0.00    -0.026 A 
ATOM     27  C   UNL     1      -5.292   1.082   0.534  0.00  0.00    +0.016 A 
BRANCH  15  29
ATOM     28  C   UNL     1      -0.714   4.258   0.852  0.00  0.00    +0.027 C 
ATOM     29  C   UNL     1      -1.716   4.346  -0.302  0.00  0.00    +0.119 C 
ENDBRANCH  15  29
ENDBRANCH   1  26
BRANCH  11  30
ATOM     30  C   UNL     1      -7.892  -0.392   3.143  0.00  0.00    +0.246 C 
ATOM     31  O   UNL     1      -7.016  -1.206   3.365  0.00  0.00    -0.270 OA
ATOM     32  N   UNL     1      -8.635   0.092   4.158  0.00  0.00    -0.311 N 
ATOM     33  H   UNL     1      -9.334   0.741   3.981  0.00  0.00    +0.149 HD
BRANCH  32  34
ATOM     34  C   UNL     1      -8.386  -0.361   5.529  0.00  0.00    +0.107 C 
BRANCH  34  35
ATOM     35  C   UNL     1      -9.358   0.338   6.481  0.00  0.00    +0.047 C 
BRANCH  35  36
ATOM     36  C   UNL     1      -9.098  -0.135   7.913  0.00  0.00    +0.161 C 
BRANCH  36  37
ATOM     37  O   UNL     1     -10.006   0.518   8.803  0.00  0.00    -0.383 OA
ATOM     38  C   UNL     1      -9.847   0.144  10.173  0.00  0.00    +0.193 C 
ENDBRANCH  36  37
ENDBRANCH  35  36
ENDBRANCH  34  35
ENDBRANCH  32  34
ENDBRANCH  11  30
TORSDOF 7
