REMARK  Name = ZINC12489661
REMARK  9 active torsions:
REMARK  status: ('A' for Active; 'I' for Inactive)
REMARK    1  A    between atoms: C_4  and  C_7
REMARK    2  A    between atoms: C_7  and  C_9
REMARK    3  A    between atoms: C_7  and  N_19
REMARK    4  A    between atoms: N_11  and  C_12
REMARK    5  A    between atoms: C_12  and  C_13
REMARK    6  A    between atoms: N_19  and  C_20
REMARK    7  A    between atoms: C_27  and  C_29
REMARK    8  A    between atoms: C_29  and  N_30
REMARK    9  A    between atoms: C_31  and  C_33
REMARK                            x       y       z     vdW  Elec       q    Type
REMARK                         _______ _______ _______ _____ _____    ______ ____
ROOT
ATOM      1  N   UNL     1       1.114  -2.331   0.188  0.00  0.00    -0.254 N 
ATOM      2  C   UNL     1       0.230  -2.662  -0.774  0.00  0.00    +0.238 C 
ATOM      3  O   UNL     1       0.588  -3.320  -1.727  0.00  0.00    -0.274 OA
ENDROOT
BRANCH   1   4
ATOM      4  C   UNL     1       0.680  -1.663   1.338  0.00  0.00    +0.039 A 
ATOM      5  C   UNL     1       0.256  -0.343   1.257  0.00  0.00    +0.023 A 
ATOM      6  C   UNL     1      -0.172   0.315   2.394  0.00  0.00    +0.003 A 
ATOM      7  C   UNL     1      -0.180  -0.340   3.612  0.00  0.00    +0.020 A 
ATOM      8  C   UNL     1       0.241  -1.655   3.696  0.00  0.00    +0.043 A 
ATOM      9  C   UNL     1       0.671  -2.318   2.562  0.00  0.00    +0.043 A 
ATOM     10 CL   UNL     1       0.230  -2.473   5.227  0.00  0.00    -0.083 Cl
ENDBRANCH   1   4
BRANCH   1  11
ATOM     11  C   UNL     1       2.530  -2.671   0.029  0.00  0.00    +0.197 C 
BRANCH  11  15
ATOM     12  C   UNL     1       4.647  -1.664   3.600  0.00  0.00    +0.000 A 
ATOM     13  C   UNL     1       4.666  -2.963   3.128  0.00  0.00    +0.000 A 
ATOM     14  C   UNL     1       3.981  -3.289   1.972  0.00  0.00    +0.006 A 
ATOM     15  C   UNL     1       3.277  -2.316   1.289  0.00  0.00    -0.018 A 
ATOM     16  C   UNL     1       3.262  -1.016   1.758  0.00  0.00    +0.006 A 
ATOM     17  C   UNL     1       3.943  -0.691   2.916  0.00  0.00    +0.000 A 
ENDBRANCH  11  15
BRANCH  11  18
ATOM     18  C   UNL     1       3.105  -1.899  -1.131  0.00  0.00    +0.239 C 
ATOM     19  O   UNL     1       2.401  -1.139  -1.762  0.00  0.00    -0.273 OA
ATOM     20  N   UNL     1       4.402  -2.052  -1.466  0.00  0.00    -0.311 N 
ATOM     21  H   UNL     1       4.965  -2.660  -0.961  0.00  0.00    +0.149 HD
BRANCH  20  22
ATOM     22  C   UNL     1       4.960  -1.301  -2.593  0.00  0.00    +0.135 C 
BRANCH  22  23
ATOM     23  C   UNL     1       6.439  -1.656  -2.759  0.00  0.00    +0.135 C 
ATOM     24  C   UNL     1       7.072  -0.811  -3.887  0.00  0.00    +0.035 C 
ATOM     25  C   UNL     1       8.054  -1.784  -4.578  0.00  0.00    +0.031 C 
ATOM     26  C   UNL     1       7.899  -3.100  -3.786  0.00  0.00    +0.160 C 
ATOM     27  O   UNL     1       6.582  -3.025  -3.196  0.00  0.00    -0.375 OA
ENDBRANCH  22  23
ENDBRANCH  20  22
ENDBRANCH  11  18
ENDBRANCH   1  11
BRANCH   2  28
ATOM     28  C   UNL     1      -1.205  -2.214  -0.664  0.00  0.00    +0.201 C 
BRANCH  28  29
ATOM     29  N   UNL     1      -1.985  -2.803  -1.756  0.00  0.00    -0.302 N 
ATOM     30  C   UNL     1      -3.303  -2.540  -1.861  0.00  0.00    +0.251 C 
ATOM     31  O   UNL     1      -3.845  -1.813  -1.048  0.00  0.00    -0.270 OA
ATOM     32  H   UNL     1      -1.553  -3.381  -2.403  0.00  0.00    +0.150 HD
BRANCH  30  33
ATOM     33  C   UNL     1      -4.083  -3.128  -2.953  0.00  0.00    +0.074 A 
ATOM     34  C   UNL     1      -5.433  -2.987  -3.237  0.00  0.00    +0.021 A 
ATOM     35  C   UNL     1      -5.913  -3.656  -4.335  0.00  0.00    +0.008 A 
ATOM     36  C   UNL     1      -5.061  -4.411  -5.078  0.00  0.00    +0.046 A 
ATOM     37  S   UNL     1      -3.542  -4.207  -4.267  0.00  0.00    -0.092 S 
ENDBRANCH  30  33
ENDBRANCH  28  29
ENDBRANCH   2  28
TORSDOF 9
