REMARK  Name = ZINC39502829
REMARK  13 active torsions:
REMARK  status: ('A' for Active; 'I' for Inactive)
REMARK    1  A    between atoms: C_1  and  C_2
REMARK    2  A    between atoms: C_2  and  O_3
REMARK    3  A    between atoms: O_3  and  C_4
REMARK    4  A    between atoms: C_4  and  C_6
REMARK    5  A    between atoms: C_7  and  C_30
REMARK    6  A    between atoms: C_11  and  S_24
REMARK    7  A    between atoms: C_12  and  O_23
REMARK    8  A    between atoms: C_15  and  C_16
REMARK    9  A    between atoms: C_20  and  O_22
REMARK   10  A    between atoms: S_24  and  C_27
REMARK   11  A    between atoms: C_27  and  C_28
REMARK   12  A    between atoms: C_27  and  C_29
REMARK   13  A    between atoms: C_30  and  N_31
REMARK                            x       y       z     vdW  Elec       q    Type
REMARK                         _______ _______ _______ _____ _____    ______ ____
ROOT
ATOM      1  C   UNL     1       1.942  -2.050  -2.493  0.00  0.00    +0.072 A 
ATOM      2  C   UNL     1       3.326  -2.278  -2.570  0.00  0.00    -0.011 A 
ATOM      3  C   UNL     1       3.883  -2.830  -3.679  0.00  0.00    +0.015 A 
ATOM      4  C   UNL     1       3.077  -3.186  -4.777  0.00  0.00    -0.015 A 
ATOM      5  C   UNL     1       3.643  -3.758  -5.930  0.00  0.00    +0.039 A 
ATOM      6  C   UNL     1       2.847  -4.095  -6.981  0.00  0.00    +0.130 A 
ATOM      7  C   UNL     1       1.466  -3.880  -6.934  0.00  0.00    +0.142 A 
ATOM      8  C   UNL     1       0.880  -3.321  -5.821  0.00  0.00    +0.056 A 
ATOM      9  C   UNL     1       1.679  -2.966  -4.724  0.00  0.00    -0.006 A 
ATOM     10  C   UNL     1       1.109  -2.396  -3.562  0.00  0.00    +0.004 A 
ENDROOT
BRANCH  10  11
ATOM     11  C   UNL     1      -0.349  -2.162  -3.480  0.00  0.00    -0.013 A 
ATOM     12  C   UNL     1      -1.233  -3.243  -3.476  0.00  0.00    +0.009 A 
ATOM     13  C   UNL     1      -2.592  -3.022  -3.400  0.00  0.00    +0.004 A 
ATOM     14  C   UNL     1      -3.084  -1.731  -3.328  0.00  0.00    +0.045 A 
ATOM     15  C   UNL     1      -2.213  -0.650  -3.332  0.00  0.00    +0.117 A 
ATOM     16  C   UNL     1      -0.847  -0.861  -3.402  0.00  0.00    +0.054 A 
BRANCH  15  17
ATOM     17  O   UNL     1      -2.702   0.616  -3.261  0.00  0.00    -0.507 OA
ATOM     18  H   UNL     1      -2.800   0.951  -2.359  0.00  0.00    +0.292 HD
ENDBRANCH  15  17
ENDBRANCH  10  11
BRANCH   6  19
ATOM     19  S   UNL     1       3.567  -4.812  -8.420  0.00  0.00    +0.003 S 
ATOM     20  O   UNL     1       4.952  -4.915  -8.120  0.00  0.00    -0.169 OA
ATOM     21  O   UNL     1       2.792  -5.976  -8.672  0.00  0.00    -0.169 OA
BRANCH  19  22
ATOM     22  C   UNL     1       3.301  -3.588  -9.733  0.00  0.00    +0.130 C 
ATOM     23  C   UNL     1       3.993  -2.276  -9.355  0.00  0.00    +0.032 C 
ATOM     24  C   UNL     1       3.886  -4.113 -11.045  0.00  0.00    +0.032 C 
ENDBRANCH  19  22
ENDBRANCH   6  19
BRANCH   1  25
ATOM     25  C   UNL     1       1.364  -1.448  -1.278  0.00  0.00    +0.340 C 
ATOM     26  O   UNL     1       0.995  -2.160  -0.364  0.00  0.00    -0.245 OA
BRANCH  25  27
ATOM     27  O   UNL     1       1.245  -0.110  -1.179  0.00  0.00    -0.461 OA
BRANCH  27  29
ATOM     28  C   UNL     1       0.623   1.932  -0.045  0.00  0.00    +0.048 C 
ATOM     29  C   UNL     1       0.676   0.404   0.027  0.00  0.00    +0.229 C 
ENDBRANCH  27  29
ENDBRANCH  25  27
ENDBRANCH   1  25
BRANCH   7  30
ATOM     30  O   UNL     1       0.695  -4.226  -7.998  0.00  0.00    -0.505 OA
ATOM     31  H   UNL     1       0.294  -5.103  -7.925  0.00  0.00    +0.292 HD
ENDBRANCH   7  30
BRANCH   2  32
ATOM     32  C   UNL     1       4.206  -1.904  -1.406  0.00  0.00    +0.181 C 
BRANCH  32  33
ATOM     33  N   UNL     1       4.218  -2.998  -0.431  0.00  0.00    -0.248 N 
ATOM     34  C   UNL     1       5.299  -3.627   0.060  0.00  0.00    +0.219 A 
ATOM     35  N   UNL     1       4.890  -4.541   0.902  0.00  0.00    -0.223 NA
ATOM     36  C   UNL     1       3.559  -4.525   0.974  0.00  0.00    +0.245 A 
ATOM     37  N   UNL     1       3.102  -3.593   0.180  0.00  0.00    -0.158 NA
ENDBRANCH  32  33
ENDBRANCH   2  32
TORSDOF 10
