REMARK  Name = ZINC01823139
REMARK  10 active torsions:
REMARK  status: ('A' for Active; 'I' for Inactive)
REMARK    1  A    between atoms: C_1  and  C_2
REMARK    2  A    between atoms: C_2  and  O_3
REMARK    3  A    between atoms: O_3  and  C_4
REMARK    4  A    between atoms: C_4  and  C_6
REMARK    5  A    between atoms: C_7  and  N_36
REMARK    6  A    between atoms: C_12  and  C_13
REMARK    7  A    between atoms: C_22  and  C_32
REMARK    8  A    between atoms: C_23  and  C_25
REMARK    9  A    between atoms: C_32  and  O_34
REMARK   10  A    between atoms: O_34  and  C_35
REMARK                            x       y       z     vdW  Elec       q    Type
REMARK                         _______ _______ _______ _____ _____    ______ ____
ROOT
ATOM      1  C   UNL     1       4.715   0.564  -1.199  0.00  0.00    +0.087 C 
ATOM      2  C   UNL     1       3.687   1.412  -0.965  0.00  0.00    +0.115 C 
ATOM      3  N   UNL     1       2.343   1.029  -0.980  0.00  0.00    -0.257 N 
ATOM      4  C   UNL     1       1.328   1.886  -0.745  0.00  0.00    +0.271 A 
ATOM      5  O   UNL     1       1.546   3.058  -0.505  0.00  0.00    -0.266 OA
ATOM      6  C   UNL     1      -0.045   1.369  -0.787  0.00  0.00    +0.079 A 
ATOM      7  C   UNL     1      -1.218   2.024  -0.592  0.00  0.00    +0.028 C 
ATOM      8  S   UNL     1       0.243  -0.350  -1.171  0.00  0.00    -0.065 S 
ATOM      9  C   UNL     1       2.022  -0.286  -1.246  0.00  0.00    +0.100 A 
ATOM     10  C   UNL     1       2.943  -1.267  -1.503  0.00  0.00    +0.079 C 
ATOM     11  C   UNL     1       4.411  -0.891  -1.496  0.00  0.00    +0.099 C 
ENDROOT
BRANCH   7  12
ATOM     12  C   UNL     1      -2.493   1.339  -0.848  0.00  0.00    -0.024 A 
ATOM     13  C   UNL     1      -2.523   0.179  -1.630  0.00  0.00    +0.009 A 
ATOM     14  C   UNL     1      -3.722  -0.461  -1.860  0.00  0.00    +0.020 A 
ATOM     15  C   UNL     1      -4.896   0.048  -1.330  0.00  0.00    +0.041 A 
ATOM     16  C   UNL     1      -4.875   1.200  -0.560  0.00  0.00    +0.020 A 
ATOM     17  C   UNL     1      -3.683   1.847  -0.316  0.00  0.00    +0.009 A 
ATOM     18 CL   UNL     1      -6.402  -0.761  -1.632  0.00  0.00    -0.084 Cl
ENDBRANCH   7  12
BRANCH  11  19
ATOM     19  C   UNL     1       4.991  -1.228  -2.846  0.00  0.00    -0.035 A 
ATOM     20  C   UNL     1       4.477  -0.638  -3.985  0.00  0.00    +0.006 A 
ATOM     21  C   UNL     1       5.012  -0.942  -5.223  0.00  0.00    +0.020 A 
ATOM     22  C   UNL     1       6.054  -1.846  -5.322  0.00  0.00    +0.041 A 
ATOM     23  C   UNL     1       6.565  -2.440  -4.182  0.00  0.00    +0.020 A 
ATOM     24  C   UNL     1       6.033  -2.131  -2.944  0.00  0.00    +0.006 A 
ATOM     25 CL   UNL     1       6.723  -2.234  -6.877  0.00  0.00    -0.084 Cl
ENDBRANCH  11  19
BRANCH   2  26
ATOM     26  N   UNL     1       3.981   2.724  -0.698  0.00  0.00    -0.344 N 
ATOM     27  H   UNL     1       4.670   3.179  -1.206  0.00  0.00    +0.144 HD
ATOM     28  H   UNL     1       3.499   3.196  -0.001  0.00  0.00    +0.144 HD
ENDBRANCH   2  26
BRANCH   1  29
ATOM     29  C   UNL     1       6.041   1.023  -1.167  0.00  0.00    +0.339 C 
ATOM     30  O   UNL     1       6.279   2.172  -0.839  0.00  0.00    -0.245 OA
BRANCH  29  31
ATOM     31  O   UNL     1       7.052   0.192  -1.499  0.00  0.00    -0.462 OA
BRANCH  31  33
ATOM     32  C   UNL     1       9.380  -0.354  -1.850  0.00  0.00    +0.048 C 
ATOM     33  C   UNL     1       8.376   0.727  -1.443  0.00  0.00    +0.229 C 
ENDBRANCH  31  33
ENDBRANCH  29  31
ENDBRANCH   1  29
BRANCH  10  34
ATOM     34  C   UNL     1       2.538  -2.583  -1.766  0.00  0.00    +0.338 C 
ATOM     35  O   UNL     1       1.353  -2.867  -1.768  0.00  0.00    -0.245 OA
BRANCH  34  36
ATOM     36  O   UNL     1       3.462  -3.536  -2.017  0.00  0.00    -0.465 OA
ATOM     37  C   UNL     1       2.979  -4.856  -2.276  0.00  0.00    +0.280 C 
ENDBRANCH  34  36
ENDBRANCH  10  34
TORSDOF 8
