REMARK  Name = ZINC13777996
REMARK  16 active torsions:
REMARK  status: ('A' for Active; 'I' for Inactive)
REMARK    1  A    between atoms: C_1  and  C_2
REMARK    2  A    between atoms: C_2  and  O_3
REMARK    3  A    between atoms: O_3  and  C_4
REMARK    4  A    between atoms: C_4  and  C_5
REMARK    5  A    between atoms: C_5  and  C_6
REMARK    6  A    between atoms: C_6  and  N_7
REMARK    7  A    between atoms: C_11  and  C_26
REMARK    8  A    between atoms: N_13  and  C_14
REMARK    9  A    between atoms: C_14  and  C_16
REMARK   10  A    between atoms: C_19  and  C_22
REMARK   11  A    between atoms: C_22  and  C_23
REMARK   12  A    between atoms: C_22  and  C_24
REMARK   13  A    between atoms: C_22  and  C_25
REMARK   14  A    between atoms: C_26  and  O_28
REMARK   15  A    between atoms: O_28  and  C_29
REMARK   16  A    between atoms: C_29  and  C_30
REMARK                            x       y       z     vdW  Elec       q    Type
REMARK                         _______ _______ _______ _____ _____    ______ ____
ROOT
ATOM      1  N   UNL     1      -1.185   1.531   6.378  0.00  0.00    -0.309 N 
ATOM      2  C   UNL     1      -1.869   0.822   7.342  0.00  0.00    +0.150 A 
ATOM      3  C   UNL     1      -1.548   1.018   8.707  0.00  0.00    +0.083 A 
ATOM      4  C   UNL     1      -0.586   1.964   9.083  0.00  0.00    +0.035 A 
ATOM      5  C   UNL     1      -0.084   2.840   8.121  0.00  0.00    +0.102 A 
ATOM      6  C   UNL     1      -0.623   2.743   6.755  0.00  0.00    +0.150 A 
ATOM      7  N   UNL     1      -0.576   3.767   5.925  0.00  0.00    -0.229 NA
ATOM      8  C   UNL     1      -2.230   0.242   9.681  0.00  0.00    +0.268 A 
ATOM      9  O   UNL     1      -1.961   0.351  10.864  0.00  0.00    -0.267 OA
ATOM     10  N   UNL     1      -3.186  -0.620   9.265  0.00  0.00    -0.268 N 
ATOM     11  C   UNL     1      -3.857  -1.363  10.190  0.00  0.00    +0.096 A 
ATOM     12  C   UNL     1      -4.826  -2.227   9.812  0.00  0.00    +0.018 A 
ATOM     13  C   UNL     1      -5.151  -2.369   8.456  0.00  0.00    +0.005 A 
ATOM     14  C   UNL     1      -4.481  -1.634   7.523  0.00  0.00    +0.047 A 
ATOM     15  C   UNL     1      -3.474  -0.743   7.934  0.00  0.00    +0.143 A 
ATOM     16  N   UNL     1      -2.818  -0.039   7.010  0.00  0.00    -0.211 NA
ENDROOT
BRANCH   7  17
ATOM     17  C   UNL     1      -0.181   4.993   6.376  0.00  0.00    +0.066 C 
ATOM     18  C   UNL     1      -0.878   5.609   7.345  0.00  0.00    +0.039 C 
BRANCH  17  19
ATOM     19  C   UNL     1       1.020   5.646   5.796  0.00  0.00    -0.000 A 
ATOM     20  C   UNL     1       1.748   5.006   4.795  0.00  0.00    +0.010 A 
ATOM     21  C   UNL     1       2.860   5.621   4.256  0.00  0.00    +0.005 A 
ATOM     22  C   UNL     1       3.258   6.863   4.715  0.00  0.00    -0.042 A 
ATOM     23  C   UNL     1       2.542   7.500   5.712  0.00  0.00    +0.005 A 
ATOM     24  C   UNL     1       1.425   6.897   6.255  0.00  0.00    +0.010 A 
BRANCH  22  25
ATOM     25  C   UNL     1       4.477   7.526   4.125  0.00  0.00    -0.013 C 
ATOM     26  C   UNL     1       5.510   7.767   5.228  0.00  0.00    +0.015 C 
ATOM     27  C   UNL     1       5.080   6.621   3.050  0.00  0.00    +0.015 C 
ATOM     28  C   UNL     1       4.077   8.864   3.500  0.00  0.00    +0.015 C 
ENDBRANCH  22  25
ENDBRANCH  17  19
ENDBRANCH   7  17
BRANCH   5  29
ATOM     29  C   UNL     1       0.950   3.824   8.459  0.00  0.00    +0.343 C 
ATOM     30  O   UNL     1       1.834   4.075   7.662  0.00  0.00    -0.245 OA
BRANCH  29  31
ATOM     31  O   UNL     1       0.920   4.452   9.652  0.00  0.00    -0.461 OA
BRANCH  31  32
ATOM     32  C   UNL     1       1.975   5.413   9.918  0.00  0.00    +0.229 C 
ATOM     33  C   UNL     1       1.776   6.017  11.310  0.00  0.00    +0.048 C 
ENDBRANCH  31  32
ENDBRANCH  29  31
ENDBRANCH   5  29
BRANCH   1  34
ATOM     34  C   UNL     1      -1.052   1.022   5.011  0.00  0.00    +0.127 C 
BRANCH  34  35
ATOM     35  C   UNL     1      -2.226   1.519   4.165  0.00  0.00    +0.050 C 
BRANCH  35  36
ATOM     36  C   UNL     1      -2.086   0.988   2.737  0.00  0.00    +0.161 C 
BRANCH  36  37
ATOM     37  O   UNL     1      -3.183   1.452   1.946  0.00  0.00    -0.380 OA
BRANCH  37  39
ATOM     38  C   UNL     1      -4.363   1.564  -0.159  0.00  0.00    +0.034 C 
ATOM     39  C   UNL     1      -3.148   1.010   0.588  0.00  0.00    +0.156 C 
ENDBRANCH  37  39
ENDBRANCH  36  37
ENDBRANCH  35  36
ENDBRANCH  34  35
ENDBRANCH   1  34
TORSDOF 11
