REMARK  Name = ZINC59016990
REMARK  8 active torsions:
REMARK  status: ('A' for Active; 'I' for Inactive)
REMARK    1  A    between atoms: C_1  and  C_2
REMARK    2  A    between atoms: C_5  and  C_8
REMARK    3  A    between atoms: C_8  and  C_10
REMARK    4  A    between atoms: C_10  and  S_11
REMARK    5  A    between atoms: S_11  and  C_12
REMARK    6  A    between atoms: N_17  and  N_18
REMARK    7  A    between atoms: C_19  and  C_20
REMARK    8  A    between atoms: C_25  and  O_26
REMARK                            x       y       z     vdW  Elec       q    Type
REMARK                         _______ _______ _______ _____ _____    ______ ____
ROOT
ATOM      1  C   UNL     1       0.114  -7.527   2.537  0.00  0.00    +0.210 A 
ATOM      2  N   UNL     1       0.137  -8.841   2.785  0.00  0.00    -0.186 NA
ATOM      3  C   UNL     1       0.145  -9.047   4.085  0.00  0.00    +0.232 A 
ATOM      4  N   UNL     1       0.127  -7.844   4.697  0.00  0.00    -0.245 N 
ATOM      5  N   UNL     1       0.112  -6.879   3.677  0.00  0.00    -0.144 NA
ATOM      6  N   UNL     1       0.168 -10.278   4.714  0.00  0.00    -0.205 N 
ATOM      7  H   UNL     1       0.172 -10.328   5.682  0.00  0.00    +0.177 HD
ATOM      8  H   UNL     1       0.126  -7.678   5.653  0.00  0.00    +0.192 HD
ENDROOT
BRANCH   6   9
ATOM      9  N   UNL     1       0.186 -11.454   3.951  0.00  0.00    -0.187 NA
ATOM     10  C   UNL     1       0.208 -12.610   4.541  0.00  0.00    +0.142 C 
BRANCH  10  11
ATOM     11  C   UNL     1       0.227 -13.846   3.739  0.00  0.00    +0.037 A 
ATOM     12  C   UNL     1       0.244 -15.092   4.370  0.00  0.00    +0.028 A 
ATOM     13  C   UNL     1       0.261 -16.246   3.613  0.00  0.00    +0.019 A 
ATOM     14  C   UNL     1       0.261 -16.173   2.230  0.00  0.00    +0.019 A 
ATOM     15  C   UNL     1       0.244 -14.945   1.595  0.00  0.00    +0.047 A 
ATOM     16  C   UNL     1       0.221 -13.778   2.340  0.00  0.00    +0.126 A 
ATOM     17 BR   UNL     1       0.285 -17.933   4.468  0.00  0.00    -0.050 Br
BRANCH  16  18
ATOM     18  O   UNL     1       0.199 -12.572   1.716  0.00  0.00    -0.506 OA
ATOM     19  H   UNL     1       1.076 -12.207   1.532  0.00  0.00    +0.292 HD
ENDBRANCH  16  18
ENDBRANCH  10  11
ENDBRANCH   6   9
BRANCH   1  20
ATOM     20  S   UNL     1       0.096  -6.787   0.938  0.00  0.00    -0.076 S 
BRANCH  20  21
ATOM     21  C   UNL     1       0.075  -5.006   1.280  0.00  0.00    +0.157 C 
BRANCH  21  22
ATOM     22  C   UNL     1       0.058  -4.245  -0.021  0.00  0.00    +0.173 C 
ATOM     23  O   UNL     1       0.060  -4.846  -1.075  0.00  0.00    -0.291 OA
BRANCH  22  28
ATOM     24  C   UNL     1      -0.018   1.503   0.010  0.00  0.00    +0.044 C 
ATOM     25  C   UNL     1       0.002  -0.004   0.002  0.00  0.00    -0.050 A 
ATOM     26  C   UNL     1       0.006  -0.686  -1.202  0.00  0.00    +0.004 A 
ATOM     27  C   UNL     1       0.024  -2.064  -1.218  0.00  0.00    +0.011 A 
ATOM     28  C   UNL     1       0.039  -2.774  -0.013  0.00  0.00    +0.018 A 
ATOM     29  C   UNL     1       0.036  -2.078   1.200  0.00  0.00    +0.011 A 
ATOM     30  C   UNL     1       0.023  -0.699   1.199  0.00  0.00    +0.004 A 
ENDBRANCH  22  28
ENDBRANCH  21  22
ENDBRANCH  20  21
ENDBRANCH   1  20
TORSDOF 7
