REMARK  Name = ZINC00907676
REMARK  10 active torsions:
REMARK  status: ('A' for Active; 'I' for Inactive)
REMARK    1  A    between atoms: C_1  and  C_2
REMARK    2  A    between atoms: C_2  and  C_3
REMARK    3  A    between atoms: C_3  and  C_4
REMARK    4  A    between atoms: C_3  and  C_5
REMARK    5  A    between atoms: C_3  and  N_6
REMARK    6  A    between atoms: C_7  and  C_11
REMARK    7  A    between atoms: C_11  and  C_13
REMARK    8  A    between atoms: C_11  and  N_62
REMARK    9  A    between atoms: C_17  and  C_25
REMARK   10  A    between atoms: C_28  and  C_31
REMARK                            x       y       z     vdW  Elec       q    Type
REMARK                         _______ _______ _______ _____ _____    ______ ____
ROOT
ATOM      1  C   UNL     1      -0.695   2.021   1.029  0.00  0.00    +0.039 C 
ENDROOT
BRANCH   1   2
ATOM      2  C   UNL     1       0.266   1.411   2.017  0.00  0.00    +0.011 A 
ATOM      3  C   UNL     1      -0.197   0.589   2.990  0.00  0.00    +0.017 A 
ATOM      4  C   UNL     1       0.763   0.013   3.934  0.00  0.00    -0.001 A 
ATOM      5  C   UNL     1       0.345  -0.843   4.959  0.00  0.00    +0.013 A 
ATOM      6  C   UNL     1       1.266  -1.364   5.823  0.00  0.00    -0.050 A 
ATOM      7  C   UNL     1       2.612  -1.053   5.693  0.00  0.00    +0.005 A 
ATOM      8  C   UNL     1       3.046  -0.212   4.692  0.00  0.00    +0.026 A 
ATOM      9  C   UNL     1       2.127   0.331   3.799  0.00  0.00    +0.049 A 
ATOM     10  N   UNL     1       2.534   1.174   2.787  0.00  0.00    -0.322 N 
ATOM     11  H   UNL     1       3.503   1.402   2.695  0.00  0.00    +0.169 HD
ATOM     12  C   UNL     1       1.646   1.694   1.922  0.00  0.00    +0.251 A 
ATOM     13  O   UNL     1       2.041   2.432   1.036  0.00  0.00    -0.268 OA
ATOM     14  C   UNL     1       0.816  -2.286   6.928  0.00  0.00    +0.044 C 
ENDBRANCH   1   2
BRANCH   1  21
ATOM     15  C   UNL     1      -0.104   0.248  -0.510  0.00  0.00    -0.077 C 
ATOM     16  C   UNL     1       0.483  -0.041  -1.893  0.00  0.00    -0.015 C 
ATOM     17  C   UNL     1      -0.453   0.520  -2.967  0.00  0.00    -0.018 C 
ATOM     18  C   UNL     1      -0.640   2.022  -2.736  0.00  0.00    -0.015 C 
ATOM     19  C   UNL     1      -1.195   2.251  -1.328  0.00  0.00    -0.077 C 
ATOM     20  C   UNL     1       0.158   0.288  -4.350  0.00  0.00    +0.007 C 
ATOM     21  N   UNL     1      -0.237   1.711  -0.341  0.00  0.00    +0.389 N 
ATOM     22  H   UNL     1       0.680   2.148  -0.493  0.00  0.00    -0.080 HD
ENDBRANCH   1  21
BRANCH   1  24
ATOM     23  N   UNL     1      -1.737   4.254   1.687  0.00  0.00    -0.225 N 
ATOM     24  C   UNL     1      -0.718   3.517   1.208  0.00  0.00    +0.143 A 
ATOM     25  N   UNL     1       0.254   4.353   0.933  0.00  0.00    -0.115 NA
ATOM     26  N   UNL     1      -0.151   5.542   1.220  0.00  0.00    -0.023 NA
ATOM     27  N   UNL     1      -1.352   5.485   1.679  0.00  0.00    -0.043 NA
BRANCH  23  28
ATOM     28  C   UNL     1      -3.039   3.752   2.134  0.00  0.00    +0.061 C 
ATOM     29  C   UNL     1      -3.761   3.090   0.959  0.00  0.00    +0.036 C 
ATOM     30  C   UNL     1      -2.834   2.725   3.250  0.00  0.00    +0.036 C 
BRANCH  28  32
ATOM     31  C   UNL     1      -5.240   4.391   3.127  0.00  0.00    +0.006 C 
ATOM     32  C   UNL     1      -3.881   4.916   2.660  0.00  0.00    +0.026 C 
ENDBRANCH  28  32
ENDBRANCH  23  28
ENDBRANCH   1  24
TORSDOF 5
