REMARK  Name = ZINC36504388
REMARK  12 active torsions:
REMARK  status: ('A' for Active; 'I' for Inactive)
REMARK    1  A    between atoms: C_1  and  C_2
REMARK    2  A    between atoms: C_2  and  C_3
REMARK    3  A    between atoms: C_2  and  C_4
REMARK    4  A    between atoms: C_2  and  N_5
REMARK    5  A    between atoms: C_6  and  C_8
REMARK    6  A    between atoms: C_8  and  C_10
REMARK    7  A    between atoms: C_8  and  N_18
REMARK    8  A    between atoms: N_18  and  C_19
REMARK    9  A    between atoms: C_19  and  C_20
REMARK   10  A    between atoms: C_25  and  C_27
REMARK   11  A    between atoms: C_27  and  N_28
REMARK   12  A    between atoms: C_29  and  C_31
REMARK                            x       y       z     vdW  Elec       q    Type
REMARK                         _______ _______ _______ _____ _____    ______ ____
ROOT
ATOM      1  N   UNL     1       4.179   0.162  -2.696  0.00  0.00    -0.277 N 
ATOM      2  C   UNL     1       4.785   1.046  -3.514  0.00  0.00    +0.234 C 
ATOM      3  O   UNL     1       4.130   1.683  -4.311  0.00  0.00    -0.274 OA
ENDROOT
BRANCH   1   4
ATOM      4  C   UNL     1       2.756  -0.139  -2.869  0.00  0.00    +0.195 C 
BRANCH   4   5
ATOM      5  C   UNL     1       2.331   0.229  -4.268  0.00  0.00    +0.018 A 
ATOM      6  C   UNL     1       3.070  -0.207  -5.353  0.00  0.00    +0.048 A 
ATOM      7  C   UNL     1       2.680   0.131  -6.636  0.00  0.00    +0.020 A 
ATOM      8  C   UNL     1       1.552   0.905  -6.835  0.00  0.00    +0.003 A 
ATOM      9  C   UNL     1       0.814   1.342  -5.751  0.00  0.00    +0.020 A 
ATOM     10  C   UNL     1       1.199   0.999  -4.468  0.00  0.00    +0.048 A 
ATOM     11 CL   UNL     1       0.267   1.541  -3.107  0.00  0.00    -0.083 Cl
ATOM     12 CL   UNL     1       4.487  -1.179  -5.103  0.00  0.00    -0.083 Cl
ENDBRANCH   4   5
BRANCH   4  14
ATOM     13  N   UNL     1       1.562  -2.018  -1.791  0.00  0.00    -0.309 N 
ATOM     14  C   UNL     1       2.522  -1.610  -2.644  0.00  0.00    +0.239 C 
ATOM     15  O   UNL     1       3.199  -2.428  -3.231  0.00  0.00    -0.273 OA
ATOM     16  H   UNL     1       1.021  -1.364  -1.321  0.00  0.00    +0.149 HD
BRANCH  13  18
ATOM     17  C   UNL     1       2.612  -4.089  -1.025  0.00  0.00    +0.031 C 
ATOM     18  C   UNL     1       1.335  -3.448  -1.572  0.00  0.00    +0.026 C 
ATOM     19  C   UNL     1       0.958  -4.114  -2.898  0.00  0.00    +0.031 C 
ATOM     20  C   UNL     1       0.199  -3.637  -0.566  0.00  0.00    +0.031 C 
ENDBRANCH  13  18
ENDBRANCH   4  14
ENDBRANCH   1   4
BRANCH   1  21
ATOM     21  C   UNL     1       4.943  -0.497  -1.634  0.00  0.00    +0.183 C 
BRANCH  21  22
ATOM     22  C   UNL     1       5.611  -1.729  -2.186  0.00  0.00    +0.122 A 
ATOM     23  C   UNL     1       6.760  -1.755  -2.885  0.00  0.00    +0.046 A 
ATOM     24  C   UNL     1       7.016  -3.109  -3.202  0.00  0.00    +0.041 A 
ATOM     25  C   UNL     1       6.008  -3.829  -2.679  0.00  0.00    +0.195 A 
ATOM     26  O   UNL     1       5.163  -2.989  -2.059  0.00  0.00    -0.466 OA
ENDBRANCH  21  22
ENDBRANCH   1  21
BRANCH   2  27
ATOM     27  C   UNL     1       6.278   1.241  -3.437  0.00  0.00    +0.200 C 
BRANCH  27  28
ATOM     28  N   UNL     1       6.689   2.246  -4.420  0.00  0.00    -0.303 N 
ATOM     29  C   UNL     1       7.989   2.586  -4.533  0.00  0.00    +0.244 C 
ATOM     30  O   UNL     1       8.819   2.059  -3.819  0.00  0.00    -0.270 OA
ATOM     31  H   UNL     1       6.027   2.667  -4.990  0.00  0.00    +0.150 HD
BRANCH  29  32
ATOM     32  C   UNL     1       8.404   3.600  -5.525  0.00  0.00    +0.037 A 
ATOM     33  C   UNL     1       7.452   4.212  -6.343  0.00  0.00    +0.013 A 
ATOM     34  C   UNL     1       7.847   5.158  -7.266  0.00  0.00    +0.001 A 
ATOM     35  C   UNL     1       9.182   5.500  -7.383  0.00  0.00    +0.000 A 
ATOM     36  C   UNL     1      10.131   4.898  -6.576  0.00  0.00    +0.001 A 
ATOM     37  C   UNL     1       9.749   3.955  -5.644  0.00  0.00    +0.013 A 
ENDBRANCH  29  32
ENDBRANCH  27  28
ENDBRANCH   2  27
TORSDOF 9
