REMARK  Name = ZINC39914687
REMARK  10 active torsions:
REMARK  status: ('A' for Active; 'I' for Inactive)
REMARK    1  A    between atoms: C_1  and  C_2
REMARK    2  A    between atoms: C_2  and  C_3
REMARK    3  A    between atoms: C_3  and  O_4
REMARK    4  A    between atoms: O_4  and  C_5
REMARK    5  A    between atoms: C_8  and  C_11
REMARK    6  A    between atoms: C_14  and  C_29
REMARK    7  A    between atoms: N_21  and  C_22
REMARK    8  A    between atoms: C_22  and  C_23
REMARK    9  A    between atoms: C_32  and  C_36
REMARK   10  A    between atoms: C_34  and  O_35
REMARK                            x       y       z     vdW  Elec       q    Type
REMARK                         _______ _______ _______ _____ _____    ______ ____
ROOT
ATOM      1  C   UNL     1       2.955  -4.550   5.215  0.00  0.00    +0.142 C 
ATOM      2  C   UNL     1       2.174  -4.904   6.451  0.00  0.00    +0.035 A 
ATOM      3  C   UNL     1       1.366  -4.460   7.503  0.00  0.00    +0.102 A 
ATOM      4  N   UNL     1       1.062  -5.511   8.238  0.00  0.00    -0.173 NA
ATOM      5  N   UNL     1       1.596  -6.575   7.754  0.00  0.00    -0.272 N 
ATOM      6  H   UNL     1       1.507  -7.465   8.130  0.00  0.00    +0.189 HD
ATOM      7  C   UNL     1       2.309  -6.267   6.630  0.00  0.00    +0.126 A 
ATOM      8  C   UNL     1       3.151  -6.798   5.552  0.00  0.00    +0.266 C 
ATOM      9  O   UNL     1       3.461  -7.967   5.424  0.00  0.00    -0.268 OA
ATOM     10  N   UNL     1       3.533  -5.807   4.724  0.00  0.00    -0.281 N 
ENDROOT
BRANCH   3  11
ATOM     11  C   UNL     1       0.933  -3.061   7.749  0.00  0.00    +0.045 A 
ATOM     12  C   UNL     1       1.431  -2.027   6.961  0.00  0.00    +0.034 A 
ATOM     13  C   UNL     1       1.025  -0.727   7.194  0.00  0.00    +0.045 A 
ATOM     14  C   UNL     1       0.124  -0.450   8.207  0.00  0.00    -0.029 A 
ATOM     15  C   UNL     1      -0.376  -1.470   8.994  0.00  0.00    +0.050 A 
ATOM     16  C   UNL     1       0.019  -2.779   8.768  0.00  0.00    +0.126 A 
ATOM     17  C   UNL     1      -0.314   0.971   8.454  0.00  0.00    +0.045 C 
ATOM     18 CL   UNL     1       1.647   0.562   6.212  0.00  0.00    -0.083 Cl
BRANCH  16  19
ATOM     19  O   UNL     1      -0.476  -3.783   9.537  0.00  0.00    -0.506 OA
ATOM     20  H   UNL     1       0.048  -3.967  10.329  0.00  0.00    +0.292 HD
ENDBRANCH  16  19
ENDBRANCH   3  11
BRANCH   1  24
ATOM     21  C   UNL     1       0.360  -2.870   2.265  0.00  0.00    +0.121 A 
ATOM     22  C   UNL     1       0.251  -4.211   2.604  0.00  0.00    +0.046 A 
ATOM     23  C   UNL     1       1.091  -4.751   3.558  0.00  0.00    +0.009 A 
ATOM     24  C   UNL     1       2.040  -3.957   4.175  0.00  0.00    -0.022 A 
ATOM     25  C   UNL     1       2.151  -2.620   3.839  0.00  0.00    +0.009 A 
ATOM     26  C   UNL     1       1.317  -2.076   2.882  0.00  0.00    +0.046 A 
BRANCH  21  27
ATOM     27  O   UNL     1      -0.465  -2.336   1.326  0.00  0.00    -0.492 OA
BRANCH  27  28
ATOM     28  C   UNL     1      -1.426  -3.211   0.733  0.00  0.00    +0.229 C 
BRANCH  28  30
ATOM     29  C   UNL     1      -3.286  -3.375  -0.926  0.00  0.00    +0.007 C 
ATOM     30  C   UNL     1      -2.257  -2.437  -0.291  0.00  0.00    +0.038 C 
ENDBRANCH  28  30
ENDBRANCH  27  28
ENDBRANCH  21  27
ENDBRANCH   1  24
BRANCH  10  31
ATOM     31  C   UNL     1       4.378  -5.957   3.536  0.00  0.00    +0.144 C 
BRANCH  31  32
ATOM     32  C   UNL     1       5.824  -5.787   3.924  0.00  0.00    -0.030 A 
ATOM     33  C   UNL     1       6.404  -4.532   3.901  0.00  0.00    +0.005 A 
ATOM     34  C   UNL     1       7.731  -4.377   4.257  0.00  0.00    +0.000 A 
ATOM     35  C   UNL     1       8.478  -5.477   4.636  0.00  0.00    +0.000 A 
ATOM     36  C   UNL     1       7.898  -6.731   4.661  0.00  0.00    +0.000 A 
ATOM     37  C   UNL     1       6.570  -6.886   4.309  0.00  0.00    +0.005 A 
ENDBRANCH  31  32
ENDBRANCH  10  31
TORSDOF 8
