REMARK  Name = ZINC20425121
REMARK  12 active torsions:
REMARK  status: ('A' for Active; 'I' for Inactive)
REMARK    1  A    between atoms: C_1  and  C_2
REMARK    2  A    between atoms: C_7  and  C_8
REMARK    3  A    between atoms: C_8  and  O_9
REMARK    4  A    between atoms: O_9  and  C_10
REMARK    5  A    between atoms: C_13  and  C_15
REMARK    6  A    between atoms: N_16  and  N_17
REMARK    7  A    between atoms: C_20  and  S_23
REMARK    8  A    between atoms: S_23  and  C_24
REMARK    9  A    between atoms: C_24  and  C_25
REMARK   10  A    between atoms: C_25  and  C_27
REMARK   11  A    between atoms: C_31  and  O_33
REMARK   12  A    between atoms: O_33  and  C_34
REMARK                            x       y       z     vdW  Elec       q    Type
REMARK                         _______ _______ _______ _____ _____    ______ ____
ROOT
ATOM      1  N   UNL     1       0.066   1.045  13.684  0.00  0.00    -0.205 N 
ATOM      2  C   UNL     1       0.102   1.020  12.298  0.00  0.00    +0.232 A 
ATOM      3  N   UNL     1      -0.789   1.631  11.460  0.00  0.00    -0.186 NA
ATOM      4  C   UNL     1      -0.407   1.368  10.174  0.00  0.00    +0.210 A 
ATOM      5  N   UNL     1       0.670   0.621  10.216  0.00  0.00    -0.144 NA
ATOM      6  N   UNL     1       0.996   0.406  11.561  0.00  0.00    -0.245 N 
ATOM      7  H   UNL     1      -0.733   1.594  14.204  0.00  0.00    +0.177 HD
ATOM      8  H   UNL     1       1.815  -0.151  12.040  0.00  0.00    +0.192 HD
ENDROOT
BRANCH   1  10
ATOM      9  C   UNL     1       1.015   0.396  15.724  0.00  0.00    +0.176 C 
ATOM     10  N   UNL     1       1.048   0.372  14.423  0.00  0.00    -0.184 NA
BRANCH   9  14
ATOM     11  C   UNL     1       3.808  -1.520  16.989  0.00  0.00    +0.287 A 
ATOM     12  C   UNL     1       3.254  -1.139  18.166  0.00  0.00    +0.091 A 
ATOM     13  C   UNL     1       2.122  -0.363  17.858  0.00  0.00    +0.055 A 
ATOM     14  C   UNL     1       2.041  -0.308  16.496  0.00  0.00    +0.151 A 
ATOM     15  O   UNL     1       3.068  -1.020  15.985  0.00  0.00    -0.424 OA
BRANCH  11  16
ATOM     16  O   UNL     1       4.920  -2.283  16.848  0.00  0.00    -0.459 OA
BRANCH  16  17
ATOM     17  C   UNL     1       5.343  -2.574  15.514  0.00  0.00    +0.269 C 
BRANCH  17  24
ATOM     18  C   UNL     1       5.119  -5.454  15.555  0.00  0.00    +0.044 C 
ATOM     19  C   UNL     1       6.478  -4.803  15.575  0.00  0.00    -0.043 A 
ATOM     20  C   UNL     1       7.618  -5.585  15.613  0.00  0.00    +0.004 A 
ATOM     21  C   UNL     1       8.865  -4.990  15.631  0.00  0.00    +0.002 A 
ATOM     22  C   UNL     1       8.973  -3.612  15.612  0.00  0.00    +0.020 A 
ATOM     23  C   UNL     1       7.834  -2.829  15.568  0.00  0.00    +0.048 A 
ATOM     24  C   UNL     1       6.585  -3.426  15.555  0.00  0.00    +0.011 A 
ATOM     25 CL   UNL     1       7.970  -1.099  15.536  0.00  0.00    -0.083 Cl
ENDBRANCH  17  24
ENDBRANCH  16  17
ENDBRANCH  11  16
ENDBRANCH   9  14
ENDBRANCH   1  10
BRANCH   4  26
ATOM     26  S   UNL     1      -1.224   1.927   8.717  0.00  0.00    -0.076 S 
BRANCH  26  27
ATOM     27  C   UNL     1      -0.228   1.242   7.365  0.00  0.00    +0.157 C 
BRANCH  27  28
ATOM     28  C   UNL     1      -0.825   1.651   6.043  0.00  0.00    +0.173 C 
ATOM     29  O   UNL     1      -1.825   2.337   6.016  0.00  0.00    -0.291 OA
BRANCH  28  30
ATOM     30  C   UNL     1      -0.196   1.217   4.785  0.00  0.00    +0.022 A 
ATOM     31  C   UNL     1       0.957   0.425   4.813  0.00  0.00    +0.011 A 
ATOM     32  C   UNL     1       1.543   0.021   3.632  0.00  0.00    +0.004 A 
ATOM     33  C   UNL     1       0.992   0.392   2.419  0.00  0.00    +0.045 A 
ATOM     34  C   UNL     1      -0.149   1.182   2.380  0.00  0.00    +0.121 A 
ATOM     35  C   UNL     1      -0.747   1.595   3.558  0.00  0.00    +0.057 A 
BRANCH  34  36
ATOM     36  O   UNL     1      -0.682   1.547   1.184  0.00  0.00    -0.495 OA
ATOM     37  C   UNL     1      -0.013   1.086   0.008  0.00  0.00    +0.277 C 
ENDBRANCH  34  36
ENDBRANCH  28  30
ENDBRANCH  27  28
ENDBRANCH  26  27
ENDBRANCH   4  26
TORSDOF 10
