REMARK  Name = ZINC39922550
REMARK  6 active torsions:
REMARK  status: ('A' for Active; 'I' for Inactive)
REMARK    1  A    between atoms: C_1  and  O_2
REMARK    2  A    between atoms: O_2  and  C_3
REMARK    3  A    between atoms: C_6  and  C_9
REMARK    4  A    between atoms: C_12  and  C_16
REMARK    5  A    between atoms: N_18  and  N_19
REMARK    6  A    between atoms: C_20  and  C_21
REMARK                            x       y       z     vdW  Elec       q    Type
REMARK                         _______ _______ _______ _____ _____    ______ ____
ROOT
ATOM      1  C   UNL     1      -7.481  -4.375  -0.960  0.00  0.00    +0.259 C 
ATOM      2  O   UNL     1      -8.036  -4.262   0.112  0.00  0.00    -0.272 OA
ATOM      3  N   UNL     1      -8.206  -4.383  -2.097  0.00  0.00    -0.205 N 
ATOM      4  H   UNL     1      -7.762  -4.473  -2.954  0.00  0.00    +0.177 HD
ENDROOT
BRANCH   1   7
ATOM      5  C   UNL     1      -4.981  -2.629   0.035  0.00  0.00    +0.131 C 
ATOM      6  C   UNL     1      -5.332  -3.146  -1.383  0.00  0.00    +0.069 C 
ATOM      7  C   UNL     1      -5.981  -4.505  -1.022  0.00  0.00    +0.215 C 
ATOM      8  N   UNL     1      -5.434  -4.821   0.304  0.00  0.00    -0.203 NA
ATOM      9  N   UNL     1      -4.916  -3.846   0.855  0.00  0.00    -0.305 N 
ATOM     10  H   UNL     1      -4.509  -3.879   1.734  0.00  0.00    +0.183 HD
BRANCH   5  14
ATOM     11  C   UNL     1      -1.200  -0.637   0.010  0.00  0.00    +0.120 A 
ATOM     12  C   UNL     1      -2.375   0.101   0.019  0.00  0.00    +0.046 A 
ATOM     13  C   UNL     1      -3.596  -0.545   0.027  0.00  0.00    +0.009 A 
ATOM     14  C   UNL     1      -3.648  -1.927   0.026  0.00  0.00    -0.023 A 
ATOM     15  C   UNL     1      -2.479  -2.665   0.017  0.00  0.00    +0.009 A 
ATOM     16  C   UNL     1      -1.255  -2.024   0.003  0.00  0.00    +0.046 A 
BRANCH  11  18
ATOM     17  C   UNL     1      -0.017   1.425   0.010  0.00  0.00    +0.277 C 
ATOM     18  O   UNL     1       0.002  -0.004   0.002  0.00  0.00    -0.495 OA
ENDBRANCH  11  18
ENDBRANCH   5  14
ENDBRANCH   1   7
BRANCH   3  19
ATOM     19  N   UNL     1      -9.600  -4.261  -2.039  0.00  0.00    -0.188 NA
ATOM     20  C   UNL     1     -10.304  -4.269  -3.143  0.00  0.00    +0.136 C 
BRANCH  20  21
ATOM     21  C   UNL     1     -11.700  -4.147  -3.086  0.00  0.00    +0.000 C 
ATOM     22  C   UNL     1     -12.590  -4.143  -4.157  0.00  0.00    +0.004 A 
ATOM     23  C   UNL     1     -12.403  -4.250  -5.553  0.00  0.00    +0.010 A 
ATOM     24  C   UNL     1     -13.478  -4.214  -6.380  0.00  0.00    +0.001 A 
ATOM     25  C   UNL     1     -14.778  -4.072  -5.886  0.00  0.00    +0.002 A 
ATOM     26  C   UNL     1     -15.032  -3.963  -4.561  0.00  0.00    +0.026 A 
ATOM     27  C   UNL     1     -13.958  -3.993  -3.631  0.00  0.00    +0.043 A 
ATOM     28  N   UNL     1     -13.940  -3.907  -2.318  0.00  0.00    -0.380 N 
ATOM     29  C   UNL     1     -12.555  -4.000  -1.846  0.00  0.00    +0.150 C 
ATOM     30  H   UNL     1     -14.720  -3.804  -1.751  0.00  0.00    +0.160 HD
ENDBRANCH  20  21
ENDBRANCH   3  19
TORSDOF 5
