REMARK  Name = ZINC38925871
REMARK  7 active torsions:
REMARK  status: ('A' for Active; 'I' for Inactive)
REMARK    1  A    between atoms: C_1  and  C_2
REMARK    2  A    between atoms: C_7  and  C_8
REMARK    3  A    between atoms: N_14  and  N_15
REMARK    4  A    between atoms: C_16  and  C_17
REMARK    5  A    between atoms: C_20  and  C_23
REMARK    6  A    between atoms: C_23  and  C_24
REMARK    7  A    between atoms: C_23  and  C_25
REMARK                            x       y       z     vdW  Elec       q    Type
REMARK                         _______ _______ _______ _____ _____    ______ ____
ROOT
ATOM      1  C   UNL     1      -1.761  -0.202   4.085  0.00  0.00    +0.264 C 
ATOM      2  N   UNL     1      -1.568   0.907   3.138  0.00  0.00    -0.189 NA
ATOM      3  N   UNL     1      -0.598   0.638   2.424  0.00  0.00    -0.219 N 
ATOM      4  C   UNL     1      -0.025  -0.559   2.721  0.00  0.00    +0.174 C 
ATOM      5  S   UNL     1       1.334  -1.221   1.918  0.00  0.00    -0.015 S 
ATOM      6  N   UNL     1      -0.687  -1.153   3.743  0.00  0.00    -0.172 N 
ATOM      7  H   UNL     1      -0.276   1.223   1.721  0.00  0.00    +0.176 HD
ENDROOT
BRANCH   1  14
ATOM      8  C   UNL     1      -4.068   0.742   5.546  0.00  0.00    +0.044 C 
ATOM      9  C   UNL     1      -2.712   0.733   6.203  0.00  0.00    -0.044 A 
ATOM     10  C   UNL     1      -2.573   1.170   7.507  0.00  0.00    +0.004 A 
ATOM     11  C   UNL     1      -1.329   1.162   8.110  0.00  0.00    +0.000 A 
ATOM     12  C   UNL     1      -0.224   0.716   7.409  0.00  0.00    +0.000 A 
ATOM     13  C   UNL     1      -0.363   0.277   6.106  0.00  0.00    +0.008 A 
ATOM     14  C   UNL     1      -1.608   0.281   5.504  0.00  0.00    +0.001 A 
ENDBRANCH   1  14
BRANCH   6  15
ATOM     15  N   UNL     1      -0.413  -2.389   4.342  0.00  0.00    -0.183 NA
ATOM     16  C   UNL     1      -1.213  -2.862   5.249  0.00  0.00    +0.138 C 
BRANCH  16  17
ATOM     17  C   UNL     1      -0.987  -4.210   5.801  0.00  0.00    -0.005 A 
ATOM     18  C   UNL     1       0.090  -4.980   5.355  0.00  0.00    +0.010 A 
ATOM     19  C   UNL     1       0.296  -6.240   5.876  0.00  0.00    +0.004 A 
ATOM     20  C   UNL     1      -0.562  -6.743   6.838  0.00  0.00    -0.045 A 
ATOM     21  C   UNL     1      -1.631  -5.987   7.285  0.00  0.00    +0.004 A 
ATOM     22  C   UNL     1      -1.845  -4.722   6.777  0.00  0.00    +0.010 A 
BRANCH  20  23
ATOM     23  C   UNL     1      -0.331  -8.122   7.402  0.00  0.00    +0.013 C 
ATOM     24  C   UNL     1      -0.112  -8.024   8.913  0.00  0.00    +0.012 C 
ATOM     25  C   UNL     1      -1.552  -8.999   7.119  0.00  0.00    +0.012 C 
ENDBRANCH  20  23
ENDBRANCH  16  17
ENDBRANCH   6  15
TORSDOF 4
