REMARK  Name = ZINC35730504
REMARK  14 active torsions:
REMARK  status: ('A' for Active; 'I' for Inactive)
REMARK    1  A    between atoms: C_1  and  C_2
REMARK    2  A    between atoms: C_2  and  C_3
REMARK    3  A    between atoms: C_2  and  C_4
REMARK    4  A    between atoms: C_4  and  N_5
REMARK    5  A    between atoms: C_6  and  C_8
REMARK    6  A    between atoms: C_11  and  C_13
REMARK    7  A    between atoms: C_13  and  N_14
REMARK    8  A    between atoms: N_14  and  C_15
REMARK    9  A    between atoms: C_15  and  C_16
REMARK   10  A    between atoms: C_16  and  C_17
REMARK   11  A    between atoms: C_16  and  C_18
REMARK   12  A    between atoms: N_21  and  C_22
REMARK   13  A    between atoms: C_24  and  C_32
REMARK   14  A    between atoms: C_26  and  C_28
REMARK                            x       y       z     vdW  Elec       q    Type
REMARK                         _______ _______ _______ _____ _____    ______ ____
ROOT
ATOM      1  N   UNL     1      -3.052   0.736  -6.902  0.00  0.00    -0.279 N 
ATOM      2  C   UNL     1      -1.738   0.443  -6.859  0.00  0.00    +0.307 C 
ATOM      3  O   UNL     1      -1.030   0.945  -6.007  0.00  0.00    -0.252 OA
ATOM      4  N   UNL     1      -1.207  -0.408  -7.760  0.00  0.00    -0.269 N 
ATOM      5  H   UNL     1      -1.782  -0.860  -8.397  0.00  0.00    +0.156 HD
ENDROOT
BRANCH   4   6
ATOM      6  C   UNL     1       0.173  -0.639  -7.776  0.00  0.00    +0.036 A 
ATOM      7  C   UNL     1       0.829  -0.848  -8.982  0.00  0.00    +0.035 A 
ATOM      8  C   UNL     1       2.191  -1.076  -8.995  0.00  0.00    +0.057 A 
ATOM      9  C   UNL     1       2.902  -1.095  -7.809  0.00  0.00    +0.024 A 
ATOM     10  C   UNL     1       2.251  -0.887  -6.606  0.00  0.00    +0.057 A 
ATOM     11  C   UNL     1       0.890  -0.653  -6.587  0.00  0.00    +0.035 A 
BRANCH  10  12
ATOM     12  C   UNL     1       3.029  -0.909  -5.316  0.00  0.00    +0.417 C 
ATOM     13  F   UNL     1       3.485   0.381  -5.024  0.00  0.00    -0.166 F 
ATOM     14  F   UNL     1       2.202  -1.356  -4.280  0.00  0.00    -0.166 F 
ATOM     15  F   UNL     1       4.123  -1.772  -5.445  0.00  0.00    -0.166 F 
ENDBRANCH  10  12
BRANCH   8  16
ATOM     16  C   UNL     1       2.904  -1.304 -10.303  0.00  0.00    +0.417 C 
ATOM     17  F   UNL     1       1.983  -1.239 -11.354  0.00  0.00    -0.166 F 
ATOM     18  F   UNL     1       3.882  -0.319 -10.479  0.00  0.00    -0.166 F 
ATOM     19  F   UNL     1       3.509  -2.565 -10.291  0.00  0.00    -0.166 F 
ENDBRANCH   8  16
ENDBRANCH   4   6
BRANCH   1  20
ATOM     20  C   UNL     1      -3.629   1.661  -5.922  0.00  0.00    +0.172 C 
BRANCH  20  24
ATOM     21  C   UNL     1      -4.040  -0.112  -2.681  0.00  0.00    +0.133 A 
ATOM     22  C   UNL     1      -5.341  -0.459  -2.929  0.00  0.00    +0.080 A 
ATOM     23  S   UNL     1      -5.609   0.206  -4.448  0.00  0.00    -0.078 S 
ATOM     24  C   UNL     1      -4.098   0.887  -4.717  0.00  0.00    +0.096 A 
ATOM     25  N   UNL     1      -3.428   0.594  -3.637  0.00  0.00    -0.238 NA
BRANCH  21  27
ATOM     26  N   UNL     1      -2.076  -0.124  -1.228  0.00  0.00    -0.310 N 
ATOM     27  C   UNL     1      -3.356  -0.491  -1.433  0.00  0.00    +0.263 C 
ATOM     28  O   UNL     1      -3.948  -1.135  -0.587  0.00  0.00    -0.269 OA
ATOM     29  H   UNL     1      -1.604   0.389  -1.902  0.00  0.00    +0.149 HD
BRANCH  26  30
ATOM     30  C   UNL     1      -1.396  -0.501   0.014  0.00  0.00    +0.107 C 
BRANCH  30  32
ATOM     31  C   UNL     1       0.009   1.565  -0.004  0.00  0.00    +0.009 C 
ATOM     32  C   UNL     1       0.037   0.035  -0.006  0.00  0.00    -0.000 C 
ATOM     33  C   UNL     1       0.785  -0.463   1.233  0.00  0.00    +0.009 C 
ENDBRANCH  30  32
ENDBRANCH  26  30
ENDBRANCH  21  27
ENDBRANCH  20  24
ENDBRANCH   1  20
BRANCH   1  34
ATOM     34  C   UNL     1      -3.905   0.131  -7.928  0.00  0.00    +0.112 C 
BRANCH  34  35
ATOM     35  C   UNL     1      -3.925   1.028  -9.168  0.00  0.00    +0.000 C 
ATOM     36  C   UNL     1      -4.713   0.338 -10.283  0.00  0.00    +0.009 C 
ATOM     37  C   UNL     1      -4.592   2.361  -8.822  0.00  0.00    +0.009 C 
ENDBRANCH  34  35
ENDBRANCH   1  34
TORSDOF 10
