REMARK  Name = ZINC05626362
REMARK  5 active torsions:
REMARK  status: ('A' for Active; 'I' for Inactive)
REMARK    1  A    between atoms: C_4  and  C_7
REMARK    2  A    between atoms: C_7  and  C_8
REMARK    3  A    between atoms: C_8  and  N_9
REMARK    4  A    between atoms: C_10  and  O_32
REMARK    5  A    between atoms: C_11  and  C_18
REMARK                            x       y       z     vdW  Elec       q    Type
REMARK                         _______ _______ _______ _____ _____    ______ ____
ROOT
ATOM      1  N   UNL     1      -1.198   3.550   0.032  0.00  0.00    -0.292 N 
ATOM      2  C   UNL     1      -1.203   2.178   0.019  0.00  0.00    +0.202 A 
ATOM      3  C   UNL     1      -0.018   1.503   0.010  0.00  0.00    +0.068 A 
ATOM      4  C   UNL     1       1.184   2.232   0.003  0.00  0.00    +0.258 A 
ATOM      5  O   UNL     1       2.255   1.650  -0.011  0.00  0.00    -0.267 OA
ATOM      6  N   UNL     1       1.144   3.579   0.010  0.00  0.00    -0.302 N 
ATOM      7  H   UNL     1       1.971   4.086   0.005  0.00  0.00    +0.171 HD
ATOM      8  C   UNL     1      -0.035   4.227   0.024  0.00  0.00    +0.163 A 
ATOM      9  S   UNL     1      -0.057   5.939   0.034  0.00  0.00    -0.013 S 
ENDROOT
BRANCH   3  10
ATOM     10  C   UNL     1       0.002  -0.004   0.002  0.00  0.00    +0.018 C 
ATOM     11  C   UNL     1       0.631  -0.510   1.278  0.00  0.00    +0.011 A 
ATOM     12  C   UNL     1       1.535  -1.520   1.301  0.00  0.00    -0.022 A 
ATOM     13  C   UNL     1       1.917  -1.719   2.682  0.00  0.00    +0.003 A 
ATOM     14  C   UNL     1       2.798  -2.606   3.307  0.00  0.00    +0.010 A 
ATOM     15  C   UNL     1       2.914  -2.508   4.672  0.00  0.00    +0.001 A 
ATOM     16  C   UNL     1       2.197  -1.578   5.407  0.00  0.00    +0.002 A 
ATOM     17  C   UNL     1       1.318  -0.689   4.815  0.00  0.00    +0.026 A 
ATOM     18  C   UNL     1       1.179  -0.764   3.430  0.00  0.00    +0.047 A 
ATOM     19  N   UNL     1       0.417  -0.054   2.547  0.00  0.00    -0.359 N 
ATOM     20  H   UNL     1      -0.189   0.665   2.786  0.00  0.00    +0.166 HD
ATOM     21  C   UNL     1       1.999  -2.251   0.067  0.00  0.00    +0.018 C 
ATOM     22  C   UNL     1       1.018  -1.934  -1.070  0.00  0.00    -0.076 C 
ATOM     23  N   UNL     1       0.806  -0.474  -1.148  0.00  0.00    +0.388 N 
ATOM     24  H   UNL     1       1.716   0.001  -1.140  0.00  0.00    -0.084 HD
ATOM     25  H   UNL     1       0.311  -0.250  -2.019  0.00  0.00    -0.084 HD
ENDBRANCH   3  10
BRANCH   2  26
ATOM     26  O   UNL     1      -2.371   1.502   0.021  0.00  0.00    -0.493 OA
ATOM     27  H   UNL     1      -3.154   2.070   0.028  0.00  0.00    +0.294 HD
ENDBRANCH   2  26
BRANCH   1  28
ATOM     28  C   UNL     1      -2.467   4.282   0.048  0.00  0.00    +0.132 C 
BRANCH  28  29
ATOM     29  C   UNL     1      -2.922   4.544  -1.389  0.00  0.00    +0.057 C 
BRANCH  29  33
ATOM     30  C   UNL     1      -6.622   6.679  -1.343  0.00  0.00    +0.000 A 
ATOM     31  C   UNL     1      -5.425   7.370  -1.350  0.00  0.00    +0.000 A 
ATOM     32  C   UNL     1      -4.228   6.680  -1.365  0.00  0.00    +0.004 A 
ATOM     33  C   UNL     1      -4.227   5.297  -1.373  0.00  0.00    -0.046 A 
ATOM     34  C   UNL     1      -5.424   4.606  -1.371  0.00  0.00    +0.004 A 
ATOM     35  C   UNL     1      -6.622   5.296  -1.352  0.00  0.00    +0.000 A 
ENDBRANCH  29  33
ENDBRANCH  28  29
ENDBRANCH   1  28
TORSDOF 5
