REMARK  Name = ZINC06321902
REMARK  12 active torsions:
REMARK  status: ('A' for Active; 'I' for Inactive)
REMARK    1  A    between atoms: C_1  and  C_2
REMARK    2  A    between atoms: C_5  and  C_37
REMARK    3  A    between atoms: C_9  and  C_14
REMARK    4  A    between atoms: C_14  and  N_68
REMARK    5  A    between atoms: C_15  and  C_16
REMARK    6  A    between atoms: C_15  and  N_68
REMARK    7  A    between atoms: C_19  and  O_22
REMARK    8  A    between atoms: O_22  and  C_23
REMARK    9  A    between atoms: C_24  and  C_25
REMARK   10  A    between atoms: C_24  and  N_68
REMARK   11  A    between atoms: N_29  and  C_30
REMARK   12  A    between atoms: C_30  and  C_31
REMARK                            x       y       z     vdW  Elec       q    Type
REMARK                         _______ _______ _______ _____ _____    ______ ____
ROOT
ATOM      1  N   UNL     1       1.562  -3.023  -5.214  0.00  0.00    +0.390 N 
ATOM      2  H   UNL     1       1.331  -2.096  -5.591  0.00  0.00    -0.080 HD
ENDROOT
BRANCH   1   3
ATOM      3  C   UNL     1       0.312  -3.716  -4.840  0.00  0.00    -0.036 C 
BRANCH   3  12
ATOM      4  C   UNL     1       1.162  -6.072  -0.275  0.00  0.00    +0.044 C 
ATOM      5  C   UNL     1       1.245  -7.128  -1.347  0.00  0.00    -0.041 A 
ATOM      6  C   UNL     1       1.504  -8.427  -1.011  0.00  0.00    +0.004 A 
ATOM      7  C   UNL     1       1.581  -9.408  -1.990  0.00  0.00    +0.005 A 
ATOM      8  C   UNL     1       1.398  -9.091  -3.319  0.00  0.00    -0.026 A 
ATOM      9  C   UNL     1       1.133  -7.776  -3.685  0.00  0.00    +0.052 A 
ATOM     10  C   UNL     1       1.056  -6.784  -2.689  0.00  0.00    +0.002 A 
ATOM     11  C   UNL     1       0.776  -5.402  -3.084  0.00  0.00    +0.017 A 
ATOM     12  C   UNL     1       0.601  -5.128  -4.400  0.00  0.00    +0.001 A 
ATOM     13  C   UNL     1       0.684  -6.160  -5.359  0.00  0.00    +0.251 A 
ATOM     14  O   UNL     1       0.518  -5.892  -6.536  0.00  0.00    -0.268 OA
ATOM     15  N   UNL     1       0.946  -7.431  -5.006  0.00  0.00    -0.322 N 
ATOM     16  H   UNL     1       1.000  -8.115  -5.691  0.00  0.00    +0.169 HD
ATOM     17  C   UNL     1       1.484 -10.166  -4.371  0.00  0.00    +0.046 C 
ENDBRANCH   3  12
ENDBRANCH   1   3
BRANCH   1  18
ATOM     18  C   UNL     1       2.423  -2.856  -4.024  0.00  0.00    -0.042 C 
BRANCH  18  19
ATOM     19  C   UNL     1       1.873  -1.731  -3.185  0.00  0.00    -0.064 A 
ATOM     20  C   UNL     1       0.905  -1.990  -2.232  0.00  0.00    +0.005 A 
ATOM     21  C   UNL     1       0.400  -0.961  -1.461  0.00  0.00    +0.046 A 
ATOM     22  C   UNL     1       0.865   0.333  -1.644  0.00  0.00    +0.120 A 
ATOM     23  C   UNL     1       1.831   0.592  -2.605  0.00  0.00    +0.046 A 
ATOM     24  C   UNL     1       2.337  -0.442  -3.369  0.00  0.00    +0.005 A 
BRANCH  22  25
ATOM     25  O   UNL     1       0.369   1.347  -0.887  0.00  0.00    -0.495 OA
ATOM     26  C   UNL     1       0.894   2.654  -1.130  0.00  0.00    +0.277 C 
ENDBRANCH  22  25
ENDBRANCH  18  19
ENDBRANCH   1  18
BRANCH   1  27
ATOM     27  C   UNL     1       2.278  -3.796  -6.250  0.00  0.00    +0.001 C 
BRANCH  27  28
ATOM     28  C   UNL     1       3.399  -2.952  -6.799  0.00  0.00    +0.135 A 
ATOM     29  N   UNL     1       4.650  -2.961  -6.408  0.00  0.00    -0.115 NA
ATOM     30  N   UNL     1       5.296  -2.102  -7.118  0.00  0.00    -0.023 NA
ATOM     31  N   UNL     1       4.489  -1.544  -7.952  0.00  0.00    -0.044 NA
ATOM     32  N   UNL     1       3.311  -2.045  -7.790  0.00  0.00    -0.229 N 
BRANCH  32  33
ATOM     33  C   UNL     1       2.104  -1.692  -8.541  0.00  0.00    +0.178 C 
BRANCH  33  34
ATOM     34  C   UNL     1       1.466  -0.446  -7.924  0.00  0.00    +0.140 C 
ATOM     35  C   UNL     1       0.180  -0.061  -8.698  0.00  0.00    +0.035 C 
ATOM     36  C   UNL     1      -0.600   0.719  -7.602  0.00  0.00    +0.031 C 
ATOM     37  C   UNL     1      -0.195  -0.030  -6.314  0.00  0.00    +0.160 C 
ATOM     38  O   UNL     1       1.031  -0.722  -6.583  0.00  0.00    -0.375 OA
ENDBRANCH  33  34
ENDBRANCH  32  33
ENDBRANCH  27  28
ENDBRANCH   1  27
TORSDOF 9
