REMARK  Name = ZINC36541893
REMARK  9 active torsions:
REMARK  status: ('A' for Active; 'I' for Inactive)
REMARK    1  A    between atoms: C_5  and  N_7
REMARK    2  A    between atoms: N_7  and  C_8
REMARK    3  A    between atoms: C_8  and  C_10
REMARK    4  A    between atoms: C_8  and  C_19
REMARK    5  A    between atoms: C_13  and  N_16
REMARK    6  A    between atoms: N_21  and  C_22
REMARK    7  A    between atoms: C_28  and  C_30
REMARK    8  A    between atoms: C_30  and  C_31
REMARK    9  A    between atoms: C_31  and  C_32
REMARK                            x       y       z     vdW  Elec       q    Type
REMARK                         _______ _______ _______ _____ _____    ______ ____
ROOT
ATOM      1  C   UNL     1       1.125  -2.807  -1.290  0.00  0.00    +0.197 C 
ENDROOT
BRANCH   1   2
ATOM      2  C   UNL     1      -0.308  -2.933  -0.841  0.00  0.00    -0.018 A 
ATOM      3  C   UNL     1      -0.899  -1.913  -0.118  0.00  0.00    +0.008 A 
ATOM      4  C   UNL     1      -2.213  -2.028   0.293  0.00  0.00    +0.033 A 
ATOM      5  C   UNL     1      -2.938  -3.164  -0.018  0.00  0.00    +0.126 A 
ATOM      6  C   UNL     1      -2.348  -4.184  -0.741  0.00  0.00    +0.033 A 
ATOM      7  C   UNL     1      -1.034  -4.066  -1.156  0.00  0.00    +0.008 A 
BRANCH   5   8
ATOM      8  N   UNL     1      -4.345  -3.288   0.424  0.00  0.00    +0.056 N 
ATOM      9  O   UNL     1      -4.861  -2.396   1.057  0.00  0.00    -0.126 OA
ATOM     10  O   UNL     1      -4.978  -4.281   0.152  0.00  0.00    -0.126 OA
ENDBRANCH   5   8
ENDBRANCH   1   2
BRANCH   1  11
ATOM     11  C   UNL     1       1.212  -1.810  -2.416  0.00  0.00    +0.239 C 
ATOM     12  O   UNL     1       1.281  -0.624  -2.172  0.00  0.00    -0.273 OA
ATOM     13  N   UNL     1       1.214  -2.236  -3.695  0.00  0.00    -0.311 N 
ATOM     14  H   UNL     1       1.159  -3.185  -3.890  0.00  0.00    +0.149 HD
BRANCH  13  15
ATOM     15  C   UNL     1       1.299  -1.267  -4.790  0.00  0.00    +0.073 C 
ATOM     16  C   UNL     1      -0.101  -0.746  -5.120  0.00  0.00    +0.022 C 
ATOM     17  C   UNL     1      -0.012   0.266  -6.264  0.00  0.00    +0.002 C 
ATOM     18  C   UNL     1       0.584  -0.411  -7.499  0.00  0.00    +0.000 C 
ATOM     19  C   UNL     1       1.984  -0.933  -7.170  0.00  0.00    +0.002 C 
ATOM     20  C   UNL     1       1.895  -1.945  -6.026  0.00  0.00    +0.022 C 
ENDBRANCH  13  15
ENDBRANCH   1  11
BRANCH   1  21
ATOM     21  N   UNL     1       1.949  -2.350  -0.168  0.00  0.00    -0.254 N 
ATOM     22  C   UNL     1       2.140  -3.151   0.898  0.00  0.00    +0.221 C 
ATOM     23  O   UNL     1       1.629  -4.251   0.930  0.00  0.00    -0.275 OA
BRANCH  21  28
ATOM     24  C   UNL     1       2.596   1.205   0.517  0.00  0.00    +0.002 A 
ATOM     25  C   UNL     1       3.705   1.428  -0.277  0.00  0.00    +0.002 A 
ATOM     26  C   UNL     1       4.234   0.400  -1.036  0.00  0.00    +0.022 A 
ATOM     27  C   UNL     1       3.654  -0.854  -1.002  0.00  0.00    +0.062 A 
ATOM     28  C   UNL     1       2.539  -1.081  -0.204  0.00  0.00    +0.056 A 
ATOM     29  C   UNL     1       2.012  -0.046   0.556  0.00  0.00    +0.025 A 
ATOM     30 CL   UNL     1       4.318  -2.144  -1.956  0.00  0.00    -0.082 Cl
ENDBRANCH  21  28
BRANCH  22  31
ATOM     31  C   UNL     1       2.988  -2.682   2.052  0.00  0.00    +0.096 C 
BRANCH  31  32
ATOM     32  C   UNL     1       3.042  -3.773   3.123  0.00  0.00    +0.013 C 
BRANCH  32  33
ATOM     33  C   UNL     1       3.903  -3.296   4.294  0.00  0.00    -0.011 C 
ATOM     34  C   UNL     1       5.348  -3.118   3.825  0.00  0.00    +0.003 C 
ATOM     35  C   UNL     1       6.210  -2.641   4.996  0.00  0.00    +0.000 C 
ATOM     36  C   UNL     1       6.162  -3.678   6.120  0.00  0.00    +0.000 C 
ATOM     37  C   UNL     1       4.717  -3.856   6.589  0.00  0.00    +0.000 C 
ATOM     38  C   UNL     1       3.856  -4.333   5.418  0.00  0.00    +0.003 C 
ENDBRANCH  32  33
ENDBRANCH  31  32
ENDBRANCH  22  31
ENDBRANCH   1  21
TORSDOF 9
