REMARK  Name = ZINC39962596
REMARK  10 active torsions:
REMARK  status: ('A' for Active; 'I' for Inactive)
REMARK    1  A    between atoms: C_1  and  C_2
REMARK    2  A    between atoms: C_2  and  O_3
REMARK    3  A    between atoms: O_3  and  C_4
REMARK    4  A    between atoms: C_6  and  C_14
REMARK    5  A    between atoms: C_9  and  O_10
REMARK    6  A    between atoms: O_10  and  C_11
REMARK    7  A    between atoms: C_11  and  C_12
REMARK    8  A    between atoms: C_16  and  C_27
REMARK    9  A    between atoms: C_17  and  N_26
REMARK   10  A    between atoms: C_22  and  C_25
REMARK                            x       y       z     vdW  Elec       q    Type
REMARK                         _______ _______ _______ _____ _____    ______ ____
ROOT
ATOM      1  C   UNL     1      -0.229  -4.968   0.478  0.00  0.00    +0.098 C 
ATOM      2  C   UNL     1       0.854  -5.875   1.036  0.00  0.00    +0.097 C 
ATOM      3  C   UNL     1       0.887  -7.195   0.758  0.00  0.00    +0.195 C 
ATOM      4  O   UNL     1       0.005  -7.880   0.008  0.00  0.00    -0.448 OA
ATOM      5  C   UNL     1      -0.785  -7.136  -0.923  0.00  0.00    +0.343 C 
ATOM      6  C   UNL     1      -1.236  -5.886  -0.157  0.00  0.00    +0.030 C 
ATOM      7  C   UNL     1      -2.545  -5.899  -0.220  0.00  0.00    +0.066 C 
ATOM      8  N   UNL     1      -2.977  -7.034  -0.828  0.00  0.00    -0.155 NA
ATOM      9  N   UNL     1      -2.057  -7.793  -1.233  0.00  0.00    -0.138 NA
ATOM     10  C   UNL     1      -3.443  -4.810   0.307  0.00  0.00    +0.067 C 
ENDROOT
BRANCH   1  13
ATOM     11  C   UNL     1       0.777  -1.811  -1.336  0.00  0.00    +0.163 A 
ATOM     12  C   UNL     1       0.243  -2.669  -0.388  0.00  0.00    +0.054 A 
ATOM     13  C   UNL     1       0.352  -4.037  -0.554  0.00  0.00    -0.030 A 
ATOM     14  C   UNL     1       0.992  -4.553  -1.666  0.00  0.00    +0.022 A 
ATOM     15  C   UNL     1       1.527  -3.702  -2.616  0.00  0.00    +0.059 A 
ATOM     16  C   UNL     1       1.416  -2.329  -2.458  0.00  0.00    +0.175 A 
ATOM     17  I   UNL     1       2.497  -4.488  -4.298  0.00  0.00    -0.040 I 
BRANCH  11  18
ATOM     18  O   UNL     1       0.671  -0.465  -1.174  0.00  0.00    -0.489 OA
BRANCH  18  20
ATOM     19  C   UNL     1      -0.019   1.526   0.010  0.00  0.00    +0.048 C 
ATOM     20  C   UNL     1       0.002  -0.004   0.002  0.00  0.00    +0.226 C 
ENDBRANCH  18  20
ENDBRANCH  11  18
BRANCH  16  21
ATOM     21  O   UNL     1       1.936  -1.492  -3.394  0.00  0.00    -0.488 OA
BRANCH  21  22
ATOM     22  C   UNL     1       3.293  -1.080  -3.215  0.00  0.00    +0.226 C 
ATOM     23  C   UNL     1       3.698  -0.147  -4.358  0.00  0.00    +0.048 C 
ENDBRANCH  21  22
ENDBRANCH  16  21
ENDBRANCH   1  13
BRANCH   3  24
ATOM     24  N   UNL     1       1.927  -7.911   1.294  0.00  0.00    -0.329 N 
ATOM     25  H   UNL     1       2.591  -7.465   1.843  0.00  0.00    +0.145 HD
ATOM     26  H   UNL     1       1.998  -8.864   1.125  0.00  0.00    +0.145 HD
ENDBRANCH   3  24
BRANCH   2  27
ATOM     27  C   UNL     1       1.866  -5.314   1.879  0.00  0.00    +0.101 C 
ATOM     28  N   UNL     1       2.670  -4.869   2.548  0.00  0.00    -0.191 NA
ENDBRANCH   2  27
TORSDOF 7
