REMARK  Name = ZINC15643294
REMARK  7 active torsions:
REMARK  status: ('A' for Active; 'I' for Inactive)
REMARK    1  A    between atoms: C_4  and  C_7
REMARK    2  A    between atoms: C_12  and  N_13
REMARK    3  A    between atoms: C_14  and  C_16
REMARK    4  A    between atoms: C_16  and  S_17
REMARK    5  A    between atoms: S_17  and  C_18
REMARK    6  A    between atoms: C_21  and  C_27
REMARK    7  A    between atoms: C_23  and  N_24
REMARK                            x       y       z     vdW  Elec       q    Type
REMARK                         _______ _______ _______ _____ _____    ______ ____
ROOT
ATOM      1  N   UNL     1       2.968  -2.064   1.819  0.00  0.00    -0.284 N 
ATOM      2  C   UNL     1       3.166  -3.118   2.636  0.00  0.00    +0.227 C 
ATOM      3  O   UNL     1       4.226  -3.707   2.621  0.00  0.00    -0.275 OA
ATOM      4  H   UNL     1       2.146  -1.553   1.877  0.00  0.00    +0.155 HD
ENDROOT
BRANCH   1  10
ATOM      5  C   UNL     1       3.577  -1.201  -0.362  0.00  0.00    +0.003 A 
ATOM      6  C   UNL     1       4.562  -0.844  -1.280  0.00  0.00    +0.010 A 
ATOM      7  C   UNL     1       5.894  -0.997  -0.956  0.00  0.00    +0.001 A 
ATOM      8  C   UNL     1       6.258  -1.505   0.279  0.00  0.00    +0.002 A 
ATOM      9  C   UNL     1       5.291  -1.863   1.198  0.00  0.00    +0.024 A 
ATOM     10  C   UNL     1       3.948  -1.708   0.889  0.00  0.00    +0.041 A 
BRANCH   5  14
ATOM     11  C   UNL     1      -0.532  -0.735  -1.346  0.00  0.00    +0.000 A 
ATOM     12  C   UNL     1       0.345   0.317  -1.538  0.00  0.00    +0.001 A 
ATOM     13  C   UNL     1       1.681   0.171  -1.220  0.00  0.00    +0.008 A 
ATOM     14  C   UNL     1       2.144  -1.038  -0.705  0.00  0.00    -0.016 A 
ATOM     15  C   UNL     1       1.255  -2.095  -0.514  0.00  0.00    +0.008 A 
ATOM     16  C   UNL     1      -0.078  -1.938  -0.836  0.00  0.00    +0.001 A 
ENDBRANCH   5  14
ENDBRANCH   1  10
BRANCH   2  17
ATOM     17  C   UNL     1       2.070  -3.565   3.569  0.00  0.00    +0.170 C 
BRANCH  17  18
ATOM     18  S   UNL     1       2.638  -4.995   4.529  0.00  0.00    -0.114 S 
BRANCH  18  19
ATOM     19  C   UNL     1       1.263  -5.392   5.557  0.00  0.00    +0.039 A 
ATOM     20  C   UNL     1       0.094  -4.639   5.475  0.00  0.00    +0.018 A 
ATOM     21  C   UNL     1      -0.975  -4.942   6.269  0.00  0.00    +0.014 A 
ATOM     22  C   UNL     1      -0.899  -6.011   7.168  0.00  0.00    +0.039 A 
ATOM     23  C   UNL     1       0.274  -6.768   7.252  0.00  0.00    +0.047 A 
ATOM     24  C   UNL     1       1.345  -6.462   6.445  0.00  0.00    +0.140 A 
BRANCH  22  25
ATOM     25  C   UNL     1      -2.053  -6.337   8.027  0.00  0.00    +0.242 C 
ATOM     26  O   UNL     1      -1.985  -7.267   8.808  0.00  0.00    -0.270 OA
ATOM     27  N   UNL     1      -3.182  -5.606   7.945  0.00  0.00    -0.325 N 
ATOM     28  H   UNL     1      -3.235  -4.865   7.322  0.00  0.00    +0.145 HD
ATOM     29  H   UNL     1      -3.941  -5.821   8.510  0.00  0.00    +0.145 HD
ENDBRANCH  22  25
BRANCH  24  30
ATOM     30  N   UNL     1       2.587  -7.264   6.526  0.00  0.00    +0.058 N 
ATOM     31  O   UNL     1       2.657  -8.193   7.297  0.00  0.00    -0.126 OA
ATOM     32  O   UNL     1       3.530  -6.991   5.820  0.00  0.00    -0.126 OA
ENDBRANCH  24  30
ENDBRANCH  18  19
ENDBRANCH  17  18
ENDBRANCH   2  17
TORSDOF 7
