REMARK  Name = ZINC05450110
REMARK  4 active torsions:
REMARK  status: ('A' for Active; 'I' for Inactive)
REMARK    1  A    between atoms: C_1  and  C_2
REMARK    2  A    between atoms: C_2  and  C_17
REMARK    3  A    between atoms: N_5  and  C_9
REMARK    4  A    between atoms: C_9  and  C_10
REMARK                            x       y       z     vdW  Elec       q    Type
REMARK                         _______ _______ _______ _____ _____    ______ ____
ROOT
ATOM      1  C   UNL     1      -1.751  -1.070  -1.420  0.00  0.00    +0.047 C 
ATOM      2  C   UNL     1      -1.294  -0.774   0.010  0.00  0.00    +0.135 C 
ATOM      3  C   UNL     1      -1.147  -2.057   0.803  0.00  0.00    +0.251 C 
ATOM      4  O   UNL     1      -0.397  -2.981   0.568  0.00  0.00    -0.272 OA
ATOM      5  N   UNL     1      -2.023  -1.958   1.822  0.00  0.00    -0.219 N 
ATOM      6  C   UNL     1      -2.696  -0.803   1.783  0.00  0.00    +0.310 C 
ATOM      7  O   UNL     1      -3.541  -0.486   2.597  0.00  0.00    -0.252 OA
ATOM      8  N   UNL     1      -2.333  -0.031   0.743  0.00  0.00    -0.281 N 
ATOM      9  H   UNL     1      -2.687   0.844   0.519  0.00  0.00    +0.152 HD
ENDROOT
BRANCH   2  10
ATOM     10  C   UNL     1       0.002  -0.004   0.002  0.00  0.00    -0.012 A 
ATOM     11  C   UNL     1       1.207  -0.682  -0.013  0.00  0.00    +0.010 A 
ATOM     12  C   UNL     1       2.398   0.019  -0.021  0.00  0.00    +0.050 A 
ATOM     13  C   UNL     1       2.387   1.405  -0.014  0.00  0.00    +0.166 A 
ATOM     14  C   UNL     1       1.173   2.088   0.002  0.00  0.00    +0.167 A 
ATOM     15  C   UNL     1      -0.017   1.378   0.010  0.00  0.00    +0.055 A 
ATOM     16  O   UNL     1       1.427   3.429   0.007  0.00  0.00    -0.453 OA
ATOM     17  C   UNL     1       2.797   3.562  -0.418  0.00  0.00    +0.466 C 
ATOM     18  O   UNL     1       3.401   2.318  -0.019  0.00  0.00    -0.453 OA
ENDBRANCH   2  10
BRANCH   5  19
ATOM     19  C   UNL     1      -2.214  -2.989   2.846  0.00  0.00    +0.156 C 
BRANCH  19  20
ATOM     20  C   UNL     1      -3.282  -3.952   2.395  0.00  0.00    +0.006 A 
ATOM     21  C   UNL     1      -4.568  -3.838   2.887  0.00  0.00    +0.008 A 
ATOM     22  C   UNL     1      -5.549  -4.719   2.470  0.00  0.00    +0.000 A 
ATOM     23  C   UNL     1      -5.241  -5.721   1.568  0.00  0.00    +0.003 A 
ATOM     24  C   UNL     1      -3.954  -5.841   1.080  0.00  0.00    +0.038 A 
ATOM     25  C   UNL     1      -2.972  -4.956   1.493  0.00  0.00    +0.128 A 
ATOM     26  F   UNL     1      -1.714  -5.071   1.015  0.00  0.00    -0.205 F 
ENDBRANCH  19  20
ENDBRANCH   5  19
TORSDOF 3
