REMARK  Name = ZINC20602325
REMARK  6 active torsions:
REMARK  status: ('A' for Active; 'I' for Inactive)
REMARK    1  A    between atoms: C_6  and  C_7
REMARK    2  A    between atoms: C_10  and  C_29
REMARK    3  A    between atoms: C_15  and  C_17
REMARK    4  A    between atoms: N_19  and  N_20
REMARK    5  A    between atoms: C_21  and  C_22
REMARK    6  A    between atoms: C_29  and  C_30
REMARK                            x       y       z     vdW  Elec       q    Type
REMARK                         _______ _______ _______ _____ _____    ______ ____
ROOT
ATOM      1  C   UNL     1       8.254  11.142  -0.420  0.00  0.00    +0.104 C 
ATOM      2  C   UNL     1       8.928  10.004   0.354  0.00  0.00    +0.060 C 
ATOM      3  C   UNL     1       8.303   8.662  -0.041  0.00  0.00    +0.189 C 
ATOM      4  N   UNL     1       6.845   8.772   0.051  0.00  0.00    -0.241 N 
ATOM      5  C   UNL     1       6.173   9.962   0.056  0.00  0.00    +0.119 A 
ATOM      6  C   UNL     1       4.855   9.700   0.150  0.00  0.00    +0.078 A 
ATOM      7  C   UNL     1       4.702   8.297   0.213  0.00  0.00    +0.151 A 
ATOM      8  N   UNL     1       5.903   7.749   0.149  0.00  0.00    -0.164 NA
ATOM      9  N   UNL     1       6.830  11.193  -0.034  0.00  0.00    -0.322 N 
ATOM     10  H   UNL     1       6.348  12.162   0.164  0.00  0.00    +0.148 HD
ENDROOT
BRANCH   1  16
ATOM     11  C   UNL     1       8.603  13.098   1.103  0.00  0.00    +0.008 A 
ATOM     12  C   UNL     1       9.216  14.295   1.420  0.00  0.00    +0.038 A 
ATOM     13  C   UNL     1      10.137  14.852   0.550  0.00  0.00    +0.123 A 
ATOM     14  C   UNL     1      10.448  14.206  -0.634  0.00  0.00    +0.038 A 
ATOM     15  C   UNL     1       9.839  13.006  -0.947  0.00  0.00    +0.008 A 
ATOM     16  C   UNL     1       8.918  12.451  -0.078  0.00  0.00    -0.027 A 
ATOM     17  F   UNL     1      10.732  16.026   0.856  0.00  0.00    -0.205 F 
ENDBRANCH   1  16
BRANCH   7  18
ATOM     18  C   UNL     1       3.422   7.569   0.325  0.00  0.00    +0.283 C 
ATOM     19  O   UNL     1       2.375   8.184   0.376  0.00  0.00    -0.267 OA
ATOM     20  N   UNL     1       3.415   6.222   0.371  0.00  0.00    -0.202 N 
ATOM     21  H   UNL     1       4.362   5.665   0.325  0.00  0.00    +0.178 HD
BRANCH  20  22
ATOM     22  N   UNL     1       2.200   5.531   0.477  0.00  0.00    -0.187 NA
ATOM     23  C   UNL     1       2.193   4.234   0.521  0.00  0.00    +0.138 C 
BRANCH  23  24
ATOM     24  C   UNL     1       0.915   3.507   0.633  0.00  0.00    -0.003 A 
ATOM     25  C   UNL     1       0.885   2.107   0.682  0.00  0.00    +0.029 A 
ATOM     26  C   UNL     1      -0.333   1.469   0.787  0.00  0.00    +0.111 A 
ATOM     27  N   UNL     1      -1.457   2.157   0.836  0.00  0.00    -0.263 NA
ATOM     28  C   UNL     1      -1.474   3.476   0.798  0.00  0.00    +0.111 A 
ATOM     29  C   UNL     1      -0.303   4.197   0.693  0.00  0.00    +0.029 A 
ENDBRANCH  23  24
ENDBRANCH  20  22
ENDBRANCH   7  18
BRANCH   3  30
ATOM     30  C   UNL     1       8.795   7.568   0.909  0.00  0.00    +0.363 C 
ATOM     31  F   UNL     1       8.547   7.953   2.231  0.00  0.00    -0.193 F 
ATOM     32  F   UNL     1       8.119   6.374   0.636  0.00  0.00    -0.193 F 
BRANCH  30  33
ATOM     33  C   UNL     1      10.298   7.359   0.712  0.00  0.00    +0.456 C 
ATOM     34  F   UNL     1      10.985   8.510   1.113  0.00  0.00    -0.165 F 
ATOM     35  F   UNL     1      10.723   6.270   1.481  0.00  0.00    -0.165 F 
ATOM     36  F   UNL     1      10.560   7.107  -0.639  0.00  0.00    -0.165 F 
ENDBRANCH  30  33
ENDBRANCH   3  30
TORSDOF 6
