REMARK  Name = ZINC20531753
REMARK  9 active torsions:
REMARK  status: ('A' for Active; 'I' for Inactive)
REMARK    1  A    between atoms: C_1  and  C_2
REMARK    2  A    between atoms: C_2  and  N_3
REMARK    3  A    between atoms: C_9  and  C_15
REMARK    4  A    between atoms: C_10  and  C_14
REMARK    5  A    between atoms: N_17  and  C_18
REMARK    6  A    between atoms: C_18  and  C_19
REMARK    7  A    between atoms: C_19  and  C_20
REMARK    8  A    between atoms: C_20  and  N_21
REMARK    9  A    between atoms: C_25  and  C_28
REMARK                            x       y       z     vdW  Elec       q    Type
REMARK                         _______ _______ _______ _____ _____    ______ ____
ROOT
ATOM      1  N   UNL     1       3.550  -1.382   3.507  0.00  0.00    +0.380 N 
ATOM      2  C   UNL     1       2.486  -2.116   4.203  0.00  0.00    -0.075 C 
ATOM      3  C   UNL     1       1.206  -1.276   4.208  0.00  0.00    +0.034 C 
ATOM      4  C   UNL     1       1.481   0.058   4.901  0.00  0.00    +0.141 C 
ATOM      5  C   UNL     1       2.631   0.780   4.199  0.00  0.00    +0.034 C 
ATOM      6  C   UNL     1       3.867  -0.123   4.194  0.00  0.00    -0.075 C 
ATOM      7  C   UNL     1       0.241   0.917   4.880  0.00  0.00    +0.067 C 
ATOM      8  C   UNL     1      -0.091   1.146   6.162  0.00  0.00    +0.045 C 
ATOM      9  C   UNL     1       0.883   0.478   7.040  0.00  0.00    +0.336 C 
ATOM     10  O   UNL     1       0.855   0.498   8.255  0.00  0.00    -0.245 OA
ATOM     11  O   UNL     1       1.808  -0.159   6.299  0.00  0.00    -0.450 OA
ATOM     12  C   UNL     1      -1.272   1.959   6.627  0.00  0.00    +0.052 C 
ATOM     13  H   UNL     1       3.181  -1.130   2.502  0.00  0.00    -0.082 HD
ENDROOT
BRANCH   7  14
ATOM     14  C   UNL     1      -0.473   1.407   3.684  0.00  0.00    +0.244 C 
ATOM     15  O   UNL     1      -1.470   2.091   3.809  0.00  0.00    -0.270 OA
ATOM     16  N   UNL     1      -0.020   1.094   2.454  0.00  0.00    -0.312 N 
ATOM     17  H   UNL     1       0.881   0.474   2.341  0.00  0.00    +0.149 HD
BRANCH  16  18
ATOM     18  C   UNL     1      -0.729   1.579   1.267  0.00  0.00    +0.102 C 
BRANCH  18  19
ATOM     19  C   UNL     1      -0.013   1.086   0.008  0.00  0.00    +0.000 C 
BRANCH  19  20
ATOM     20  C   UNL     1      -0.753   1.593  -1.232  0.00  0.00    -0.077 C 
BRANCH  20  21
ATOM     21  N   UNL     1      -0.065   1.119  -2.440  0.00  0.00    +0.380 N 
ATOM     22  C   UNL     1       0.273  -0.306  -2.329  0.00  0.00    -0.079 C 
ATOM     23  C   UNL     1       1.113  -0.728  -3.537  0.00  0.00    -0.018 C 
ATOM     24  C   UNL     1       0.318  -0.472  -4.820  0.00  0.00    -0.001 C 
ATOM     25  C   UNL     1      -0.064   1.010  -4.887  0.00  0.00    -0.031 C 
ATOM     26  C   UNL     1      -0.870   1.381  -3.640  0.00  0.00    -0.076 C 
ATOM     27  C   UNL     1      -0.911   1.262  -6.136  0.00  0.00    +0.005 C 
ATOM     28  H   UNL     1       0.876   1.680  -2.538  0.00  0.00    -0.082 HD
ENDBRANCH  20  21
ENDBRANCH  19  20
ENDBRANCH  18  19
ENDBRANCH  16  18
ENDBRANCH   7  14
BRANCH   1  30
ATOM     29  C   UNL     1       5.739  -1.518   2.417  0.00  0.00    -0.017 C 
ATOM     30  C   UNL     1       4.751  -2.215   3.355  0.00  0.00    -0.082 C 
ENDBRANCH   1  30
TORSDOF 6
