REMARK  Name = ZINC18198267
REMARK  8 active torsions:
REMARK  status: ('A' for Active; 'I' for Inactive)
REMARK    1  A    between atoms: C_1  and  O_2
REMARK    2  A    between atoms: O_2  and  C_3
REMARK    3  A    between atoms: C_5  and  C_13
REMARK    4  A    between atoms: C_7  and  O_11
REMARK    5  A    between atoms: C_8  and  O_9
REMARK    6  A    between atoms: O_9  and  C_10
REMARK    7  A    between atoms: O_11  and  C_12
REMARK    8  A    between atoms: C_18  and  C_26
REMARK                            x       y       z     vdW  Elec       q    Type
REMARK                         _______ _______ _______ _____ _____    ______ ____
ROOT
ATOM      1  C   UNL     1      -0.019   1.526   0.010  0.00  0.00    +0.032 C 
ATOM      2  C   UNL     1       0.002  -0.004   0.002  0.00  0.00    +0.060 C 
ATOM      3  C   UNL     1       0.740  -0.496  -1.221  0.00  0.00    +0.020 C 
ATOM      4  C   UNL     1       1.747   0.225  -1.760  0.00  0.00    +0.041 C 
ATOM      5  C   UNL     1       2.503  -0.241  -2.985  0.00  0.00    +0.177 C 
ATOM      6  N   UNL     1       2.214  -1.645  -3.246  0.00  0.00    -0.221 N 
ATOM      7  C   UNL     1       1.192  -2.318  -2.660  0.00  0.00    +0.218 A 
ATOM      8  N   UNL     1       1.204  -3.541  -3.113  0.00  0.00    -0.201 NA
ATOM      9  C   UNL     1       2.213  -3.689  -3.978  0.00  0.00    +0.247 A 
ATOM     10  N   UNL     1       2.856  -2.553  -4.086  0.00  0.00    -0.156 NA
ATOM     11  N   UNL     1       0.349  -1.702  -1.750  0.00  0.00    -0.287 N 
ATOM     12  C   UNL     1       2.134   1.455  -1.199  0.00  0.00    +0.164 C 
ATOM     13  O   UNL     1       3.060   2.069  -1.693  0.00  0.00    -0.292 OA
ATOM     14  C   UNL     1       1.429   2.028  -0.001  0.00  0.00    +0.088 C 
ATOM     15  H   UNL     1      -0.493  -2.110  -1.494  0.00  0.00    +0.155 HD
ENDROOT
BRANCH   5  16
ATOM     16  C   UNL     1       2.086   0.585  -4.174  0.00  0.00    -0.000 A 
ATOM     17  C   UNL     1       0.767   0.581  -4.590  0.00  0.00    +0.009 A 
ATOM     18  C   UNL     1       0.383   1.343  -5.677  0.00  0.00    +0.020 A 
ATOM     19  C   UNL     1       1.319   2.101  -6.357  0.00  0.00    +0.042 A 
ATOM     20  C   UNL     1       2.639   2.102  -5.945  0.00  0.00    +0.040 A 
ATOM     21  C   UNL     1       3.023   1.343  -4.853  0.00  0.00    +0.048 A 
ATOM     22 CL   UNL     1       4.680   1.342  -4.335  0.00  0.00    -0.083 Cl
ATOM     23 CL   UNL     1       0.837   3.053  -7.727  0.00  0.00    -0.083 Cl
ENDBRANCH   5  16
BRANCH   1  26
ATOM     24  C   UNL     1      -2.497   3.253   2.281  0.00  0.00    +0.165 A 
ATOM     25  C   UNL     1      -1.852   2.799   1.141  0.00  0.00    +0.053 A 
ATOM     26  C   UNL     1      -0.717   2.017   1.252  0.00  0.00    -0.036 A 
ATOM     27  C   UNL     1      -0.224   1.681   2.499  0.00  0.00    +0.053 A 
ATOM     28  C   UNL     1      -0.861   2.135   3.644  0.00  0.00    +0.165 A 
ATOM     29  C   UNL     1      -2.002   2.921   3.537  0.00  0.00    +0.204 A 
BRANCH  24  31
ATOM     30  C   UNL     1      -4.067   4.322   0.850  0.00  0.00    +0.277 C 
ATOM     31  O   UNL     1      -3.614   4.021   2.171  0.00  0.00    -0.491 OA
ENDBRANCH  24  31
BRANCH  29  32
ATOM     32  O   UNL     1      -2.633   3.364   4.658  0.00  0.00    -0.488 OA
ATOM     33  C   UNL     1      -3.656   2.527   5.201  0.00  0.00    +0.277 C 
ENDBRANCH  29  32
BRANCH  28  34
ATOM     34  O   UNL     1      -0.372   1.808   4.870  0.00  0.00    -0.491 OA
ATOM     35  C   UNL     1       0.805   0.998   4.905  0.00  0.00    +0.277 C 
ENDBRANCH  28  34
ENDBRANCH   1  26
TORSDOF 5
