REMARK  Name = ZINC50266946
REMARK  3 active torsions:
REMARK  status: ('A' for Active; 'I' for Inactive)
REMARK    1  A    between atoms: C_4  and  C_9
REMARK    2  A    between atoms: C_5  and  C_7
REMARK    3  A    between atoms: C_12  and  C_14
REMARK                            x       y       z     vdW  Elec       q    Type
REMARK                         _______ _______ _______ _____ _____    ______ ____
ROOT
ATOM      1  C   UNL     1      -0.017   1.374   0.010  0.00  0.00    +0.001 A 
ATOM      2  C   UNL     1       1.168   2.094   0.002  0.00  0.00    +0.001 A 
ATOM      3  C   UNL     1       2.384   1.443  -0.013  0.00  0.00    +0.010 A 
ATOM      4  C   UNL     1       2.429   0.048  -0.022  0.00  0.00    -0.001 A 
ATOM      5  C   UNL     1       1.223  -0.686  -0.014  0.00  0.00    +0.022 A 
ATOM      6  C   UNL     1       0.002  -0.004   0.002  0.00  0.00    +0.012 A 
ENDROOT
BRANCH   4   7
ATOM      7  C   UNL     1       3.725  -0.653  -0.040  0.00  0.00    +0.021 A 
ATOM      8  C   UNL     1       4.814  -0.449  -0.873  0.00  0.00    +0.017 A 
ATOM      9  C   UNL     1       5.925  -1.227  -0.705  0.00  0.00    +0.027 A 
ATOM     10  C   UNL     1       5.918  -2.191   0.294  0.00  0.00    +0.089 A 
ATOM     11  S   UNL     1       4.298  -1.977   1.012  0.00  0.00    -0.078 S 
BRANCH  10  12
ATOM     12  C   UNL     1       6.949  -3.116   0.658  0.00  0.00    +0.106 C 
ATOM     13  N   UNL     1       7.767  -3.849   0.948  0.00  0.00    -0.190 NA
ENDBRANCH  10  12
ENDBRANCH   4   7
BRANCH   5  14
ATOM     14  C   UNL     1       1.250  -2.153  -0.023  0.00  0.00    +0.259 C 
ATOM     15  O   UNL     1       0.211  -2.779  -0.016  0.00  0.00    -0.296 OA
ENDBRANCH   5  14
TORSDOF 3
