REMARK  Name = ZINC17248380
REMARK  5 active torsions:
REMARK  status: ('A' for Active; 'I' for Inactive)
REMARK    1  A    between atoms: C_3  and  C_8
REMARK    2  A    between atoms: N_10  and  N_11
REMARK    3  A    between atoms: C_12  and  C_14
REMARK    4  A    between atoms: C_14  and  C_15
REMARK    5  A    between atoms: C_15  and  N_16
REMARK                            x       y       z     vdW  Elec       q    Type
REMARK                         _______ _______ _______ _____ _____    ______ ____
ROOT
ATOM      1  N   UNL     1       1.193   1.683  -0.000  0.00  0.00    -0.234 N 
ATOM      2  C   UNL     1       2.369   1.025  -0.015  0.00  0.00    +0.231 C 
ATOM      3  O   UNL     1       2.385  -0.188  -0.022  0.00  0.00    -0.274 OA
ATOM      4  H   UNL     1       1.179   2.653   0.005  0.00  0.00    +0.173 HD
ENDROOT
BRANCH   1   7
ATOM      5  C   UNL     1      -1.187   1.624   0.017  0.00  0.00    +0.260 C 
ATOM      6  O   UNL     1      -1.204   2.839   0.023  0.00  0.00    -0.269 OA
ATOM      7  N   UNL     1      -0.011   0.966   0.007  0.00  0.00    -0.230 N 
ATOM      8  H   UNL     1       0.002  -0.004   0.002  0.00  0.00    +0.173 HD
BRANCH   5  11
ATOM      9  C   UNL     1      -3.631  -1.229   0.011  0.00  0.00    +0.002 A 
ATOM     10  C   UNL     1      -2.442  -0.528   0.005  0.00  0.00    +0.013 A 
ATOM     11  C   UNL     1      -2.458   0.867   0.018  0.00  0.00    +0.040 A 
ATOM     12  C   UNL     1      -3.677   1.546   0.028  0.00  0.00    +0.033 A 
ATOM     13  C   UNL     1      -4.860   0.833   0.029  0.00  0.00    +0.042 A 
ATOM     14  C   UNL     1      -4.837  -0.552   0.021  0.00  0.00    +0.020 A 
ATOM     15 CL   UNL     1      -6.378   1.674   0.041  0.00  0.00    -0.084 Cl
ENDBRANCH   5  11
ENDBRANCH   1   7
BRANCH   2  16
ATOM     16  C   UNL     1       3.663   1.796  -0.023  0.00  0.00    +0.117 C 
BRANCH  16  17
ATOM     17  C   UNL     1       4.840   0.818  -0.040  0.00  0.00    +0.126 C 
BRANCH  17  18
ATOM     18  N   UNL     1       6.098   1.567  -0.048  0.00  0.00    -0.234 N 
ATOM     19  C   UNL     1       6.745   1.958  -1.161  0.00  0.00    +0.254 C 
ATOM     20  O   UNL     1       6.383   1.748  -2.301  0.00  0.00    -0.270 OA
ATOM     21  C   UNL     1       7.967   2.687  -0.765  0.00  0.00    +0.049 A 
ATOM     22  C   UNL     1       8.994   3.305  -1.461  0.00  0.00    +0.015 A 
ATOM     23  C   UNL     1      10.027   3.913  -0.766  0.00  0.00    +0.016 A 
ATOM     24  C   UNL     1      10.041   3.907   0.617  0.00  0.00    +0.019 A 
ATOM     25  C   UNL     1       9.020   3.291   1.327  0.00  0.00    +0.029 A 
ATOM     26  C   UNL     1       7.981   2.680   0.645  0.00  0.00    +0.050 A 
ATOM     27  C   UNL     1       6.763   1.951   1.057  0.00  0.00    +0.254 C 
ATOM     28  O   UNL     1       6.420   1.735   2.202  0.00  0.00    -0.270 OA
ATOM     29 BR   UNL     1      11.461   4.741   1.546  0.00  0.00    -0.050 Br
ENDBRANCH  17  18
ENDBRANCH  16  17
ENDBRANCH   2  16
TORSDOF 5
