REMARK  Name = ZINC12558804
REMARK  7 active torsions:
REMARK  status: ('A' for Active; 'I' for Inactive)
REMARK    1  A    between atoms: C_4  and  N_7
REMARK    2  A    between atoms: C_8  and  C_18
REMARK    3  A    between atoms: C_18  and  C_19
REMARK    4  A    between atoms: C_18  and  C_36
REMARK    5  A    between atoms: C_19  and  C_20
REMARK    6  A    between atoms: C_23  and  N_29
REMARK    7  A    between atoms: C_24  and  N_26
REMARK                            x       y       z     vdW  Elec       q    Type
REMARK                         _______ _______ _______ _____ _____    ______ ____
ROOT
ATOM      1  C   UNL     1      -3.749   1.708   0.083  0.00  0.00    +0.230 C 
ENDROOT
BRANCH   1   3
ATOM      2  N   UNL     1      -6.212   1.800   0.352  0.00  0.00    -0.266 N 
ATOM      3  C   UNL     1      -5.013   1.131   0.185  0.00  0.00    +0.164 A 
ATOM      4  N   UNL     1      -5.297  -0.188   0.145  0.00  0.00    -0.131 NA
ATOM      5  N   UNL     1      -6.566  -0.356   0.270  0.00  0.00    -0.113 NA
ATOM      6  C   UNL     1      -7.176   0.840   0.397  0.00  0.00    +0.224 A 
ATOM      7  N   UNL     1      -8.500   1.046   0.547  0.00  0.00    -0.295 N 
ATOM      8  C   UNL     1      -8.969   0.533   1.842  0.00  0.00    +0.136 C 
ATOM      9  C   UNL     1     -10.461   0.841   1.997  0.00  0.00    +0.179 C 
ATOM     10  O   UNL     1     -11.177   0.272   0.897  0.00  0.00    -0.377 OA
ATOM     11  C   UNL     1     -10.746   0.750  -0.380  0.00  0.00    +0.179 C 
ATOM     12  C   UNL     1      -9.257   0.441  -0.558  0.00  0.00    +0.136 C 
BRANCH   2  16
ATOM     13  C   UNL     1      -6.764   5.921   0.651  0.00  0.00    +0.000 A 
ATOM     14  C   UNL     1      -6.406   5.359  -0.561  0.00  0.00    +0.002 A 
ATOM     15  C   UNL     1      -6.222   3.994  -0.663  0.00  0.00    +0.026 A 
ATOM     16  C   UNL     1      -6.397   3.186   0.453  0.00  0.00    +0.051 A 
ATOM     17  C   UNL     1      -6.762   3.753   1.667  0.00  0.00    +0.026 A 
ATOM     18  C   UNL     1      -6.938   5.119   1.764  0.00  0.00    +0.002 A 
ENDBRANCH   2  16
ENDBRANCH   1   3
BRANCH   1  19
ATOM     19  C   UNL     1      -2.582   0.872  -0.235  0.00  0.00    +0.187 C 
ATOM     20  O   UNL     1      -2.748  -0.426  -0.541  0.00  0.00    -0.290 OA
BRANCH  19  21
ATOM     21  C   UNL     1      -1.287   1.432  -0.219  0.00  0.00    +0.021 A 
ATOM     22  C   UNL     1      -0.843   2.157   0.908  0.00  0.00    +0.013 A 
ATOM     23  C   UNL     1       0.405   2.700   0.915  0.00  0.00    +0.026 A 
ATOM     24  C   UNL     1       1.249   2.536  -0.189  0.00  0.00    +0.060 A 
ATOM     25  C   UNL     1       0.817   1.814  -1.306  0.00  0.00    +0.148 A 
ATOM     26  C   UNL     1      -0.429   1.266  -1.326  0.00  0.00    +0.046 A 
BRANCH  24  27
ATOM     27  N   UNL     1       2.514   3.089  -0.175  0.00  0.00    -0.328 N 
ATOM     28  C   UNL     1       3.343   2.480   0.873  0.00  0.00    +0.105 C 
ATOM     29  C   UNL     1       4.774   3.010   0.765  0.00  0.00    +0.019 C 
ATOM     30  C   UNL     1       4.763   4.533   0.918  0.00  0.00    +0.003 C 
ATOM     31  C   UNL     1       3.854   5.139  -0.155  0.00  0.00    +0.019 C 
ATOM     32  C   UNL     1       2.449   4.548  -0.020  0.00  0.00    +0.105 C 
ENDBRANCH  24  27
BRANCH  25  33
ATOM     33  N   UNL     1       1.716   1.646  -2.470  0.00  0.00    +0.058 N 
ATOM     34  O   UNL     1       1.310   0.966  -3.523  0.00  0.00    -0.126 OA
ATOM     35  O   UNL     1       2.921   2.176  -2.453  0.00  0.00    -0.126 OA
ENDBRANCH  25  33
ENDBRANCH  19  21
ENDBRANCH   1  19
BRANCH   1  36
ATOM     36  C   UNL     1      -3.587   3.116   0.287  0.00  0.00    +0.082 C 
ATOM     37  N   UNL     1      -3.459   4.233   0.449  0.00  0.00    -0.195 NA
ENDBRANCH   1  36
TORSDOF 7
