REMARK  Name = ZINC20416687
REMARK  7 active torsions:
REMARK  status: ('A' for Active; 'I' for Inactive)
REMARK    1  A    between atoms: C_1  and  C_2
REMARK    2  A    between atoms: C_2  and  C_3
REMARK    3  A    between atoms: C_3  and  C_4
REMARK    4  A    between atoms: C_17  and  C_20
REMARK    5  A    between atoms: N_22  and  C_23
REMARK    6  A    between atoms: C_23  and  C_25
REMARK    7  A    between atoms: C_23  and  C_26
REMARK                            x       y       z     vdW  Elec       q    Type
REMARK                         _______ _______ _______ _____ _____    ______ ____
ROOT
ATOM      1  C   UNL     1      -1.214   1.752   0.017  0.00  0.00    +0.049 A 
ATOM      2  C   UNL     1      -0.013   1.076   0.008  0.00  0.00    +0.095 A 
ATOM      3  C   UNL     1       1.184   1.793   0.000  0.00  0.00    +0.275 A 
ATOM      4  O   UNL     1       2.252   1.200  -0.013  0.00  0.00    -0.266 OA
ATOM      5  N   UNL     1       1.160   3.158   0.008  0.00  0.00    -0.170 N 
ATOM      6  C   UNL     1      -0.073   3.747   0.023  0.00  0.00    +0.201 A 
ATOM      7  N   UNL     1      -1.201   3.082   0.030  0.00  0.00    -0.226 NA
ATOM      8  S   UNL     1       0.325   5.481   0.029  0.00  0.00    -0.013 S 
ATOM      9  C   UNL     1       2.103   5.314   0.011  0.00  0.00    +0.184 A 
ATOM     10  N   UNL     1       2.255   4.017   0.003  0.00  0.00    -0.139 NA
ATOM     11  N   UNL     1       3.070   6.304   0.008  0.00  0.00    -0.308 N 
ATOM     12  C   UNL     1       4.418   5.723   0.010  0.00  0.00    +0.108 C 
ATOM     13  C   UNL     1       5.456   6.837  -0.140  0.00  0.00    +0.032 C 
ATOM     14  C   UNL     1       5.306   7.828   1.017  0.00  0.00    +0.078 C 
ATOM     15  C   UNL     1       3.878   8.383   1.022  0.00  0.00    +0.032 C 
ATOM     16  C   UNL     1       2.886   7.223   1.139  0.00  0.00    +0.108 C 
ENDROOT
BRANCH  14  17
ATOM     17  C   UNL     1       6.285   8.960   0.842  0.00  0.00    +0.216 C 
ATOM     18  O   UNL     1       5.883  10.099   0.731  0.00  0.00    -0.276 OA
ATOM     19  N   UNL     1       7.609   8.707   0.808  0.00  0.00    -0.312 N 
ATOM     20  H   UNL     1       7.973   7.674   0.909  0.00  0.00    +0.149 HD
BRANCH  19  21
ATOM     21  C   UNL     1       8.561   9.807   0.638  0.00  0.00    +0.076 C 
ATOM     22  C   UNL     1       8.864  10.434   2.000  0.00  0.00    +0.028 C 
BRANCH  21  23
ATOM     23  C   UNL     1       9.855   9.270   0.024  0.00  0.00    -0.010 C 
ATOM     24  C   UNL     1       9.552   8.643  -1.338  0.00  0.00    +0.012 C 
ATOM     25  C   UNL     1      10.846   8.107  -1.953  0.00  0.00    -0.010 C 
ATOM     26  C   UNL     1      11.841   9.255  -2.131  0.00  0.00    +0.007 C 
ATOM     27  C   UNL     1      12.144   9.883  -0.768  0.00  0.00    -0.010 C 
ATOM     28  C   UNL     1      10.850  10.419  -0.154  0.00  0.00    +0.012 C 
ATOM     29  C   UNL     1      12.748   8.825   0.157  0.00  0.00    +0.007 C 
ATOM     30  C   UNL     1      11.753   7.676   0.335  0.00  0.00    -0.010 C 
ATOM     31  C   UNL     1      11.450   7.048  -1.027  0.00  0.00    +0.007 C 
ATOM     32  C   UNL     1      10.459   8.212   0.950  0.00  0.00    +0.012 C 
ENDBRANCH  21  23
ENDBRANCH  19  21
ENDBRANCH  14  17
BRANCH   1  33
ATOM     33  C   UNL     1      -2.519   0.998   0.019  0.00  0.00    +0.055 C 
BRANCH  33  35
ATOM     34  C   UNL     1      -4.341   0.078   1.460  0.00  0.00    +0.004 C 
ATOM     35  C   UNL     1      -3.017   0.843   1.458  0.00  0.00    +0.003 C 
ENDBRANCH  33  35
ENDBRANCH   1  33
TORSDOF 5
