REMARK  Name = ZINC21801214
REMARK  8 active torsions:
REMARK  status: ('A' for Active; 'I' for Inactive)
REMARK    1  A    between atoms: C_1  and  C_2
REMARK    2  A    between atoms: C_5  and  N_8
REMARK    3  A    between atoms: C_9  and  C_35
REMARK    4  A    between atoms: C_10  and  C_34
REMARK    5  A    between atoms: C_18  and  C_20
REMARK    6  A    between atoms: C_20  and  C_21
REMARK    7  A    between atoms: C_21  and  C_22
REMARK    8  A    between atoms: C_22  and  N_23
REMARK                            x       y       z     vdW  Elec       q    Type
REMARK                         _______ _______ _______ _____ _____    ______ ____
ROOT
ATOM      1  N   UNL     1       3.533  -0.698  -0.037  0.00  0.00    -0.298 N 
ATOM      2  C   UNL     1       3.112  -2.002  -0.040  0.00  0.00    +0.026 A 
ATOM      3  C   UNL     1       1.767  -2.042  -0.027  0.00  0.00    -0.017 A 
ATOM      4  C   UNL     1       1.304  -0.660  -0.015  0.00  0.00    +0.067 A 
ATOM      5  C   UNL     1       2.451   0.144  -0.022  0.00  0.00    +0.151 A 
ATOM      6  N   UNL     1       2.316   1.478  -0.014  0.00  0.00    -0.217 NA
ATOM      7  C   UNL     1       1.152   2.060   0.002  0.00  0.00    +0.227 A 
ATOM      8  N   UNL     1      -0.017   1.367   0.010  0.00  0.00    -0.201 N 
ATOM      9  C   UNL     1       0.002  -0.004   0.002  0.00  0.00    +0.169 A 
ATOM     10  N   UNL     1      -1.250  -0.420   0.012  0.00  0.00    -0.211 NA
ATOM     11  C   UNL     1      -2.069   0.626   0.025  0.00  0.00    +0.152 A 
ATOM     12  N   UNL     1      -1.368   1.734   0.030  0.00  0.00    -0.149 NA
ATOM     13  C   UNL     1       0.905  -3.279  -0.024  0.00  0.00    +0.046 C 
ATOM     14  C   UNL     1       4.017  -3.207  -0.055  0.00  0.00    +0.064 C 
ENDROOT
BRANCH   1  19
ATOM     15  C   UNL     1       8.956   0.972  -0.085  0.00  0.00    +0.044 C 
ATOM     16  C   UNL     1       7.516   0.528  -0.072  0.00  0.00    -0.050 A 
ATOM     17  C   UNL     1       6.719   0.803   1.024  0.00  0.00    +0.005 A 
ATOM     18  C   UNL     1       5.399   0.398   1.038  0.00  0.00    +0.026 A 
ATOM     19  C   UNL     1       4.872  -0.286  -0.049  0.00  0.00    +0.048 A 
ATOM     20  C   UNL     1       5.676  -0.566  -1.146  0.00  0.00    +0.026 A 
ATOM     21  C   UNL     1       6.994  -0.152  -1.157  0.00  0.00    +0.005 A 
ENDBRANCH   1  19
BRANCH  11  22
ATOM     22  C   UNL     1      -3.574   0.551   0.039  0.00  0.00    +0.079 C 
BRANCH  22  23
ATOM     23  C   UNL     1      -4.070   0.517   1.486  0.00  0.00    +0.027 C 
BRANCH  23  24
ATOM     24  C   UNL     1      -5.598   0.441   1.500  0.00  0.00    +0.117 C 
BRANCH  24  25
ATOM     25  N   UNL     1      -6.072   0.409   2.886  0.00  0.00    -0.234 N 
ATOM     26  C   UNL     1      -6.269  -0.715   3.598  0.00  0.00    +0.254 C 
ATOM     27  O   UNL     1      -6.084  -1.848   3.200  0.00  0.00    -0.270 OA
ATOM     28  C   UNL     1      -6.745  -0.342   4.946  0.00  0.00    +0.049 A 
ATOM     29  C   UNL     1      -7.101  -1.056   6.079  0.00  0.00    +0.014 A 
ATOM     30  C   UNL     1      -7.524  -0.381   7.213  0.00  0.00    +0.001 A 
ATOM     31  C   UNL     1      -7.592   1.000   7.221  0.00  0.00    +0.001 A 
ATOM     32  C   UNL     1      -7.239   1.728   6.096  0.00  0.00    +0.014 A 
ATOM     33  C   UNL     1      -6.815   1.066   4.955  0.00  0.00    +0.049 A 
ATOM     34  C   UNL     1      -6.374   1.500   3.613  0.00  0.00    +0.254 C 
ATOM     35  O   UNL     1      -6.297   2.651   3.230  0.00  0.00    -0.270 OA
ENDBRANCH  24  25
ENDBRANCH  23  24
ENDBRANCH  22  23
ENDBRANCH  11  22
TORSDOF 5
