REMARK  Name = ZINC60342681
REMARK  4 active torsions:
REMARK  status: ('A' for Active; 'I' for Inactive)
REMARK    1  A    between atoms: N_9  and  C_12
REMARK    2  A    between atoms: C_12  and  N_13
REMARK    3  A    between atoms: C_17  and  C_20
REMARK    4  A    between atoms: C_22  and  C_25
REMARK                            x       y       z     vdW  Elec       q    Type
REMARK                         _______ _______ _______ _____ _____    ______ ____
ROOT
ATOM      1  N   UNL     1       3.061  -4.609  -1.391  0.00  0.00    +0.393 N 
ATOM      2  C   UNL     1       4.392  -4.080  -1.712  0.00  0.00    -0.076 C 
ATOM      3  C   UNL     1       4.769  -4.474  -3.142  0.00  0.00    -0.018 C 
ATOM      4  C   UNL     1       4.782  -6.001  -3.259  0.00  0.00    +0.009 C 
ATOM      5  C   UNL     1       3.411  -6.547  -2.849  0.00  0.00    +0.061 C 
ATOM      6  C   UNL     1       3.084  -6.076  -1.430  0.00  0.00    -0.063 C 
ATOM      7  H   UNL     1       2.393  -4.266  -2.065  0.00  0.00    -0.079 HD
ENDROOT
BRANCH   5   8
ATOM      8  C   UNL     1       3.437  -8.053  -2.887  0.00  0.00    +0.229 A 
ATOM      9  N   UNL     1       2.680  -8.809  -3.631  0.00  0.00    -0.191 NA
ATOM     10  C   UNL     1       2.969 -10.104  -3.414  0.00  0.00    +0.202 A 
ATOM     11  N   UNL     1       3.923 -10.177  -2.520  0.00  0.00    -0.056 NA
ATOM     12  O   UNL     1       4.246  -8.840  -2.167  0.00  0.00    -0.337 OA
BRANCH  10  13
ATOM     13  C   UNL     1       2.314 -11.259  -4.078  0.00  0.00    +0.025 A 
ATOM     14  C   UNL     1       1.310 -11.047  -5.020  0.00  0.00    +0.012 A 
ATOM     15  C   UNL     1       0.703 -12.124  -5.635  0.00  0.00    +0.003 A 
ATOM     16  C   UNL     1       1.090 -13.413  -5.317  0.00  0.00    +0.038 A 
ATOM     17  C   UNL     1       2.087 -13.631  -4.381  0.00  0.00    +0.124 A 
ATOM     18  C   UNL     1       2.705 -12.559  -3.765  0.00  0.00    +0.050 A 
ATOM     19  F   UNL     1       2.461 -14.893  -4.074  0.00  0.00    -0.205 F 
ENDBRANCH  10  13
ENDBRANCH   5   8
BRANCH   1  20
ATOM     20  C   UNL     1       2.670  -4.163  -0.046  0.00  0.00    +0.074 C 
BRANCH  20  29
ATOM     21  C   UNL     1      -0.017   1.373   0.010  0.00  0.00    +0.001 A 
ATOM     22  C   UNL     1       1.170   2.095   0.002  0.00  0.00    +0.002 A 
ATOM     23  C   UNL     1       2.386   1.452  -0.013  0.00  0.00    +0.030 A 
ATOM     24  C   UNL     1       2.432   0.055  -0.021  0.00  0.00    +0.100 A 
ATOM     25  C   UNL     1       1.224  -0.675  -0.013  0.00  0.00    +0.068 A 
ATOM     26  C   UNL     1       0.002  -0.004   0.002  0.00  0.00    +0.015 A 
ATOM     27  C   UNL     1       1.298  -2.144  -0.022  0.00  0.00    +0.276 A 
ATOM     28  O   UNL     1       0.291  -2.829  -0.016  0.00  0.00    -0.266 OA
ATOM     29  N   UNL     1       2.530  -2.705  -0.037  0.00  0.00    -0.227 N 
ATOM     30  N   UNL     1       3.668  -1.894  -0.044  0.00  0.00    -0.064 NA
ATOM     31  N   UNL     1       3.612  -0.612  -0.037  0.00  0.00    -0.131 NA
ENDBRANCH  20  29
ENDBRANCH   1  20
TORSDOF 4
