REMARK  Name = ZINC01814782
REMARK  4 active torsions:
REMARK  status: ('A' for Active; 'I' for Inactive)
REMARK    1  A    between atoms: C_1  and  C_2
REMARK    2  A    between atoms: C_6  and  C_7
REMARK    3  A    between atoms: N_8  and  N_9
REMARK    4  A    between atoms: C_14  and  N_50
REMARK                            x       y       z     vdW  Elec       q    Type
REMARK                         _______ _______ _______ _____ _____    ______ ____
ROOT
ATOM      1  N   UNL     1      -1.718   6.219   3.636  0.00  0.00    -0.259 N 
ATOM      2  C   UNL     1      -2.325   6.730   2.397  0.00  0.00    +0.107 C 
ATOM      3  C   UNL     1      -1.785   5.914   1.218  0.00  0.00    -0.057 C 
ATOM      4  C   UNL     1       0.204   5.291   2.458  0.00  0.00    -0.057 C 
ATOM      5  C   UNL     1      -0.255   6.081   3.688  0.00  0.00    +0.107 C 
ATOM      6  N   UNL     1      -0.306   5.964   1.244  0.00  0.00    +0.389 N 
ATOM      7  H   UNL     1      -0.007   6.946   1.256  0.00  0.00    -0.080 HD
ENDROOT
BRANCH   6   8
ATOM      8  C   UNL     1       0.241   5.310   0.037  0.00  0.00    -0.005 C 
ATOM      9  C   UNL     1      -0.039   3.828   0.042  0.00  0.00    -0.049 A 
ATOM     10  C   UNL     1      -1.215   3.108   0.052  0.00  0.00    +0.003 A 
ATOM     11  C   UNL     1      -1.181   1.724   0.050  0.00  0.00    +0.000 A 
ATOM     12  C   UNL     1       0.033   1.061   0.048  0.00  0.00    +0.001 A 
ATOM     13  C   UNL     1       1.214   1.773   0.037  0.00  0.00    +0.009 A 
ATOM     14  C   UNL     1       1.187   3.169   0.035  0.00  0.00    -0.016 A 
ATOM     15  C   UNL     1       2.285   4.168   0.024  0.00  0.00    -0.016 A 
ATOM     16  C   UNL     1       1.744   5.451   0.025  0.00  0.00    -0.049 A 
ATOM     17  C   UNL     1       2.570   6.554   0.017  0.00  0.00    +0.003 A 
ATOM     18  C   UNL     1       3.944   6.390   0.006  0.00  0.00    +0.000 A 
ATOM     19  C   UNL     1       4.491   5.120   0.005  0.00  0.00    +0.001 A 
ATOM     20  C   UNL     1       3.672   4.010   0.014  0.00  0.00    +0.009 A 
ENDBRANCH   6   8
BRANCH   1  22
ATOM     21  C   UNL     1      -3.792   6.102   4.712  0.00  0.00    +0.145 C 
ATOM     22  N   UNL     1      -2.513   5.873   4.736  0.00  0.00    -0.192 NA
BRANCH  21  28
ATOM     23  C   UNL     1      -6.832   6.553   4.975  0.00  0.00    +0.045 C 
ATOM     24  C   UNL     1      -5.966   6.019   6.088  0.00  0.00    -0.035 A 
ATOM     25  C   UNL     1      -6.510   5.694   7.310  0.00  0.00    +0.011 A 
ATOM     26  C   UNL     1      -5.701   5.222   8.293  0.00  0.00    +0.046 A 
ATOM     27  S   UNL     1      -4.102   5.214   7.498  0.00  0.00    -0.095 S 
ATOM     28  C   UNL     1      -4.607   5.840   5.904  0.00  0.00    +0.035 A 
ENDBRANCH  21  28
ENDBRANCH   1  22
TORSDOF 3
