REMARK  Name = ZINC03262505
REMARK  3 active torsions:
REMARK  status: ('A' for Active; 'I' for Inactive)
REMARK    1  A    between atoms: C_4  and  N_7
REMARK    2  A    between atoms: C_9  and  C_23
REMARK    3  A    between atoms: C_10  and  C_12
REMARK                            x       y       z     vdW  Elec       q    Type
REMARK                         _______ _______ _______ _____ _____    ______ ____
ROOT
ATOM      1  N   UNL     1       4.141  -0.825   4.094  0.00  0.00    -0.239 N 
ATOM      2  C   UNL     1       3.802  -0.899   2.780  0.00  0.00    +0.122 A 
ATOM      3  C   UNL     1       4.494   0.053   2.119  0.00  0.00    +0.036 A 
ATOM      4  C   UNL     1       5.295   0.737   3.057  0.00  0.00    +0.106 A 
ATOM      5  N   UNL     1       5.074   0.209   4.243  0.00  0.00    -0.166 NA
ENDROOT
BRANCH   3   6
ATOM      6  C   UNL     1       4.428   0.332   0.639  0.00  0.00    +0.193 C 
ATOM      7  N   UNL     1       3.159  -0.177   0.105  0.00  0.00    -0.322 N 
ATOM      8  C   UNL     1       1.997   0.544   0.354  0.00  0.00    +0.041 A 
ATOM      9  C   UNL     1       0.760  -0.070   0.457  0.00  0.00    +0.024 A 
ATOM     10  C   UNL     1      -0.363   0.694   0.711  0.00  0.00    +0.002 A 
ATOM     11  C   UNL     1      -0.261   2.068   0.864  0.00  0.00    +0.001 A 
ATOM     12  C   UNL     1       0.963   2.695   0.765  0.00  0.00    +0.015 A 
ATOM     13  C   UNL     1       2.103   1.938   0.508  0.00  0.00    +0.058 A 
ATOM     14  C   UNL     1       3.435   2.558   0.386  0.00  0.00    +0.247 C 
ATOM     15  O   UNL     1       3.544   3.763   0.263  0.00  0.00    -0.270 OA
ATOM     16  N   UNL     1       4.532   1.773   0.412  0.00  0.00    -0.289 N 
ATOM     17  H   UNL     1       3.131  -0.999  -0.410  0.00  0.00    +0.148 HD
ATOM     18  H   UNL     1       5.406   2.172   0.278  0.00  0.00    +0.151 HD
ENDBRANCH   3   6
BRANCH   4  19
ATOM     19  C   UNL     1       6.220   1.856   2.760  0.00  0.00    +0.087 A 
ATOM     20  C   UNL     1       7.138   1.749   1.751  0.00  0.00    +0.028 A 
ATOM     21  C   UNL     1       8.025   2.886   1.497  0.00  0.00    +0.018 A 
ATOM     22  C   UNL     1       8.979   2.829   0.473  0.00  0.00    +0.011 A 
ATOM     23  C   UNL     1       9.802   3.897   0.253  0.00  0.00    +0.001 A 
ATOM     24  C   UNL     1       9.699   5.038   1.036  0.00  0.00    +0.004 A 
ATOM     25  C   UNL     1       8.767   5.114   2.049  0.00  0.00    +0.047 A 
ATOM     26  C   UNL     1       7.918   4.040   2.293  0.00  0.00    +0.139 A 
ATOM     27  O   UNL     1       7.004   4.108   3.284  0.00  0.00    -0.422 OA
ATOM     28  C   UNL     1       6.169   3.091   3.547  0.00  0.00    +0.347 A 
ATOM     29  O   UNL     1       5.361   3.196   4.450  0.00  0.00    -0.244 OA
ENDBRANCH   4  19
BRANCH   1  33
ATOM     30  C   UNL     1       2.661  -3.248   7.145  0.00  0.00    +0.000 A 
ATOM     31  C   UNL     1       3.584  -2.260   7.435  0.00  0.00    +0.002 A 
ATOM     32  C   UNL     1       4.077  -1.456   6.426  0.00  0.00    +0.028 A 
ATOM     33  C   UNL     1       3.643  -1.640   5.119  0.00  0.00    +0.065 A 
ATOM     34  C   UNL     1       2.712  -2.629   4.832  0.00  0.00    +0.028 A 
ATOM     35  C   UNL     1       2.228  -3.434   5.845  0.00  0.00    +0.002 A 
ENDBRANCH   1  33
TORSDOF 3
