REMARK  Name = ZINC01292345
REMARK  9 active torsions:
REMARK  status: ('A' for Active; 'I' for Inactive)
REMARK    1  A    between atoms: C_1  and  C_2
REMARK    2  A    between atoms: C_2  and  O_3
REMARK    3  A    between atoms: O_3  and  C_4
REMARK    4  A    between atoms: C_4  and  C_6
REMARK    5  A    between atoms: C_7  and  N_17
REMARK    6  A    between atoms: C_18  and  C_20
REMARK    7  A    between atoms: C_20  and  N_21
REMARK    8  A    between atoms: C_30  and  C_32
REMARK    9  A    between atoms: C_32  and  N_33
REMARK                            x       y       z     vdW  Elec       q    Type
REMARK                         _______ _______ _______ _____ _____    ______ ____
ROOT
ATOM      1  N   UNL     1      -1.515  -5.464   0.341  0.00  0.00    -0.285 NA
ATOM      2  C   UNL     1      -1.051  -4.579   1.421  0.00  0.00    +0.090 C 
ATOM      3  C   UNL     1      -2.258  -3.836   1.993  0.00  0.00    +0.051 C 
ATOM      4  C   UNL     1      -3.355  -4.816   2.325  0.00  0.00    -0.041 A 
ATOM      5  C   UNL     1      -4.375  -4.406   3.170  0.00  0.00    +0.004 A 
ATOM      6  C   UNL     1      -5.400  -5.271   3.496  0.00  0.00    +0.000 A 
ATOM      7  C   UNL     1      -5.411  -6.552   2.976  0.00  0.00    +0.000 A 
ATOM      8  C   UNL     1      -4.395  -6.961   2.136  0.00  0.00    +0.005 A 
ATOM      9  C   UNL     1      -3.362  -6.095   1.810  0.00  0.00    -0.026 A 
ATOM     10  C   UNL     1      -2.271  -6.591   0.898  0.00  0.00    +0.105 C 
ENDROOT
BRANCH   1  11
ATOM     11  C   UNL     1      -0.388  -5.938  -0.474  0.00  0.00    +0.181 C 
BRANCH  11  13
ATOM     12  N   UNL     1       1.160  -5.011  -2.166  0.00  0.00    -0.282 N 
ATOM     13  C   UNL     1       0.122  -4.808  -1.330  0.00  0.00    +0.231 C 
ATOM     14  O   UNL     1      -0.402  -3.715  -1.268  0.00  0.00    -0.274 OA
ATOM     15  H   UNL     1       1.533  -5.900  -2.268  0.00  0.00    +0.155 HD
BRANCH  12  17
ATOM     16  C   UNL     1       3.019  -3.773  -3.236  0.00  0.00    +0.147 A 
ATOM     17  C   UNL     1       1.697  -3.944  -2.880  0.00  0.00    +0.073 A 
ATOM     18  C   UNL     1       0.969  -2.784  -3.399  0.00  0.00    +0.024 A 
ATOM     19  C   UNL     1      -0.373  -2.394  -3.359  0.00  0.00    +0.050 A 
ATOM     20  C   UNL     1      -0.759  -1.215  -3.957  0.00  0.00    +0.124 A 
ATOM     21  C   UNL     1       0.180  -0.413  -4.598  0.00  0.00    +0.040 A 
ATOM     22  C   UNL     1       1.504  -0.784  -4.646  0.00  0.00    +0.029 A 
ATOM     23  C   UNL     1       1.918  -1.972  -4.049  0.00  0.00    +0.049 A 
ATOM     24  N   UNL     1       3.146  -2.582  -3.934  0.00  0.00    -0.348 N 
ATOM     25  H   UNL     1       3.977  -2.232  -4.292  0.00  0.00    +0.166 HD
ATOM     26  F   UNL     1      -2.054  -0.835  -3.920  0.00  0.00    -0.205 F 
BRANCH  16  27
ATOM     27  C   UNL     1       4.076  -4.668  -2.933  0.00  0.00    +0.358 C 
ATOM     28  O   UNL     1       3.868  -5.641  -2.233  0.00  0.00    -0.243 OA
BRANCH  27  29
ATOM     29  O   UNL     1       5.314  -4.440  -3.420  0.00  0.00    -0.460 OA
BRANCH  29  31
ATOM     30  C   UNL     1       7.656  -4.961  -3.713  0.00  0.00    +0.048 C 
ATOM     31  C   UNL     1       6.331  -5.382  -3.074  0.00  0.00    +0.229 C 
ENDBRANCH  29  31
ENDBRANCH  27  29
ENDBRANCH  16  27
ENDBRANCH  12  17
ENDBRANCH  11  13
ENDBRANCH   1  11
BRANCH  10  32
ATOM     32  C   UNL     1      -2.894  -7.395  -0.245  0.00  0.00    +0.140 C 
BRANCH  32  33
ATOM     33  N   UNL     1      -3.652  -6.495  -1.119  0.00  0.00    -0.232 N 
ATOM     34  C   UNL     1      -4.928  -6.126  -0.908  0.00  0.00    +0.254 C 
ATOM     35  O   UNL     1      -5.624  -6.480   0.022  0.00  0.00    -0.270 OA
ATOM     36  C   UNL     1      -5.341  -5.217  -1.998  0.00  0.00    +0.049 A 
ATOM     37  C   UNL     1      -6.511  -4.539  -2.302  0.00  0.00    +0.014 A 
ATOM     38  C   UNL     1      -6.569  -3.743  -3.435  0.00  0.00    +0.001 A 
ATOM     39  C   UNL     1      -5.469  -3.620  -4.263  0.00  0.00    +0.001 A 
ATOM     40  C   UNL     1      -4.292  -4.292  -3.971  0.00  0.00    +0.014 A 
ATOM     41  C   UNL     1      -4.219  -5.092  -2.842  0.00  0.00    +0.049 A 
ATOM     42  C   UNL     1      -3.161  -5.926  -2.234  0.00  0.00    +0.254 C 
ATOM     43  O   UNL     1      -2.037  -6.073  -2.669  0.00  0.00    -0.270 OA
ENDBRANCH  32  33
ENDBRANCH  10  32
TORSDOF 8
