REMARK  Name = ZINC08747364
REMARK  3 active torsions:
REMARK  status: ('A' for Active; 'I' for Inactive)
REMARK    1  A    between atoms: C_6  and  N_7
REMARK    2  A    between atoms: C_12  and  N_16
REMARK    3  A    between atoms: C_24  and  N_28
REMARK                            x       y       z     vdW  Elec       q    Type
REMARK                         _______ _______ _______ _____ _____    ______ ____
ROOT
ATOM      1  N   UNL     1      -4.964  -3.747   1.276  0.00  0.00    -0.214 N 
ATOM      2  C   UNL     1      -3.728  -4.031   1.784  0.00  0.00    +0.168 A 
ATOM      3  C   UNL     1      -2.843  -3.081   1.237  0.00  0.00    +0.079 A 
ATOM      4  C   UNL     1      -3.605  -2.240   0.398  0.00  0.00    +0.148 A 
ATOM      5  N   UNL     1      -4.845  -2.639   0.428  0.00  0.00    -0.172 NA
ATOM      6  C   UNL     1      -1.484  -3.148   1.602  0.00  0.00    +0.136 A 
ATOM      7  N   UNL     1      -1.103  -4.106   2.440  0.00  0.00    -0.220 NA
ATOM      8  C   UNL     1      -1.971  -4.972   2.931  0.00  0.00    +0.225 A 
ATOM      9  N   UNL     1      -3.249  -4.950   2.620  0.00  0.00    -0.216 NA
ENDROOT
BRANCH   6  10
ATOM     10  N   UNL     1      -0.571  -2.244   1.097  0.00  0.00    -0.309 N 
ATOM     11  C   UNL     1       0.777  -2.511   1.618  0.00  0.00    +0.111 C 
ATOM     12  C   UNL     1       1.820  -1.766   0.782  0.00  0.00    +0.055 C 
ATOM     13  C   UNL     1       1.408  -0.298   0.698  0.00  0.00    -0.022 A 
ATOM     14  C   UNL     1       0.134   0.057   0.987  0.00  0.00    +0.013 A 
ATOM     15  S   UNL     1       0.080   1.817   0.771  0.00  0.00    -0.072 S 
ATOM     16  C   UNL     1       1.758   2.075   0.294  0.00  0.00    +0.114 A 
ATOM     17  C   UNL     1       2.314   0.770   0.319  0.00  0.00    +0.051 A 
ATOM     18  C   UNL     1       3.691   0.652  -0.028  0.00  0.00    +0.128 A 
ATOM     19  N   UNL     1       4.311   1.788  -0.340  0.00  0.00    -0.220 NA
ATOM     20  C   UNL     1       3.727   2.969  -0.342  0.00  0.00    +0.224 A 
ATOM     21  N   UNL     1       2.449   3.150  -0.029  0.00  0.00    -0.228 NA
ATOM     22  C   UNL     1      -0.977  -0.859   1.397  0.00  0.00    +0.149 C 
BRANCH  18  23
ATOM     23  N   UNL     1       4.343  -0.568  -0.040  0.00  0.00    -0.343 N 
ATOM     24  H   UNL     1       3.834  -1.391   0.034  0.00  0.00    +0.144 HD
ATOM     25  H   UNL     1       5.309  -0.601  -0.122  0.00  0.00    +0.144 HD
ENDBRANCH  18  23
ENDBRANCH   6  10
BRANCH   1  31
ATOM     26  C   UNL     1      -6.115  -5.819   1.751  0.00  0.00    +0.030 A 
ATOM     27  C   UNL     1      -7.281  -6.503   2.031  0.00  0.00    +0.040 A 
ATOM     28  C   UNL     1      -8.484  -5.821   2.108  0.00  0.00    +0.124 A 
ATOM     29  C   UNL     1      -8.519  -4.451   1.909  0.00  0.00    +0.040 A 
ATOM     30  C   UNL     1      -7.354  -3.762   1.633  0.00  0.00    +0.030 A 
ATOM     31  C   UNL     1      -6.147  -4.444   1.556  0.00  0.00    +0.068 A 
ATOM     32  F   UNL     1      -9.624  -6.493   2.378  0.00  0.00    -0.205 F 
ENDBRANCH   1  31
TORSDOF 3
