REMARK  Name = ZINC63139754
REMARK  11 active torsions:
REMARK  status: ('A' for Active; 'I' for Inactive)
REMARK    1  A    between atoms: C_1  and  C_2
REMARK    2  A    between atoms: C_2  and  C_3
REMARK    3  A    between atoms: C_3  and  C_4
REMARK    4  A    between atoms: C_4  and  N_5
REMARK    5  A    between atoms: C_25  and  C_27
REMARK    6  A    between atoms: C_29  and  O_37
REMARK    7  A    between atoms: C_30  and  O_35
REMARK    8  A    between atoms: C_31  and  O_33
REMARK    9  A    between atoms: O_33  and  C_34
REMARK   10  A    between atoms: O_35  and  C_36
REMARK   11  A    between atoms: O_37  and  C_38
REMARK                            x       y       z     vdW  Elec       q    Type
REMARK                         _______ _______ _______ _____ _____    ______ ____
ROOT
ATOM      1  N   UNL     1       1.471  -2.526   2.420  0.00  0.00    -0.291 N 
ATOM      2  C   UNL     1       2.928  -2.758   2.411  0.00  0.00    +0.203 C 
ATOM      3  C   UNL     1       3.204  -4.098   3.060  0.00  0.00    +0.234 C 
ATOM      4  O   UNL     1       3.995  -4.884   2.582  0.00  0.00    -0.274 OA
ATOM      5  N   UNL     1       2.518  -4.382   4.215  0.00  0.00    -0.279 N 
ATOM      6  C   UNL     1       1.671  -3.319   4.712  0.00  0.00    +0.167 C 
ATOM      7  C   UNL     1       0.817  -2.780   3.592  0.00  0.00    +0.237 C 
ATOM      8  O   UNL     1      -0.374  -2.589   3.721  0.00  0.00    -0.274 OA
ATOM      9  C   UNL     1       0.878  -3.564   5.970  0.00  0.00    +0.065 C 
ATOM     10  C   UNL     1       0.967  -5.016   6.354  0.00  0.00    -0.034 C 
ATOM     11  C   UNL     1       0.064  -5.869   6.818  0.00  0.00    -0.001 A 
ATOM     12  C   UNL     1      -1.355  -5.699   7.172  0.00  0.00    +0.010 A 
ATOM     13  C   UNL     1      -1.999  -6.810   7.619  0.00  0.00    +0.001 A 
ATOM     14  C   UNL     1      -1.381  -8.057   7.748  0.00  0.00    +0.002 A 
ATOM     15  C   UNL     1      -0.081  -8.304   7.449  0.00  0.00    +0.026 A 
ATOM     16  C   UNL     1       0.702  -7.212   6.972  0.00  0.00    +0.043 A 
ATOM     17  N   UNL     1       1.953  -7.163   6.627  0.00  0.00    -0.375 N 
ATOM     18  C   UNL     1       2.280  -5.786   6.236  0.00  0.00    +0.131 C 
ATOM     19  C   UNL     1       2.683  -5.717   4.771  0.00  0.00    +0.134 C 
ATOM     20  H   UNL     1       2.569  -7.912   6.627  0.00  0.00    +0.160 HD
ENDROOT
BRANCH  19  21
ATOM     21  C   UNL     1       1.801  -6.676   4.014  0.00  0.00    -0.018 A 
ATOM     22  C   UNL     1       0.531  -6.288   3.630  0.00  0.00    +0.055 A 
ATOM     23  C   UNL     1      -0.284  -7.167   2.934  0.00  0.00    +0.165 A 
ATOM     24  C   UNL     1       0.177  -8.441   2.622  0.00  0.00    +0.204 A 
ATOM     25  C   UNL     1       1.455  -8.827   3.010  0.00  0.00    +0.165 A 
ATOM     26  C   UNL     1       2.266  -7.940   3.701  0.00  0.00    +0.055 A 
BRANCH  25  27
ATOM     27  O   UNL     1       1.911 -10.072   2.707  0.00  0.00    -0.491 OA
ATOM     28  C   UNL     1       3.233 -10.401   3.136  0.00  0.00    +0.277 C 
ENDBRANCH  25  27
BRANCH  24  29
ATOM     29  O   UNL     1      -0.620  -9.307   1.939  0.00  0.00    -0.488 OA
ATOM     30  C   UNL     1      -0.534  -9.281   0.513  0.00  0.00    +0.277 C 
ENDBRANCH  24  29
BRANCH  23  31
ATOM     31  O   UNL     1      -1.534  -6.785   2.557  0.00  0.00    -0.491 OA
ATOM     32  C   UNL     1      -1.941  -5.462   2.912  0.00  0.00    +0.277 C 
ENDBRANCH  23  31
ENDBRANCH  19  21
BRANCH   1  33
ATOM     33  C   UNL     1       0.763  -2.041   1.233  0.00  0.00    +0.108 C 
BRANCH  33  34
ATOM     34  C   UNL     1       0.742  -0.511   1.242  0.00  0.00    +0.019 C 
BRANCH  34  36
ATOM     35  C   UNL     1      -0.019   1.526   0.010  0.00  0.00    +0.004 C 
ATOM     36  C   UNL     1       0.002  -0.004   0.002  0.00  0.00    -0.002 C 
ENDBRANCH  34  36
ENDBRANCH  33  34
ENDBRANCH   1  33
TORSDOF 7
