REMARK  Name = ZINC00159936
REMARK  4 active torsions:
REMARK  status: ('A' for Active; 'I' for Inactive)
REMARK    1  A    between atoms: C_1  and  O_2
REMARK    2  A    between atoms: O_2  and  C_3
REMARK    3  A    between atoms: C_6  and  C_9
REMARK    4  A    between atoms: C_16  and  C_17
REMARK                            x       y       z     vdW  Elec       q    Type
REMARK                         _______ _______ _______ _____ _____    ______ ____
ROOT
ATOM      1  C   UNL     1       1.212  -2.062   0.295  0.00  0.00    +0.010 A 
ATOM      2  C   UNL     1       1.167  -0.659   0.334  0.00  0.00    -0.014 A 
ATOM      3  C   UNL     1       0.002  -0.004   0.002  0.00  0.00    +0.053 A 
ATOM      4  N   UNL     1      -1.125  -0.703  -0.335  0.00  0.00    -0.321 N 
ATOM      5  H   UNL     1      -1.964  -0.204  -0.551  0.00  0.00    +0.169 HD
ATOM      6  C   UNL     1      -1.125  -2.047  -0.381  0.00  0.00    +0.267 A 
ATOM      7  O   UNL     1      -2.142  -2.645  -0.689  0.00  0.00    -0.266 OA
ATOM      8  C   UNL     1       0.052  -2.770  -0.073  0.00  0.00    +0.124 A 
ATOM      9  C   UNL     1      -0.018   1.473   0.010  0.00  0.00    +0.002 A 
ATOM     10  C   UNL     1      -1.227   2.168   0.031  0.00  0.00    +0.010 A 
ATOM     11  C   UNL     1      -1.221   3.548   0.049  0.00  0.00    +0.001 A 
ATOM     12  C   UNL     1      -0.021   4.237   0.054  0.00  0.00    +0.000 A 
ATOM     13  C   UNL     1       1.181   3.552   0.031  0.00  0.00    +0.004 A 
ATOM     14  C   UNL     1       1.190   2.173   0.002  0.00  0.00    -0.038 A 
ATOM     15  C   UNL     1       2.492   1.420  -0.048  0.00  0.00    +0.040 C 
ATOM     16  C   UNL     1       2.388   0.120   0.744  0.00  0.00    +0.042 C 
ENDROOT
BRANCH   1  20
ATOM     17  C   UNL     1       4.791  -4.136   1.270  0.00  0.00    +0.120 A 
ATOM     18  C   UNL     1       4.280  -4.202  -0.021  0.00  0.00    +0.046 A 
ATOM     19  C   UNL     1       3.121  -3.531  -0.341  0.00  0.00    +0.012 A 
ATOM     20  C   UNL     1       2.457  -2.783   0.634  0.00  0.00    -0.016 A 
ATOM     21  C   UNL     1       2.976  -2.714   1.929  0.00  0.00    +0.012 A 
ATOM     22  C   UNL     1       4.133  -3.392   2.243  0.00  0.00    +0.046 A 
BRANCH  17  24
ATOM     23  C   UNL     1       6.403  -4.686   2.926  0.00  0.00    +0.277 C 
ATOM     24  O   UNL     1       5.934  -4.798   1.581  0.00  0.00    -0.495 OA
ENDBRANCH  17  24
ENDBRANCH   1  20
BRANCH   8  25
ATOM     25  C   UNL     1       0.064  -4.201  -0.135  0.00  0.00    +0.105 C 
ATOM     26  N   UNL     1       0.072  -5.335  -0.184  0.00  0.00    -0.191 NA
ENDBRANCH   8  25
TORSDOF 3
