REMARK  Name = ZINC40156659
REMARK  11 active torsions:
REMARK  status: ('A' for Active; 'I' for Inactive)
REMARK    1  A    between atoms: C_1  and  C_2
REMARK    2  A    between atoms: C_2  and  C_4
REMARK    3  A    between atoms: C_2  and  S_12
REMARK    4  A    between atoms: C_4  and  C_5
REMARK    5  A    between atoms: C_5  and  C_6
REMARK    6  A    between atoms: S_12  and  C_13
REMARK    7  A    between atoms: N_23  and  C_24
REMARK    8  A    between atoms: C_24  and  C_25
REMARK    9  A    between atoms: C_25  and  C_26
REMARK   10  A    between atoms: C_29  and  S_32
REMARK   11  A    between atoms: S_32  and  N_35
REMARK                            x       y       z     vdW  Elec       q    Type
REMARK                         _______ _______ _______ _____ _____    ______ ____
ROOT
ATOM      1  C   UNL     1      -0.136  -0.087   2.816  0.00  0.00    +0.172 A 
ATOM      2  N   UNL     1      -1.238   0.570   2.549  0.00  0.00    -0.223 NA
ATOM      3  C   UNL     1      -2.061   0.996   3.528  0.00  0.00    +0.079 A 
ATOM      4  C   UNL     1      -3.237   1.696   3.244  0.00  0.00    +0.028 A 
ATOM      5  C   UNL     1      -4.042   2.109   4.267  0.00  0.00    +0.002 A 
ATOM      6  C   UNL     1      -3.710   1.844   5.590  0.00  0.00    +0.001 A 
ATOM      7  C   UNL     1      -2.567   1.161   5.900  0.00  0.00    +0.015 A 
ATOM      8  C   UNL     1      -1.726   0.728   4.875  0.00  0.00    +0.065 A 
ATOM      9  C   UNL     1      -0.486  -0.010   5.148  0.00  0.00    +0.262 A 
ATOM     10  O   UNL     1      -0.144  -0.272   6.287  0.00  0.00    -0.267 OA
ATOM     11  N   UNL     1       0.260  -0.394   4.086  0.00  0.00    -0.287 N 
ENDROOT
BRANCH   1  12
ATOM     12  S   UNL     1       0.879  -0.605   1.472  0.00  0.00    -0.084 S 
BRANCH  12  14
ATOM     13  C   UNL     1      -0.019   1.526   0.010  0.00  0.00    +0.019 C 
ATOM     14  C   UNL     1       0.002  -0.004   0.002  0.00  0.00    +0.052 C 
BRANCH  14  15
ATOM     15  C   UNL     1       0.718  -0.497  -1.257  0.00  0.00    +0.019 C 
BRANCH  15  16
ATOM     16  C   UNL     1       0.630  -2.023  -1.329  0.00  0.00    +0.036 C 
BRANCH  16  17
ATOM     17  C   UNL     1       1.336  -2.509  -2.568  0.00  0.00    -0.047 A 
ATOM     18  C   UNL     1       0.638  -2.639  -3.755  0.00  0.00    +0.003 A 
ATOM     19  C   UNL     1       1.285  -3.085  -4.892  0.00  0.00    +0.000 A 
ATOM     20  C   UNL     1       2.630  -3.400  -4.843  0.00  0.00    +0.000 A 
ATOM     21  C   UNL     1       3.328  -3.270  -3.657  0.00  0.00    +0.000 A 
ATOM     22  C   UNL     1       2.682  -2.820  -2.521  0.00  0.00    +0.003 A 
ENDBRANCH  16  17
ENDBRANCH  15  16
ENDBRANCH  14  15
ENDBRANCH  12  14
ENDBRANCH   1  12
BRANCH  11  23
ATOM     23  C   UNL     1       1.504  -1.137   4.301  0.00  0.00    +0.132 C 
BRANCH  23  24
ATOM     24  C   UNL     1       2.667  -0.154   4.448  0.00  0.00    +0.057 C 
BRANCH  24  25
ATOM     25  C   UNL     1       3.947  -0.919   4.669  0.00  0.00    -0.046 A 
ATOM     26  C   UNL     1       4.349  -1.237   5.953  0.00  0.00    +0.005 A 
ATOM     27  C   UNL     1       5.522  -1.939   6.156  0.00  0.00    +0.029 A 
ATOM     28  C   UNL     1       6.294  -2.323   5.075  0.00  0.00    +0.105 A 
ATOM     29  C   UNL     1       5.891  -2.006   3.791  0.00  0.00    +0.029 A 
ATOM     30  C   UNL     1       4.715  -1.308   3.588  0.00  0.00    +0.005 A 
BRANCH  28  31
ATOM     31  S   UNL     1       7.790  -3.217   5.333  0.00  0.00    +0.056 S 
ATOM     32  O   UNL     1       8.605  -2.983   4.193  0.00  0.00    -0.153 OA
ATOM     33  O   UNL     1       8.222  -2.913   6.653  0.00  0.00    -0.153 OA
BRANCH  31  34
ATOM     34  N   UNL     1       7.407  -4.828   5.320  0.00  0.00    -0.204 NA
ATOM     35  H   UNL     1       6.488  -5.106   5.185  0.00  0.00    +0.144 HD
ATOM     36  H   UNL     1       8.102  -5.492   5.447  0.00  0.00    +0.144 HD
ENDBRANCH  31  34
ENDBRANCH  28  31
ENDBRANCH  24  25
ENDBRANCH  23  24
ENDBRANCH  11  23
TORSDOF 10
