REMARK  Name = ZINC16037282
REMARK  6 active torsions:
REMARK  status: ('A' for Active; 'I' for Inactive)
REMARK    1  A    between atoms: C_1  and  O_2
REMARK    2  A    between atoms: O_2  and  C_3
REMARK    3  A    between atoms: C_6  and  N_9
REMARK    4  A    between atoms: C_25  and  C_31
REMARK    5  A    between atoms: C_31  and  C_33
REMARK    6  A    between atoms: C_36  and  N_39
REMARK                            x       y       z     vdW  Elec       q    Type
REMARK                         _______ _______ _______ _____ _____    ______ ____
ROOT
ATOM      1  N   UNL     1       2.460  -2.459  -4.303  0.00  0.00    -0.210 N 
ATOM      2  C   UNL     1       2.623  -3.787  -4.388  0.00  0.00    +0.232 C 
ATOM      3  O   UNL     1       2.376  -4.588  -3.512  0.00  0.00    -0.274 OA
ATOM      4  C   UNL     1       3.169  -4.120  -5.762  0.00  0.00    +0.114 C 
ATOM      5  C   UNL     1       4.405  -5.011  -5.628  0.00  0.00    +0.110 C 
ATOM      6  C   UNL     1       4.402  -6.120  -6.648  0.00  0.00    +0.004 C 
ATOM      7  C   UNL     1       5.578  -6.545  -7.165  0.00  0.00    -0.019 A 
ATOM      8  C   UNL     1       5.633  -7.682  -8.091  0.00  0.00    +0.008 A 
ATOM      9  C   UNL     1       6.843  -8.140  -8.487  0.00  0.00    +0.001 A 
ATOM     10  C   UNL     1       8.040  -7.563  -8.039  0.00  0.00    +0.001 A 
ATOM     11  C   UNL     1       8.069  -6.479  -7.231  0.00  0.00    +0.010 A 
ATOM     12  C   UNL     1       6.856  -5.887  -6.805  0.00  0.00    -0.004 A 
ATOM     13  C   UNL     1       6.841  -4.693  -6.112  0.00  0.00    +0.080 C 
ATOM     14  N   UNL     1       5.594  -4.177  -5.859  0.00  0.00    -0.317 N 
ATOM     15  C   UNL     1       5.198  -2.771  -5.825  0.00  0.00    +0.157 C 
ATOM     16  C   UNL     1       3.696  -2.739  -6.250  0.00  0.00    +0.118 C 
ATOM     17  C   UNL     1       2.939  -1.777  -5.354  0.00  0.00    +0.232 C 
ATOM     18  O   UNL     1       2.793  -0.590  -5.553  0.00  0.00    -0.274 OA
ENDROOT
BRANCH   1  22
ATOM     19  C   UNL     1       0.607  -0.608  -1.055  0.00  0.00    +0.120 A 
ATOM     20  C   UNL     1      -0.130  -1.425  -1.901  0.00  0.00    +0.047 A 
ATOM     21  C   UNL     1       0.483  -2.037  -2.976  0.00  0.00    +0.027 A 
ATOM     22  C   UNL     1       1.837  -1.836  -3.210  0.00  0.00    +0.044 A 
ATOM     23  C   UNL     1       2.573  -1.019  -2.364  0.00  0.00    +0.027 A 
ATOM     24  C   UNL     1       1.958  -0.402  -1.292  0.00  0.00    +0.047 A 
BRANCH  19  26
ATOM     25  C   UNL     1      -1.391  -0.261   0.187  0.00  0.00    +0.277 C 
ATOM     26  O   UNL     1       0.003  -0.005   0.003  0.00  0.00    -0.495 OA
ENDBRANCH  19  26
ENDBRANCH   1  22
BRANCH  15  27
ATOM     27  C   UNL     1       6.028  -1.973  -6.797  0.00  0.00    +0.184 C 
ATOM     28  O   UNL     1       6.626  -2.537  -7.689  0.00  0.00    -0.290 OA
BRANCH  27  29
ATOM     29  C   UNL     1       6.114  -0.510  -6.664  0.00  0.00    +0.019 A 
ATOM     30  C   UNL     1       5.430   0.143  -5.634  0.00  0.00    +0.013 A 
ATOM     31  C   UNL     1       5.515   1.515  -5.516  0.00  0.00    +0.033 A 
ATOM     32  C   UNL     1       6.274   2.244  -6.415  0.00  0.00    +0.126 A 
ATOM     33  C   UNL     1       6.953   1.605  -7.437  0.00  0.00    +0.033 A 
ATOM     34  C   UNL     1       6.883   0.234  -7.564  0.00  0.00    +0.013 A 
BRANCH  32  35
ATOM     35  N   UNL     1       6.359   3.716  -6.282  0.00  0.00    +0.056 N 
ATOM     36  O   UNL     1       5.766   4.278  -5.390  0.00  0.00    -0.126 OA
ATOM     37  O   UNL     1       7.021   4.356  -7.065  0.00  0.00    -0.126 OA
ENDBRANCH  32  35
ENDBRANCH  27  29
ENDBRANCH  15  27
TORSDOF 5
