REMARK  Name = ZINC34693948
REMARK  5 active torsions:
REMARK  status: ('A' for Active; 'I' for Inactive)
REMARK    1  A    between atoms: C_4  and  N_7
REMARK    2  A    between atoms: N_12  and  C_15
REMARK    3  A    between atoms: C_15  and  C_16
REMARK    4  A    between atoms: N_22  and  C_25
REMARK    5  A    between atoms: C_25  and  C_26
REMARK                            x       y       z     vdW  Elec       q    Type
REMARK                         _______ _______ _______ _____ _____    ______ ____
ROOT
ATOM      1  N   UNL     1       3.623  -0.651  -0.037  0.00  0.00    -0.245 N 
ATOM      2  C   UNL     1       3.645  -2.035   0.054  0.00  0.00    +0.173 A 
ATOM      3  C   UNL     1       4.871  -2.688   0.035  0.00  0.00    +0.152 A 
ATOM      4  C   UNL     1       6.054  -1.926  -0.076  0.00  0.00    +0.283 A 
ATOM      5  O   UNL     1       7.141  -2.476  -0.095  0.00  0.00    -0.265 OA
ATOM      6  N   UNL     1       5.968  -0.582  -0.161  0.00  0.00    -0.256 N 
ATOM      7  C   UNL     1       4.775   0.037  -0.147  0.00  0.00    +0.338 A 
ATOM      8  O   UNL     1       4.735   1.249  -0.231  0.00  0.00    -0.246 OA
ATOM      9  N   UNL     1       4.592  -4.036   0.139  0.00  0.00    -0.320 N 
ATOM     10  C   UNL     1       3.252  -4.156   0.215  0.00  0.00    +0.202 A 
ATOM     11  N   UNL     1       2.699  -2.971   0.165  0.00  0.00    -0.217 NA
ENDROOT
BRANCH   1  15
ATOM     12  C   UNL     1      -0.017   1.377   0.011  0.00  0.00    +0.000 A 
ATOM     13  C   UNL     1       0.523   0.959  -1.191  0.00  0.00    +0.002 A 
ATOM     14  C   UNL     1       1.730   0.286  -1.210  0.00  0.00    +0.026 A 
ATOM     15  C   UNL     1       2.400   0.031  -0.021  0.00  0.00    +0.053 A 
ATOM     16  C   UNL     1       1.854   0.453   1.184  0.00  0.00    +0.026 A 
ATOM     17  C   UNL     1       0.647   1.125   1.197  0.00  0.00    +0.002 A 
ENDBRANCH   1  15
BRANCH   6  18
ATOM     18  C   UNL     1       7.192   0.213  -0.276  0.00  0.00    +0.161 C 
BRANCH  18  19
ATOM     19  C   UNL     1       7.545   0.395  -1.754  0.00  0.00    +0.138 C 
ATOM     20  C   UNL     1       8.858   1.205  -1.897  0.00  0.00    +0.035 C 
ATOM     21  C   UNL     1       9.350   0.726  -3.290  0.00  0.00    +0.031 C 
ATOM     22  C   UNL     1       8.881  -0.744  -3.315  0.00  0.00    +0.160 C 
ATOM     23  O   UNL     1       7.820  -0.878  -2.361  0.00  0.00    -0.375 OA
ENDBRANCH  18  19
ENDBRANCH   6  18
BRANCH   9  24
ATOM     24  C   UNL     1       5.568  -5.128   0.163  0.00  0.00    +0.160 C 
BRANCH  24  25
ATOM     25  C   UNL     1       6.066  -5.327   1.571  0.00  0.00    -0.009 A 
ATOM     26  C   UNL     1       7.232  -4.710   1.984  0.00  0.00    +0.007 A 
ATOM     27  C   UNL     1       7.690  -4.892   3.276  0.00  0.00    +0.000 A 
ATOM     28  C   UNL     1       6.981  -5.690   4.155  0.00  0.00    +0.001 A 
ATOM     29  C   UNL     1       5.816  -6.307   3.743  0.00  0.00    +0.020 A 
ATOM     30  C   UNL     1       5.354  -6.121   2.451  0.00  0.00    +0.046 A 
ATOM     31 CL   UNL     1       3.886  -6.890   1.934  0.00  0.00    -0.083 Cl
ENDBRANCH  24  25
ENDBRANCH   9  24
TORSDOF 5
