REMARK  Name = ZINC50017563
REMARK  4 active torsions:
REMARK  status: ('A' for Active; 'I' for Inactive)
REMARK    1  A    between atoms: C_1  and  C_2
REMARK    2  A    between atoms: C_6  and  C_21
REMARK    3  A    between atoms: C_10  and  C_12
REMARK    4  A    between atoms: C_17  and  N_18
REMARK                            x       y       z     vdW  Elec       q    Type
REMARK                         _______ _______ _______ _____ _____    ______ ____
ROOT
ATOM      1  C   UNL     1       0.024   1.556   0.013  0.00  0.00    +0.028 C 
ATOM      2  C   UNL     1       0.022   0.026   0.000  0.00  0.00    +0.073 C 
ATOM      3  C   UNL     1      -1.421  -0.485   0.014  0.00  0.00    +0.023 C 
ATOM      4  C   UNL     1      -2.085  -0.093   1.336  0.00  0.00    +0.016 C 
ATOM      5  C   UNL     1      -1.332  -0.742   2.499  0.00  0.00    +0.092 C 
ATOM      6  C   UNL     1       0.113  -0.233   2.514  0.00  0.00    +0.121 C 
ATOM      7  N   UNL     1       0.717  -0.476   1.194  0.00  0.00    -0.294 N 
ATOM      8  C   UNL     1       1.879  -1.149   1.079  0.00  0.00    +0.249 C 
ATOM      9  O   UNL     1       2.311  -1.435  -0.021  0.00  0.00    -0.270 OA
ENDROOT
BRANCH   8  10
ATOM     10  C   UNL     1       2.628  -1.536   2.288  0.00  0.00    +0.060 A 
ATOM     11  C   UNL     1       2.973  -0.573   3.240  0.00  0.00    +0.056 A 
ATOM     12  C   UNL     1       3.673  -0.941   4.368  0.00  0.00    +0.159 A 
ATOM     13  C   UNL     1       4.038  -2.269   4.565  0.00  0.00    +0.160 A 
ATOM     14  C   UNL     1       3.702  -3.231   3.631  0.00  0.00    +0.064 A 
ATOM     15  C   UNL     1       2.992  -2.877   2.491  0.00  0.00    +0.040 A 
ATOM     16  F   UNL     1       4.724  -2.620   5.674  0.00  0.00    -0.202 F 
ATOM     17  F   UNL     1       4.006  -0.009   5.288  0.00  0.00    -0.202 F 
BRANCH  15  18
ATOM     18  N   UNL     1       2.649  -3.844   1.554  0.00  0.00    -0.357 N 
ATOM     19  H   UNL     1       2.220  -3.584   0.724  0.00  0.00    +0.142 HD
ATOM     20  H   UNL     1       2.838  -4.779   1.731  0.00  0.00    +0.142 HD
ENDBRANCH  15  18
ENDBRANCH   8  10
BRANCH   5  21
ATOM     21  C   UNL     1      -2.006  -0.382   3.798  0.00  0.00    +0.215 C 
ATOM     22  O   UNL     1      -2.991   0.325   3.795  0.00  0.00    -0.276 OA
ATOM     23  N   UNL     1      -1.512  -0.844   4.964  0.00  0.00    -0.329 N 
ATOM     24  H   UNL     1      -0.724  -1.409   4.967  0.00  0.00    +0.145 HD
ATOM     25  H   UNL     1      -1.946  -0.612   5.800  0.00  0.00    +0.145 HD
ENDBRANCH   5  21
TORSDOF 3
