REMARK  Name = ZINC39982510
REMARK  6 active torsions:
REMARK  status: ('A' for Active; 'I' for Inactive)
REMARK    1  A    between atoms: C_1  and  C_2
REMARK    2  A    between atoms: C_5  and  C_8
REMARK    3  A    between atoms: C_8  and  C_9
REMARK    4  A    between atoms: C_12  and  S_14
REMARK    5  A    between atoms: S_14  and  C_15
REMARK    6  A    between atoms: C_17  and  C_28
REMARK                            x       y       z     vdW  Elec       q    Type
REMARK                         _______ _______ _______ _____ _____    ______ ____
ROOT
ATOM      1  C   UNL     1      -6.991   1.204  -2.709  0.00  0.00    +0.173 C 
ATOM      2  C   UNL     1      -7.682   2.413  -3.310  0.00  0.00    -0.009 C 
ATOM      3  C   UNL     1      -8.919   2.197  -3.925  0.00  0.00    +0.003 A 
ATOM      4  C   UNL     1      -9.630   3.266  -4.509  0.00  0.00    +0.030 A 
ATOM      5  C   UNL     1     -10.832   3.027  -5.102  0.00  0.00    +0.042 A 
ATOM      6  C   UNL     1     -11.377   1.745  -5.143  0.00  0.00    +0.022 A 
ATOM      7  C   UNL     1     -10.738   0.674  -4.596  0.00  0.00    +0.025 A 
ATOM      8  C   UNL     1      -9.491   0.847  -3.968  0.00  0.00    +0.041 A 
ATOM      9  N   UNL     1      -8.864  -0.206  -3.432  0.00  0.00    -0.284 N 
ATOM     10  C   UNL     1      -7.697  -0.128  -2.826  0.00  0.00    +0.235 C 
ATOM     11  O   UNL     1      -7.185  -1.129  -2.361  0.00  0.00    -0.274 OA
ATOM     12 CL   UNL     1     -11.703   4.346  -5.820  0.00  0.00    -0.084 Cl
ATOM     13  H   UNL     1      -9.293  -1.075  -3.492  0.00  0.00    +0.155 HD
ENDROOT
BRANCH   2  14
ATOM     14  C   UNL     1      -7.101   3.705  -3.250  0.00  0.00    -0.020 A 
ATOM     15  C   UNL     1      -7.728   4.729  -2.523  0.00  0.00    +0.008 A 
ATOM     16  C   UNL     1      -7.155   5.981  -2.471  0.00  0.00    +0.001 A 
ATOM     17  C   UNL     1      -5.964   6.230  -3.133  0.00  0.00    +0.000 A 
ATOM     18  C   UNL     1      -5.337   5.226  -3.854  0.00  0.00    +0.001 A 
ATOM     19  C   UNL     1      -5.891   3.967  -3.913  0.00  0.00    +0.008 A 
ENDBRANCH   2  14
BRANCH   1  20
ATOM     20  S   UNL     1      -6.718   1.537  -0.947  0.00  0.00    -0.048 S 
BRANCH  20  24
ATOM     21  C   UNL     1      -4.488  -1.119   0.783  0.00  0.00    +0.224 A 
ATOM     22  N   UNL     1      -4.533  -1.567  -0.437  0.00  0.00    -0.111 NA
ATOM     23  N   UNL     1      -5.252  -0.780  -1.158  0.00  0.00    -0.101 NA
ATOM     24  C   UNL     1      -5.694   0.206  -0.415  0.00  0.00    +0.278 A 
ATOM     25  O   UNL     1      -5.224   0.008   0.831  0.00  0.00    -0.415 OA
BRANCH  21  26
ATOM     26  C   UNL     1      -3.751  -1.751   1.936  0.00  0.00    +0.149 C 
BRANCH  26  30
ATOM     27  C   UNL     1      -0.595   1.733   1.146  0.00  0.00    +0.044 C 
ATOM     28  C   UNL     1      -0.591   0.206   1.240  0.00  0.00    +0.159 C 
ATOM     29  N   UNL     1      -1.963  -0.337   1.172  0.00  0.00    -0.278 NA
ATOM     30  C   UNL     1      -2.352  -1.195   2.004  0.00  0.00    +0.033 C 
ATOM     31  C   UNL     1      -1.383  -1.661   3.080  0.00  0.00    +0.122 C 
ATOM     32  S   UNL     1      -0.082  -0.357   2.924  0.00  0.00    -0.129 S 
ENDBRANCH  26  30
ENDBRANCH  21  26
ENDBRANCH  20  24
ENDBRANCH   1  20
TORSDOF 5
