REMARK  Name = ZINC66591665
REMARK  6 active torsions:
REMARK  status: ('A' for Active; 'I' for Inactive)
REMARK    1  A    between atoms: C_1  and  C_2
REMARK    2  A    between atoms: C_2  and  C_22
REMARK    3  A    between atoms: C_3  and  C_4
REMARK    4  A    between atoms: N_6  and  N_7
REMARK    5  A    between atoms: C_8  and  C_10
REMARK    6  A    between atoms: N_19  and  C_21
REMARK                            x       y       z     vdW  Elec       q    Type
REMARK                         _______ _______ _______ _____ _____    ______ ____
ROOT
ATOM      1  N   UNL     1       0.082  -4.229   2.314  0.00  0.00    -0.229 N 
ATOM      2  C   UNL     1       0.102  -4.909   3.477  0.00  0.00    +0.281 C 
ATOM      3  O   UNL     1       0.104  -4.307   4.533  0.00  0.00    -0.267 OA
ATOM      4  H   UNL     1       0.080  -4.710   1.471  0.00  0.00    +0.173 HD
ENDROOT
BRANCH   2   5
ATOM      5  C   UNL     1       0.122  -6.385   3.469  0.00  0.00    +0.155 A 
ATOM      6  C   UNL     1       0.138  -7.137   4.734  0.00  0.00    +0.020 A 
ATOM      7  C   UNL     1       0.136  -6.516   5.979  0.00  0.00    +0.011 A 
ATOM      8  C   UNL     1       0.152  -7.290   7.121  0.00  0.00    +0.001 A 
ATOM      9  C   UNL     1       0.170  -8.676   7.040  0.00  0.00    +0.001 A 
ATOM     10  C   UNL     1       0.173  -9.311   5.817  0.00  0.00    +0.014 A 
ATOM     11  C   UNL     1       0.156  -8.549   4.653  0.00  0.00    +0.050 A 
ATOM     12  C   UNL     1       0.158  -9.143   3.309  0.00  0.00    +0.275 A 
ATOM     13  O   UNL     1       0.172 -10.351   3.162  0.00  0.00    -0.266 OA
ATOM     14  N   UNL     1       0.141  -8.318   2.242  0.00  0.00    -0.231 N 
ATOM     15  N   UNL     1       0.120  -7.043   2.335  0.00  0.00    -0.163 NA
ATOM     16  C   UNL     1       0.143  -8.916   0.904  0.00  0.00    +0.176 C 
ENDBRANCH   2   5
BRANCH   1  19
ATOM     17  C   UNL     1       0.042  -2.148   1.158  0.00  0.00    +0.253 C 
ATOM     18  O   UNL     1       0.040  -2.751   0.101  0.00  0.00    -0.269 OA
ATOM     19  N   UNL     1       0.062  -2.828   2.321  0.00  0.00    -0.231 N 
ATOM     20  H   UNL     1       0.064  -2.348   3.164  0.00  0.00    +0.173 HD
BRANCH  17  23
ATOM     21  C   UNL     1      -0.018   1.503   0.010  0.00  0.00    +0.044 C 
ATOM     22  C   UNL     1       0.002  -0.004   0.002  0.00  0.00    -0.037 C 
ATOM     23  C   UNL     1       0.022  -0.684   1.166  0.00  0.00    +0.072 C 
BRANCH  22  24
ATOM     24  C   UNL     1      -0.000  -0.733  -1.276  0.00  0.00    -0.004 A 
ATOM     25  C   UNL     1      -1.165  -1.364  -1.724  0.00  0.00    +0.009 A 
ATOM     26  C   UNL     1      -1.159  -2.045  -2.922  0.00  0.00    +0.001 A 
ATOM     27  C   UNL     1      -0.004  -2.106  -3.683  0.00  0.00    +0.001 A 
ATOM     28  C   UNL     1       1.153  -1.485  -3.249  0.00  0.00    +0.020 A 
ATOM     29  C   UNL     1       1.162  -0.793  -2.054  0.00  0.00    +0.048 A 
ATOM     30 CL   UNL     1       2.613  -0.009  -1.513  0.00  0.00    -0.083 Cl
ENDBRANCH  22  24
ENDBRANCH  17  23
ENDBRANCH   1  19
TORSDOF 4
