REMARK  Name = ZINC32916416
REMARK  8 active torsions:
REMARK  status: ('A' for Active; 'I' for Inactive)
REMARK    1  A    between atoms: C_5  and  S_8
REMARK    2  A    between atoms: S_8  and  N_11
REMARK    3  A    between atoms: N_11  and  C_12
REMARK    4  A    between atoms: C_12  and  C_13
REMARK    5  A    between atoms: C_13  and  C_14
REMARK    6  A    between atoms: C_14  and  C_15
REMARK    7  A    between atoms: C_15  and  N_16
REMARK    8  A    between atoms: C_19  and  C_22
REMARK                            x       y       z     vdW  Elec       q    Type
REMARK                         _______ _______ _______ _____ _____    ______ ____
ROOT
ATOM      1  C   UNL     1       2.227   5.169  -2.431  0.00  0.00    +0.106 C 
ENDROOT
BRANCH   1   2
ATOM      2  N   UNL     1       3.077   4.328  -1.585  0.00  0.00    -0.190 NA
ATOM      3  H   UNL     1       3.889   3.737  -2.036  0.00  0.00    +0.148 HD
BRANCH   2   4
ATOM      4  S   UNL     1       2.671   4.069  -0.001  0.00  0.00    +0.061 S 
ATOM      5  O   UNL     1       2.388   5.343   0.559  0.00  0.00    -0.153 OA
ATOM      6  O   UNL     1       3.662   3.204   0.536  0.00  0.00    -0.153 OA
BRANCH   4  11
ATOM      7  C   UNL     1      -0.013   1.076   0.008  0.00  0.00    +0.037 A 
ATOM      8  C   UNL     1      -1.220   1.751   0.017  0.00  0.00    +0.021 A 
ATOM      9  C   UNL     1      -1.239   3.134   0.031  0.00  0.00    +0.037 A 
ATOM     10  C   UNL     1      -0.050   3.842   0.023  0.00  0.00    +0.070 A 
ATOM     11  C   UNL     1       1.157   3.167   0.008  0.00  0.00    +0.142 A 
ATOM     12  C   UNL     1       1.176   1.784   0.000  0.00  0.00    +0.070 A 
ATOM     13 CL   UNL     1       2.691   0.936  -0.018  0.00  0.00    -0.081 Cl
ATOM     14 CL   UNL     1      -0.074   5.578   0.033  0.00  0.00    -0.081 Cl
ATOM     15 BR   UNL     1      -2.844   0.783   0.020  0.00  0.00    -0.050 Br
ENDBRANCH   4  11
ENDBRANCH   2   4
ENDBRANCH   1   2
BRANCH   1  16
ATOM     16  C   UNL     1       2.990   5.552  -3.701  0.00  0.00    +0.015 C 
BRANCH  16  17
ATOM     17  C   UNL     1       2.102   6.431  -4.584  0.00  0.00    -0.017 C 
BRANCH  17  18
ATOM     18  C   UNL     1       2.865   6.814  -5.854  0.00  0.00    -0.079 C 
BRANCH  18  19
ATOM     19  N   UNL     1       2.013   7.657  -6.702  0.00  0.00    +0.380 N 
ATOM     20  C   UNL     1       1.351   8.702  -5.910  0.00  0.00    -0.078 C 
ATOM     21  C   UNL     1       0.364   9.466  -6.795  0.00  0.00    -0.006 C 
ATOM     22  C   UNL     1       1.118  10.092  -7.971  0.00  0.00    +0.071 C 
ATOM     23  C   UNL     1       1.838   8.989  -8.751  0.00  0.00    -0.006 C 
ATOM     24  C   UNL     1       2.783   8.238  -7.809  0.00  0.00    -0.078 C 
ATOM     25  H   UNL     1       1.229   7.019  -7.137  0.00  0.00    -0.082 HD
BRANCH  22  26
ATOM     26  C   UNL     1       0.142  10.796  -8.878  0.00  0.00    +0.213 C 
ATOM     27  O   UNL     1       0.032  10.450 -10.035  0.00  0.00    -0.276 OA
ATOM     28  N   UNL     1      -0.608  11.810  -8.403  0.00  0.00    -0.329 N 
ATOM     29  H   UNL     1      -1.321  12.324  -9.065  0.00  0.00    +0.145 HD
ATOM     30  H   UNL     1      -0.508  12.124  -7.354  0.00  0.00    +0.145 HD
ENDBRANCH  22  26
ENDBRANCH  18  19
ENDBRANCH  17  18
ENDBRANCH  16  17
ENDBRANCH   1  16
TORSDOF 8
