REMARK  Name = ZINC09374057
REMARK  18 active torsions:
REMARK  status: ('A' for Active; 'I' for Inactive)
REMARK    1  A    between atoms: C_1  and  C_2
REMARK    2  A    between atoms: C_2  and  N_72
REMARK    3  A    between atoms: C_3  and  C_4
REMARK    4  A    between atoms: C_3  and  N_72
REMARK    5  A    between atoms: C_5  and  C_6
REMARK    6  A    between atoms: C_5  and  N_72
REMARK    7  A    between atoms: C_6  and  N_7
REMARK    8  A    between atoms: C_8  and  C_29
REMARK    9  A    between atoms: C_10  and  C_15
REMARK   10  A    between atoms: C_11  and  O_14
REMARK   11  A    between atoms: C_15  and  C_17
REMARK   12  A    between atoms: C_20  and  O_24
REMARK   13  A    between atoms: C_21  and  C_23
REMARK   14  A    between atoms: O_24  and  C_25
REMARK   15  A    between atoms: C_25  and  C_26
REMARK   16  A    between atoms: C_26  and  C_27
REMARK   17  A    between atoms: C_26  and  C_28
REMARK   18  A    between atoms: C_33  and  N_35
REMARK                            x       y       z     vdW  Elec       q    Type
REMARK                         _______ _______ _______ _____ _____    ______ ____
ROOT
ATOM      1  N   UNL     1       0.111   8.439   0.167  0.00  0.00    -0.285 N 
ATOM      2  C   UNL     1      -0.167   7.005   0.026  0.00  0.00    +0.144 C 
ATOM      3  C   UNL     1       1.132   6.365  -0.406  0.00  0.00    +0.071 C 
ATOM      4  C   UNL     1       2.048   7.358  -0.490  0.00  0.00    +0.188 C 
ATOM      5  C   UNL     1       1.406   8.642  -0.138  0.00  0.00    +0.282 C 
ATOM      6  O   UNL     1       1.965   9.720  -0.123  0.00  0.00    -0.267 OA
ENDROOT
BRANCH   2   7
ATOM      7  C   UNL     1      -1.228   6.782  -1.021  0.00  0.00    -0.020 A 
ATOM      8  C   UNL     1      -1.193   7.498  -2.204  0.00  0.00    +0.006 A 
ATOM      9  C   UNL     1      -2.163   7.291  -3.166  0.00  0.00    +0.003 A 
ATOM     10  C   UNL     1      -3.174   6.374  -2.942  0.00  0.00    +0.033 A 
ATOM     11  C   UNL     1      -3.211   5.662  -1.758  0.00  0.00    +0.127 A 
ATOM     12  C   UNL     1      -2.238   5.867  -0.797  0.00  0.00    +0.038 A 
BRANCH  11  13
ATOM     13  N   UNL     1      -4.294   4.681  -1.518  0.00  0.00    +0.056 N 
ATOM     14  O   UNL     1      -4.379   4.120  -0.440  0.00  0.00    -0.126 OA
ATOM     15  O   UNL     1      -5.099   4.435  -2.398  0.00  0.00    -0.126 OA
ENDBRANCH  11  13
ENDBRANCH   2   7
BRANCH   4  16
ATOM     16  O   UNL     1       3.345   7.200  -0.842  0.00  0.00    -0.502 OA
ATOM     17  H   UNL     1       3.805   8.088  -0.825  0.00  0.00    +0.292 HD
ENDBRANCH   4  16
BRANCH   3  18
ATOM     18  C   UNL     1       1.358   4.941  -0.677  0.00  0.00    +0.195 C 
ATOM     19  O   UNL     1       1.613   4.570  -1.807  0.00  0.00    -0.287 OA
BRANCH  18  20
ATOM     20  C   UNL     1       1.277   3.959   0.422  0.00  0.00    +0.023 A 
ATOM     21  C   UNL     1       1.060   4.392   1.734  0.00  0.00    +0.015 A 
ATOM     22  C   UNL     1       0.985   3.473   2.756  0.00  0.00    +0.046 A 
ATOM     23  C   UNL     1       1.118   2.115   2.484  0.00  0.00    +0.123 A 
ATOM     24  C   UNL     1       1.339   1.682   1.182  0.00  0.00    -0.008 A 
ATOM     25  C   UNL     1       1.416   2.594   0.154  0.00  0.00    +0.018 A 
ATOM     26  C   UNL     1       1.488   0.210   0.894  0.00  0.00    +0.047 C 
BRANCH  23  27
ATOM     27  O   UNL     1       1.037   1.212   3.494  0.00  0.00    -0.491 OA
BRANCH  27  28
ATOM     28  C   UNL     1       0.710   1.716   4.790  0.00  0.00    +0.232 C 
BRANCH  28  29
ATOM     29  C   UNL     1       0.729   0.569   5.803  0.00  0.00    +0.020 C 
ATOM     30  C   UNL     1       0.502   1.126   7.210  0.00  0.00    +0.010 C 
ATOM     31  C   UNL     1      -0.381  -0.428   5.464  0.00  0.00    +0.010 C 
ENDBRANCH  28  29
ENDBRANCH  27  28
ENDBRANCH  23  27
ENDBRANCH  18  20
ENDBRANCH   3  18
BRANCH   1  32
ATOM     32  C   UNL     1      -0.851   9.468   0.570  0.00  0.00    +0.090 C 
BRANCH  32  33
ATOM     33  C   UNL     1      -0.827   9.620   2.092  0.00  0.00    -0.060 C 
BRANCH  33  34
ATOM     34  N   UNL     1      -1.817  10.646   2.484  0.00  0.00    +0.380 N 
ATOM     35  H   UNL     1      -2.722  10.417   2.056  0.00  0.00    -0.082 HD
BRANCH  34  37
ATOM     36  C   UNL     1      -2.835   9.471   4.370  0.00  0.00    -0.017 C 
ATOM     37  C   UNL     1      -1.972  10.663   3.954  0.00  0.00    -0.082 C 
ENDBRANCH  34  37
BRANCH  34  38
ATOM     38  C   UNL     1      -1.383  11.976   2.006  0.00  0.00    -0.082 C 
ATOM     39  C   UNL     1      -2.566  12.941   2.099  0.00  0.00    -0.017 C 
ENDBRANCH  34  38
ENDBRANCH  33  34
ENDBRANCH  32  33
ENDBRANCH   1  32
TORSDOF 13
