REMARK  Name = ZINC53141418
REMARK  8 active torsions:
REMARK  status: ('A' for Active; 'I' for Inactive)
REMARK    1  A    between atoms: C_1  and  C_2
REMARK    2  A    between atoms: C_5  and  C_21
REMARK    3  A    between atoms: C_6  and  C_8
REMARK    4  A    between atoms: C_8  and  C_9
REMARK    5  A    between atoms: N_11  and  C_12
REMARK    6  A    between atoms: C_12  and  C_13
REMARK    7  A    between atoms: C_15  and  N_20
REMARK    8  A    between atoms: C_18  and  O_19
REMARK                            x       y       z     vdW  Elec       q    Type
REMARK                         _______ _______ _______ _____ _____    ______ ____
ROOT
ATOM      1  C   UNL     1       1.476  -3.187   2.852  0.00  0.00    +0.218 C 
ATOM      2  O   UNL     1       2.386  -2.846   2.127  0.00  0.00    -0.275 OA
ATOM      3  N   UNL     1       1.736  -3.871   3.984  0.00  0.00    -0.311 N 
ATOM      4  H   UNL     1       1.008  -4.143   4.564  0.00  0.00    +0.149 HD
ENDROOT
BRANCH   1   5
ATOM      5  C   UNL     1       0.054  -2.845   2.489  0.00  0.00    +0.131 C 
BRANCH   5  11
ATOM      6  C   UNL     1      -0.018   1.503   0.010  0.00  0.00    +0.044 C 
ATOM      7  C   UNL     1       0.002  -0.004   0.002  0.00  0.00    -0.050 A 
ATOM      8  C   UNL     1       0.006  -0.689  -1.199  0.00  0.00    +0.003 A 
ATOM      9  C   UNL     1       0.025  -2.071  -1.207  0.00  0.00    +0.004 A 
ATOM     10  C   UNL     1       0.040  -2.768  -0.013  0.00  0.00    -0.047 A 
ATOM     11  C   UNL     1       0.037  -2.084   1.188  0.00  0.00    -0.035 A 
ATOM     12  C   UNL     1       0.023  -0.702   1.195  0.00  0.00    +0.007 A 
ATOM     13  C   UNL     1       0.059  -4.275  -0.021  0.00  0.00    +0.044 C 
ENDBRANCH   5  11
ENDBRANCH   1   5
BRANCH   3  14
ATOM     14  C   UNL     1       3.118  -4.203   4.338  0.00  0.00    +0.143 C 
BRANCH  14  15
ATOM     15  C   UNL     1       3.134  -4.964   5.639  0.00  0.00    +0.013 A 
ATOM     16  C   UNL     1       3.365  -6.326   5.640  0.00  0.00    +0.031 A 
ATOM     17  C   UNL     1       3.381  -7.026   6.838  0.00  0.00    +0.025 A 
ATOM     18  C   UNL     1       3.164  -6.356   8.036  0.00  0.00    +0.026 A 
ATOM     19  C   UNL     1       2.933  -4.995   8.033  0.00  0.00    +0.047 A 
ATOM     20  C   UNL     1       2.923  -4.295   6.835  0.00  0.00    +0.122 A 
BRANCH  17  21
ATOM     21  N   UNL     1       3.615  -8.406   6.840  0.00  0.00    -0.358 N 
ATOM     22  H   UNL     1       3.766  -8.873   6.003  0.00  0.00    +0.142 HD
ATOM     23  H   UNL     1       3.625  -8.895   7.678  0.00  0.00    +0.142 HD
ENDBRANCH  17  21
BRANCH  20  24
ATOM     24  O   UNL     1       2.701  -2.953   6.834  0.00  0.00    -0.506 OA
ATOM     25  H   UNL     1       1.768  -2.709   6.761  0.00  0.00    +0.292 HD
ENDBRANCH  20  24
ENDBRANCH  14  15
ENDBRANCH   3  14
TORSDOF 6
