REMARK  Name = ZINC01652157
REMARK  4 active torsions:
REMARK  status: ('A' for Active; 'I' for Inactive)
REMARK    1  A    between atoms: C_1  and  C_2
REMARK    2  A    between atoms: C_2  and  C_3
REMARK    3  A    between atoms: C_3  and  C_10
REMARK    4  A    between atoms: C_6  and  C_9
REMARK                            x       y       z     vdW  Elec       q    Type
REMARK                         _______ _______ _______ _____ _____    ______ ____
ROOT
ATOM      1  C   UNL     1      -2.792   0.994  -0.034  0.00  0.00    +0.197 C 
ATOM      2  O   UNL     1      -3.932   1.724  -0.507  0.00  0.00    -0.342 OA
ATOM      3  C   UNL     1      -4.570   0.922  -1.516  0.00  0.00    +0.195 C 
ATOM      4  C   UNL     1      -4.062  -0.507  -1.202  0.00  0.00    +0.145 C 
ATOM      5  O   UNL     1      -2.709  -0.246  -0.756  0.00  0.00    -0.339 OA
ATOM      6  C   UNL     1      -4.066  -1.379  -2.459  0.00  0.00    +0.040 C 
ENDROOT
BRANCH   1   7
ATOM      7  C   UNL     1      -1.541   1.801  -0.268  0.00  0.00    +0.011 A 
ATOM      8  C   UNL     1      -0.339   1.159  -0.502  0.00  0.00    +0.009 A 
ATOM      9  C   UNL     1       0.808   1.899  -0.722  0.00  0.00    +0.000 A 
ATOM     10  C   UNL     1       0.753   3.281  -0.702  0.00  0.00    +0.000 A 
ATOM     11  C   UNL     1      -0.448   3.922  -0.462  0.00  0.00    +0.000 A 
ATOM     12  C   UNL     1      -1.595   3.182  -0.243  0.00  0.00    +0.009 A 
ENDBRANCH   1   7
BRANCH   1  14
ATOM     13  C   UNL     1      -3.027   2.031   2.227  0.00  0.00    +0.009 C 
ATOM     14  C   UNL     1      -2.948   0.709   1.461  0.00  0.00    +0.067 C 
ENDBRANCH   1  14
TORSDOF 2
