REMARK  Name = ZINC16060087
REMARK  8 active torsions:
REMARK  status: ('A' for Active; 'I' for Inactive)
REMARK    1  A    between atoms: C_1  and  C_2
REMARK    2  A    between atoms: C_3  and  C_30
REMARK    3  A    between atoms: C_4  and  C_20
REMARK    4  A    between atoms: N_9  and  C_10
REMARK    5  A    between atoms: C_14  and  C_16
REMARK    6  A    between atoms: C_24  and  N_26
REMARK    7  A    between atoms: N_32  and  C_33
REMARK    8  A    between atoms: N_32  and  C_34
REMARK                            x       y       z     vdW  Elec       q    Type
REMARK                         _______ _______ _______ _____ _____    ______ ____
ROOT
ATOM      1  C   UNL     1       2.349   5.100   0.027  0.00  0.00    +0.062 C 
ATOM      2  C   UNL     1       1.080   5.912   0.072  0.00  0.00    +0.025 C 
ATOM      3  C   UNL     1       1.153   7.247   0.258  0.00  0.00    +0.056 C 
ATOM      4  C   UNL     1      -0.147   8.026   0.296  0.00  0.00    +0.139 C 
ATOM      5  N   UNL     1      -1.391   7.256   0.127  0.00  0.00    -0.315 N 
ATOM      6  C   UNL     1      -1.302   5.924  -0.055  0.00  0.00    +0.142 C 
ATOM      7  S   UNL     1      -2.740   5.018  -0.260  0.00  0.00    -0.018 S 
ATOM      8  N   UNL     1      -0.125   5.285  -0.076  0.00  0.00    -0.255 N 
ATOM      9  H   UNL     1      -2.254   7.699   0.142  0.00  0.00    +0.149 HD
ENDROOT
BRANCH   4  10
ATOM     10  C   UNL     1      -0.220   8.742   1.620  0.00  0.00    -0.020 A 
ATOM     11  C   UNL     1      -0.497   8.034   2.775  0.00  0.00    +0.007 A 
ATOM     12  C   UNL     1      -0.564   8.690   3.989  0.00  0.00    +0.022 A 
ATOM     13  C   UNL     1      -0.354  10.057   4.049  0.00  0.00    +0.071 A 
ATOM     14  C   UNL     1      -0.076  10.765   2.893  0.00  0.00    +0.145 A 
ATOM     15  C   UNL     1      -0.004  10.106   1.680  0.00  0.00    +0.040 A 
ATOM     16 CL   UNL     1      -0.439  10.882   5.574  0.00  0.00    -0.081 Cl
BRANCH  14  17
ATOM     17  N   UNL     1       0.150  12.226   2.957  0.00  0.00    +0.058 N 
ATOM     18  O   UNL     1       0.394  12.849   1.939  0.00  0.00    -0.126 OA
ATOM     19  O   UNL     1       0.091  12.805   4.027  0.00  0.00    -0.126 OA
ENDBRANCH  14  17
ENDBRANCH   4  10
BRANCH   8  20
ATOM     20  C   UNL     1      -0.130   3.897  -0.266  0.00  0.00    +0.041 A 
ATOM     21  C   UNL     1      -0.009   3.370  -1.545  0.00  0.00    +0.024 A 
ATOM     22  C   UNL     1      -0.015   2.001  -1.729  0.00  0.00    +0.002 A 
ATOM     23  C   UNL     1      -0.140   1.156  -0.641  0.00  0.00    +0.012 A 
ATOM     24  C   UNL     1      -0.265   1.679   0.632  0.00  0.00    +0.057 A 
ATOM     25  C   UNL     1      -0.255   3.047   0.824  0.00  0.00    +0.036 A 
BRANCH  24  26
ATOM     26  C   UNL     1      -0.407   0.754   1.814  0.00  0.00    +0.417 C 
ATOM     27  F   UNL     1      -0.385  -0.573   1.373  0.00  0.00    -0.166 F 
ATOM     28  F   UNL     1       0.651   0.968   2.704  0.00  0.00    -0.166 F 
ATOM     29  F   UNL     1      -1.620   1.010   2.463  0.00  0.00    -0.166 F 
ENDBRANCH  24  26
ENDBRANCH   8  20
BRANCH   3  30
ATOM     30  C   UNL     1       2.402   7.899   0.410  0.00  0.00    +0.246 C 
ATOM     31  O   UNL     1       2.805   8.188   1.522  0.00  0.00    -0.270 OA
ATOM     32  N   UNL     1       3.143   8.198  -0.675  0.00  0.00    -0.304 N 
ATOM     33  C   UNL     1       4.380   8.968  -0.527  0.00  0.00    +0.132 C 
ATOM     34  C   UNL     1       2.711   7.754  -2.002  0.00  0.00    +0.132 C 
ENDBRANCH   3  30
TORSDOF 5
