REMARK  Name = ZINC06857605
REMARK  5 active torsions:
REMARK  status: ('A' for Active; 'I' for Inactive)
REMARK    1  A    between atoms: C_1  and  N_44
REMARK    2  A    between atoms: C_9  and  O_25
REMARK    3  A    between atoms: C_11  and  C_14
REMARK    4  A    between atoms: C_15  and  C_16
REMARK    5  A    between atoms: C_20  and  N_22
REMARK                            x       y       z     vdW  Elec       q    Type
REMARK                         _______ _______ _______ _____ _____    ______ ____
ROOT
ATOM      1  C   UNL     1     -12.132   8.548   0.769  0.00  0.00    -0.096 C 
ATOM      2  C   UNL     1     -10.285   7.971  -0.689  0.00  0.00    -0.074 C 
ATOM      3  C   UNL     1      -8.887   8.420  -1.121  0.00  0.00    +0.018 C 
ATOM      4  C   UNL     1      -7.953   8.291   0.077  0.00  0.00    -0.027 A 
ATOM      5  C   UNL     1      -8.467   8.191   1.327  0.00  0.00    -0.021 A 
ATOM      6  S   UNL     1      -7.056   8.061   2.390  0.00  0.00    -0.080 S 
ATOM      7  C   UNL     1      -5.823   8.134   1.206  0.00  0.00    +0.080 A 
ATOM      8  C   UNL     1      -6.506   8.266  -0.011  0.00  0.00    +0.067 A 
ATOM      9  C   UNL     1      -5.683   8.373  -1.244  0.00  0.00    +0.220 C 
ATOM     10  N   UNL     1      -4.411   8.094  -1.149  0.00  0.00    -0.223 NA
ATOM     11  C   UNL     1      -3.753   7.623   0.062  0.00  0.00    +0.217 C 
ATOM     12  N   UNL     1      -4.452   8.086   1.276  0.00  0.00    -0.313 N 
ATOM     13  C   UNL     1      -9.917   8.195   1.695  0.00  0.00    -0.036 C 
ATOM     14  H   UNL     1      -3.971   8.341   2.079  0.00  0.00    +0.149 HD
ATOM     15  N   UNL     1     -10.681   8.706   0.531  0.00  0.00    +0.381 N 
ATOM     16  H   UNL     1     -10.470   9.702   0.403  0.00  0.00    -0.082 HD
ENDROOT
BRANCH  11  17
ATOM     17  C   UNL     1      -3.727   6.116   0.054  0.00  0.00    +0.019 C 
ATOM     18  C   UNL     1      -2.567   5.474   0.045  0.00  0.00    +0.007 C 
BRANCH  18  19
ATOM     19  C   UNL     1      -2.542   3.996   0.037  0.00  0.00    -0.023 A 
ATOM     20  C   UNL     1      -3.736   3.274   0.039  0.00  0.00    +0.008 A 
ATOM     21  C   UNL     1      -3.705   1.895   0.031  0.00  0.00    +0.003 A 
ATOM     22  C   UNL     1      -2.494   1.227   0.021  0.00  0.00    +0.033 A 
ATOM     23  C   UNL     1      -1.306   1.936   0.019  0.00  0.00    +0.127 A 
ATOM     24  C   UNL     1      -1.323   3.316   0.032  0.00  0.00    +0.040 A 
BRANCH  23  25
ATOM     25  N   UNL     1      -0.014   1.214   0.009  0.00  0.00    +0.056 N 
ATOM     26  O   UNL     1       0.002  -0.004   0.002  0.00  0.00    -0.126 OA
ATOM     27  O   UNL     1       1.032   1.837   0.002  0.00  0.00    -0.126 OA
ENDBRANCH  23  25
ENDBRANCH  18  19
ENDBRANCH  11  17
BRANCH   9  28
ATOM     28  O   UNL     1      -6.232   8.747  -2.422  0.00  0.00    -0.492 OA
ATOM     29  H   UNL     1      -5.603   8.782  -3.156  0.00  0.00    +0.294 HD
ENDBRANCH   9  28
TORSDOF 4
