REMARK  Name = ZINC03059595
REMARK  7 active torsions:
REMARK  status: ('A' for Active; 'I' for Inactive)
REMARK    1  A    between atoms: N_7  and  C_29
REMARK    2  A    between atoms: C_11  and  C_12
REMARK    3  A    between atoms: C_15  and  C_18
REMARK    4  A    between atoms: N_20  and  C_21
REMARK    5  A    between atoms: C_21  and  C_22
REMARK    6  A    between atoms: C_22  and  N_23
REMARK    7  A    between atoms: C_29  and  C_30
REMARK                            x       y       z     vdW  Elec       q    Type
REMARK                         _______ _______ _______ _____ _____    ______ ____
ROOT
ATOM      1  C   UNL     1      -0.910   3.575  -0.300  0.00  0.00    +0.002 A 
ATOM      2  C   UNL     1      -0.998   2.195  -0.322  0.00  0.00    +0.004 A 
ATOM      3  C   UNL     1       0.150   1.426  -0.339  0.00  0.00    +0.048 A 
ATOM      4  C   UNL     1       1.393   2.038  -0.346  0.00  0.00    +0.150 A 
ATOM      5  C   UNL     1       1.483   3.429  -0.331  0.00  0.00    +0.079 A 
ATOM      6  C   UNL     1       0.325   4.194  -0.307  0.00  0.00    +0.027 A 
ATOM      7  N   UNL     1       2.736   4.055  -0.340  0.00  0.00    -0.257 N 
ATOM      8  C   UNL     1       3.832   3.316  -0.634  0.00  0.00    +0.287 C 
ATOM      9  O   UNL     1       4.941   3.815  -0.666  0.00  0.00    -0.266 OA
ATOM     10  C   UNL     1       3.630   1.876  -0.916  0.00  0.00    +0.191 C 
ATOM     11  C   UNL     1       4.497   1.178  -1.683  0.00  0.00    +0.059 C 
ATOM     12  O   UNL     1       2.527   1.284  -0.366  0.00  0.00    -0.449 OA
ENDROOT
BRANCH  11  13
ATOM     13  C   UNL     1       4.372  -0.283  -1.790  0.00  0.00    -0.021 A 
ATOM     14  C   UNL     1       3.462  -0.970  -0.978  0.00  0.00    +0.009 A 
ATOM     15  C   UNL     1       3.343  -2.326  -1.082  0.00  0.00    +0.013 A 
ATOM     16  C   UNL     1       4.138  -3.030  -1.992  0.00  0.00    +0.037 A 
ATOM     17  C   UNL     1       5.051  -2.346  -2.799  0.00  0.00    +0.013 A 
ATOM     18  C   UNL     1       5.168  -0.989  -2.701  0.00  0.00    +0.009 A 
BRANCH  16  19
ATOM     19  C   UNL     1       4.013  -4.498  -2.099  0.00  0.00    +0.244 C 
ATOM     20  O   UNL     1       4.704  -5.111  -2.890  0.00  0.00    -0.270 OA
ATOM     21  N   UNL     1       3.133  -5.158  -1.320  0.00  0.00    -0.313 N 
ATOM     22  H   UNL     1       2.508  -4.604  -0.605  0.00  0.00    +0.149 HD
BRANCH  21  23
ATOM     23  C   UNL     1       3.009  -6.614  -1.427  0.00  0.00    +0.086 C 
BRANCH  23  24
ATOM     24  C   UNL     1       1.948  -7.109  -0.441  0.00  0.00    -0.060 C 
BRANCH  24  25
ATOM     25  N   UNL     1       1.824  -8.569  -0.548  0.00  0.00    +0.381 N 
ATOM     26  C   UNL     1       3.148  -9.227  -0.411  0.00  0.00    -0.079 C 
ATOM     27  C   UNL     1       2.782 -10.682  -0.022  0.00  0.00    -0.020 C 
ATOM     28  C   UNL     1       1.562 -10.494   0.908  0.00  0.00    -0.020 C 
ATOM     29  C   UNL     1       0.989  -9.111   0.546  0.00  0.00    -0.079 C 
ATOM     30  H   UNL     1       1.372  -8.760  -1.533  0.00  0.00    -0.082 HD
ENDBRANCH  24  25
ENDBRANCH  23  24
ENDBRANCH  21  23
ENDBRANCH  16  19
ENDBRANCH  11  13
BRANCH   7  31
ATOM     31  C   UNL     1       2.858   5.483  -0.036  0.00  0.00    +0.149 C 
BRANCH  31  32
ATOM     32  C   UNL     1       3.107   5.663   1.439  0.00  0.00    -0.030 A 
ATOM     33  C   UNL     1       2.041   5.703   2.319  0.00  0.00    +0.006 A 
ATOM     34  C   UNL     1       2.269   5.862   3.673  0.00  0.00    +0.020 A 
ATOM     35  C   UNL     1       3.562   5.994   4.146  0.00  0.00    +0.041 A 
ATOM     36  C   UNL     1       4.628   5.960   3.264  0.00  0.00    +0.020 A 
ATOM     37  C   UNL     1       4.399   5.795   1.911  0.00  0.00    +0.006 A 
ATOM     38 CL   UNL     1       3.848   6.202   5.846  0.00  0.00    -0.084 Cl
ENDBRANCH  31  32
ENDBRANCH   7  31
TORSDOF 7
