REMARK  Name = ZINC08569976
REMARK  9 active torsions:
REMARK  status: ('A' for Active; 'I' for Inactive)
REMARK    1  A    between atoms: C_1  and  C_2
REMARK    2  A    between atoms: C_5  and  C_9
REMARK    3  A    between atoms: C_6  and  C_8
REMARK    4  A    between atoms: C_9  and  C_11
REMARK    5  A    between atoms: C_11  and  C_12
REMARK    6  A    between atoms: C_12  and  O_29
REMARK    7  A    between atoms: N_19  and  C_22
REMARK    8  A    between atoms: C_22  and  N_60
REMARK    9  A    between atoms: C_25  and  C_28
REMARK                            x       y       z     vdW  Elec       q    Type
REMARK                         _______ _______ _______ _____ _____    ______ ____
ROOT
ATOM      1  C   UNL     1      -1.382   6.498   4.182  0.00  0.00    +0.175 C 
ATOM      2  C   UNL     1      -2.577   5.649   3.815  0.00  0.00    +0.014 A 
ATOM      3  C   UNL     1      -3.876   5.956   3.479  0.00  0.00    +0.009 A 
ATOM      4  C   UNL     1      -4.771   4.943   3.183  0.00  0.00    +0.000 A 
ATOM      5  C   UNL     1      -4.356   3.624   3.227  0.00  0.00    +0.002 A 
ATOM      6  C   UNL     1      -3.054   3.313   3.563  0.00  0.00    +0.024 A 
ATOM      7  C   UNL     1      -2.147   4.329   3.862  0.00  0.00    +0.041 A 
ATOM      8  N   UNL     1      -0.801   4.272   4.223  0.00  0.00    -0.285 N 
ATOM      9  C   UNL     1      -0.279   5.492   4.433  0.00  0.00    +0.255 C 
ATOM     10  O   UNL     1       0.863   5.740   4.761  0.00  0.00    -0.272 OA
ENDROOT
BRANCH   1  11
ATOM     11  O   UNL     1      -1.649   7.252   5.366  0.00  0.00    -0.374 OA
ATOM     12  H   UNL     1      -0.915   7.815   5.648  0.00  0.00    +0.211 HD
ENDBRANCH   1  11
BRANCH   1  13
ATOM     13  C   UNL     1      -1.010   7.430   3.027  0.00  0.00    +0.129 C 
BRANCH  13  14
ATOM     14  C   UNL     1       0.254   8.175   3.369  0.00  0.00    +0.167 C 
ATOM     15  O   UNL     1       0.803   7.981   4.433  0.00  0.00    -0.292 OA
BRANCH  14  20
ATOM     16  C   UNL     1       2.470  11.943  -0.364  0.00  0.00    +0.044 C 
ATOM     17  C   UNL     1       1.889  10.955   0.614  0.00  0.00    -0.050 A 
ATOM     18  C   UNL     1       0.801  10.181   0.248  0.00  0.00    +0.004 A 
ATOM     19  C   UNL     1       0.264   9.276   1.138  0.00  0.00    +0.012 A 
ATOM     20  C   UNL     1       0.821   9.140   2.413  0.00  0.00    +0.020 A 
ATOM     21  C   UNL     1       1.917   9.929   2.778  0.00  0.00    -0.040 A 
ATOM     22  C   UNL     1       2.446  10.826   1.875  0.00  0.00    +0.007 A 
ATOM     23  C   UNL     1       2.521   9.794   4.152  0.00  0.00    +0.044 C 
ENDBRANCH  14  20
ENDBRANCH  13  14
ENDBRANCH   1  13
BRANCH   8  24
ATOM     24  C   UNL     1      -0.045   3.025   4.364  0.00  0.00    +0.038 C 
BRANCH  24  31
ATOM     25  C   UNL     1       0.812   1.231   2.982  0.00  0.00    -0.076 C 
ATOM     26  C   UNL     1       1.581   0.925   1.694  0.00  0.00    -0.015 C 
ATOM     27  C   UNL     1       0.764   1.402   0.491  0.00  0.00    -0.018 C 
ATOM     28  C   UNL     1       0.481   2.900   0.636  0.00  0.00    -0.015 C 
ATOM     29  C   UNL     1      -0.254   3.150   1.955  0.00  0.00    -0.076 C 
ATOM     30  C   UNL     1       1.554   1.154  -0.795  0.00  0.00    +0.007 C 
ATOM     31  N   UNL     1       0.595   2.691   3.075  0.00  0.00    +0.390 N 
ATOM     32  H   UNL     1       1.503   3.167   3.020  0.00  0.00    -0.080 HD
ENDBRANCH  24  31
ENDBRANCH   8  24
TORSDOF 6
