REMARK  Name = ZINC09462732
REMARK  6 active torsions:
REMARK  status: ('A' for Active; 'I' for Inactive)
REMARK    1  A    between atoms: C_1  and  C_2
REMARK    2  A    between atoms: C_2  and  O_3
REMARK    3  A    between atoms: O_3  and  C_4
REMARK    4  A    between atoms: C_4  and  C_6
REMARK    5  A    between atoms: N_8  and  N_24
REMARK    6  A    between atoms: N_14  and  C_17
REMARK                            x       y       z     vdW  Elec       q    Type
REMARK                         _______ _______ _______ _____ _____    ______ ____
ROOT
ATOM      1  C   UNL     1      -1.873   2.870   0.732  0.00  0.00    +0.147 C 
ATOM      2  N   UNL     1      -1.809   2.870  -0.559  0.00  0.00    -0.157 NA
ATOM      3  N   UNL     1      -0.755   2.112  -1.076  0.00  0.00    -0.093 N 
ATOM      4  C   UNL     1      -0.018   1.527   0.040  0.00  0.00    +0.169 C 
ATOM      5  C   UNL     1      -0.749   2.021   1.291  0.00  0.00    +0.104 C 
ATOM      6  C   UNL     1       0.002  -0.003  -0.028  0.00  0.00    +0.136 C 
ATOM      7  C   UNL     1       1.483  -0.327  -0.058  0.00  0.00    +0.229 C 
ATOM      8  O   UNL     1       1.958  -1.441  -0.112  0.00  0.00    -0.275 OA
ATOM      9  N   UNL     1       2.183   0.816  -0.015  0.00  0.00    -0.208 N 
ATOM     10  C   UNL     1       1.430   1.926   0.043  0.00  0.00    +0.254 C 
ATOM     11  O   UNL     1       1.849   3.062   0.089  0.00  0.00    -0.272 OA
ENDROOT
BRANCH   9  12
ATOM     12  C   UNL     1       3.585   0.849  -0.027  0.00  0.00    +0.044 A 
ATOM     13  C   UNL     1       4.258   1.373  -1.122  0.00  0.00    +0.025 A 
ATOM     14  C   UNL     1       5.639   1.409  -1.130  0.00  0.00    +0.016 A 
ATOM     15  C   UNL     1       6.351   0.914  -0.053  0.00  0.00    +0.013 A 
ATOM     16  C   UNL     1       5.683   0.385   1.037  0.00  0.00    +0.016 A 
ATOM     17  C   UNL     1       4.302   0.352   1.052  0.00  0.00    +0.025 A 
ATOM     18  I   UNL     1       8.445   0.963  -0.072  0.00  0.00    -0.044 I 
ENDBRANCH   9  12
BRANCH   1  19
ATOM     19  C   UNL     1      -2.880   3.582   1.534  0.00  0.00    +0.355 C 
ATOM     20  O   UNL     1      -2.850   3.514   2.747  0.00  0.00    -0.244 OA
BRANCH  19  21
ATOM     21  O   UNL     1      -3.837   4.309   0.923  0.00  0.00    -0.461 OA
BRANCH  21  23
ATOM     22  C   UNL     1      -5.797   5.754   0.910  0.00  0.00    +0.048 C 
ATOM     23  C   UNL     1      -4.797   4.985   1.777  0.00  0.00    +0.229 C 
ENDBRANCH  21  23
ENDBRANCH  19  21
ENDBRANCH   1  19
BRANCH   3  24
ATOM     24  N   UNL     1      -0.480   1.957  -2.326  0.00  0.00    +0.067 NA
ATOM     25  O   UNL     1      -1.169   2.497  -3.173  0.00  0.00    -0.124 OA
ENDBRANCH   3  24
TORSDOF 5
