REMARK  Name = ZINC28059553
REMARK  8 active torsions:
REMARK  status: ('A' for Active; 'I' for Inactive)
REMARK    1  A    between atoms: C_1  and  O_2
REMARK    2  A    between atoms: O_2  and  C_3
REMARK    3  A    between atoms: C_6  and  C_11
REMARK    4  A    between atoms: C_8  and  O_9
REMARK    5  A    between atoms: O_9  and  C_10
REMARK    6  A    between atoms: C_22  and  C_24
REMARK    7  A    between atoms: C_27  and  S_30
REMARK    8  A    between atoms: S_30  and  C_31
REMARK                            x       y       z     vdW  Elec       q    Type
REMARK                         _______ _______ _______ _____ _____    ______ ____
ROOT
ATOM      1  C   UNL     1       0.104   1.585  -0.208  0.00  0.00    +0.174 C 
ATOM      2  C   UNL     1       1.517   2.095  -0.061  0.00  0.00    +0.025 C 
ATOM      3  C   UNL     1       2.157   2.722  -1.051  0.00  0.00    +0.050 C 
ATOM      4  C   UNL     1       3.541   3.194  -0.808  0.00  0.00    +0.038 A 
ATOM      5  C   UNL     1       4.384   3.541  -1.856  0.00  0.00    +0.013 A 
ATOM      6  C   UNL     1       5.665   3.982  -1.582  0.00  0.00    +0.001 A 
ATOM      7  C   UNL     1       6.106   4.077  -0.274  0.00  0.00    +0.004 A 
ATOM      8  C   UNL     1       5.273   3.732   0.776  0.00  0.00    +0.046 A 
ATOM      9  C   UNL     1       3.990   3.288   0.516  0.00  0.00    +0.131 A 
ATOM     10  O   UNL     1       3.142   2.938   1.516  0.00  0.00    -0.479 OA
ATOM     11  C   UNL     1       2.231   1.871   1.252  0.00  0.00    +0.234 C 
ATOM     12  N   UNL     1       1.563   2.953  -2.297  0.00  0.00    -0.282 N 
ATOM     13  C   UNL     1       0.193   2.767  -2.392  0.00  0.00    +0.240 A 
ATOM     14  N   UNL     1      -0.503   2.131  -1.413  0.00  0.00    -0.201 N 
ATOM     15  N   UNL     1      -1.831   2.140  -1.838  0.00  0.00    -0.042 NA
ATOM     16  N   UNL     1      -1.848   2.740  -2.984  0.00  0.00    -0.021 NA
ATOM     17  N   UNL     1      -0.658   3.110  -3.315  0.00  0.00    -0.092 NA
ATOM     18  H   UNL     1       2.180   3.269  -3.151  0.00  0.00    +0.155 HD
ENDROOT
BRANCH   1  22
ATOM     19  C   UNL     1       0.160  -2.683  -0.462  0.00  0.00    +0.162 A 
ATOM     20  C   UNL     1       0.833  -1.922  -1.403  0.00  0.00    +0.050 A 
ATOM     21  C   UNL     1       0.813  -0.542  -1.319  0.00  0.00    +0.010 A 
ATOM     22  C   UNL     1       0.123   0.081  -0.296  0.00  0.00    -0.015 A 
ATOM     23  C   UNL     1      -0.547  -0.673   0.650  0.00  0.00    +0.055 A 
ATOM     24  C   UNL     1      -0.536  -2.056   0.568  0.00  0.00    +0.162 A 
BRANCH  19  26
ATOM     25  C   UNL     1       0.911  -4.616  -1.627  0.00  0.00    +0.277 C 
ATOM     26  O   UNL     1       0.178  -4.041  -0.544  0.00  0.00    -0.491 OA
ENDBRANCH  19  26
BRANCH  24  27
ATOM     27  O   UNL     1      -1.199  -2.800   1.494  0.00  0.00    -0.491 OA
ATOM     28  C   UNL     1      -1.891  -2.088   2.522  0.00  0.00    +0.277 C 
ENDBRANCH  24  27
ENDBRANCH   1  22
BRANCH  11  29
ATOM     29  C   UNL     1       2.992   0.572   1.190  0.00  0.00    -0.003 A 
ATOM     30  C   UNL     1       4.151   0.486   0.440  0.00  0.00    +0.008 A 
ATOM     31  C   UNL     1       4.853  -0.701   0.385  0.00  0.00    +0.015 A 
ATOM     32  C   UNL     1       4.388  -1.815   1.075  0.00  0.00    +0.008 A 
ATOM     33  C   UNL     1       3.220  -1.726   1.823  0.00  0.00    +0.015 A 
ATOM     34  C   UNL     1       2.526  -0.534   1.878  0.00  0.00    +0.008 A 
BRANCH  32  35
ATOM     35  S   UNL     1       5.277  -3.334   1.001  0.00  0.00    -0.129 S 
ATOM     36  C   UNL     1       6.693  -2.963  -0.070  0.00  0.00    +0.090 C 
ENDBRANCH  32  35
ENDBRANCH  11  29
TORSDOF 5
