REMARK  Name = ZINC45606328
REMARK  8 active torsions:
REMARK  status: ('A' for Active; 'I' for Inactive)
REMARK    1  A    between atoms: C_1  and  C_2
REMARK    2  A    between atoms: C_2  and  O_3
REMARK    3  A    between atoms: O_3  and  C_4
REMARK    4  A    between atoms: C_11  and  C_18
REMARK    5  A    between atoms: C_13  and  O_14
REMARK    6  A    between atoms: C_18  and  N_19
REMARK    7  A    between atoms: N_22  and  C_25
REMARK    8  A    between atoms: C_25  and  C_26
REMARK                            x       y       z     vdW  Elec       q    Type
REMARK                         _______ _______ _______ _____ _____    ______ ____
ROOT
ATOM      1  C   UNL     1       0.979  -1.828  -1.233  0.00  0.00    +0.405 C 
ATOM      2  O   UNL     1       0.915  -2.572  -0.268  0.00  0.00    -0.226 OA
ATOM      3  N   UNL     1       1.385  -2.296  -2.405  0.00  0.00    -0.251 N 
ATOM      4  C   UNL     1       1.593  -3.629  -2.570  0.00  0.00    +0.040 A 
ATOM      5  C   UNL     1       2.338  -4.090  -3.671  0.00  0.00    +0.024 A 
ATOM      6  C   UNL     1       2.552  -5.420  -3.846  0.00  0.00    +0.014 A 
ATOM      7  C   UNL     1       2.028  -6.343  -2.924  0.00  0.00    +0.022 A 
ATOM      8  C   UNL     1       2.240  -7.728  -3.088  0.00  0.00    -0.016 A 
ATOM      9  C   UNL     1       1.705  -8.593  -2.154  0.00  0.00    +0.093 A 
ATOM     10  C   UNL     1       0.978  -8.092  -1.084  0.00  0.00    +0.285 A 
ATOM     11  O   UNL     1       0.779  -6.778  -0.932  0.00  0.00    -0.425 OA
ATOM     12  C   UNL     1       1.279  -5.889  -1.815  0.00  0.00    +0.141 A 
ATOM     13  C   UNL     1       1.071  -4.533  -1.642  0.00  0.00    +0.070 A 
ATOM     14  H   UNL     1       1.535  -1.686  -3.145  0.00  0.00    +0.158 HD
ENDROOT
BRANCH  10  15
ATOM     15  O   UNL     1       0.462  -8.947  -0.180  0.00  0.00    -0.480 OA
ATOM     16  H   UNL     1      -0.030  -8.516   0.532  0.00  0.00    +0.295 HD
ENDBRANCH  10  15
BRANCH   1  17
ATOM     17  O   UNL     1       0.634  -0.527  -1.107  0.00  0.00    -0.450 OA
BRANCH  17  19
ATOM     18  C   UNL     1      -0.140   1.398   0.132  0.00  0.00    +0.048 C 
ATOM     19  C   UNL     1       0.205  -0.091   0.185  0.00  0.00    +0.230 C 
ENDBRANCH  17  19
ENDBRANCH   1  17
BRANCH   8  20
ATOM     20  C   UNL     1       3.033  -8.252  -4.258  0.00  0.00    +0.120 C 
BRANCH  20  21
ATOM     21  N   UNL     1       4.432  -8.446  -3.853  0.00  0.00    -0.302 NA
ATOM     22  C   UNL     1       4.547  -9.516  -2.852  0.00  0.00    +0.066 C 
ATOM     23  C   UNL     1       6.008  -9.646  -2.414  0.00  0.00    -0.063 C 
ATOM     24  N   UNL     1       6.844  -9.953  -3.582  0.00  0.00    +0.386 N 
ATOM     25  C   UNL     1       6.738  -8.864  -4.562  0.00  0.00    -0.063 C 
ATOM     26  C   UNL     1       5.283  -8.727  -5.018  0.00  0.00    +0.066 C 
ATOM     27  H   UNL     1       6.531 -10.815  -4.002  0.00  0.00    -0.081 HD
BRANCH  24  28
ATOM     28  C   UNL     1       8.243 -10.095  -3.159  0.00  0.00    -0.003 C 
BRANCH  28  29
ATOM     29  C   UNL     1       9.082 -10.530  -4.333  0.00  0.00    +0.089 A 
ATOM     30  C   UNL     1       9.707  -9.712  -5.199  0.00  0.00    +0.042 A 
ATOM     31  C   UNL     1      10.372 -10.538  -6.134  0.00  0.00    +0.041 A 
ATOM     32  C   UNL     1      10.113 -11.811  -5.785  0.00  0.00    +0.195 A 
ATOM     33  O   UNL     1       9.335 -11.800  -4.689  0.00  0.00    -0.470 OA
ENDBRANCH  28  29
ENDBRANCH  24  28
ENDBRANCH  20  21
ENDBRANCH   8  20
TORSDOF 7
