REMARK  Name = ZINC12529761
REMARK  7 active torsions:
REMARK  status: ('A' for Active; 'I' for Inactive)
REMARK    1  A    between atoms: C_1  and  C_2
REMARK    2  A    between atoms: C_5  and  C_8
REMARK    3  A    between atoms: C_10  and  C_13
REMARK    4  A    between atoms: C_16  and  N_20
REMARK    5  A    between atoms: C_19  and  N_56
REMARK    6  A    between atoms: N_20  and  S_21
REMARK    7  A    between atoms: S_21  and  C_24
REMARK                            x       y       z     vdW  Elec       q    Type
REMARK                         _______ _______ _______ _____ _____    ______ ____
ROOT
ATOM      1  C   UNL     1       1.758   3.132   0.001  0.00  0.00    +0.023 C 
ATOM      2  C   UNL     1       2.319   3.502  -1.388  0.00  0.00    +0.012 C 
ATOM      3  C   UNL     1       3.554   4.380  -1.101  0.00  0.00    +0.059 C 
ATOM      4  C   UNL     1       3.635   4.467   0.438  0.00  0.00    -0.058 C 
ATOM      5  C   UNL     1       2.470   3.430   2.311  0.00  0.00    -0.095 C 
ATOM      6  N   UNL     1       2.917   3.277   0.889  0.00  0.00    +0.387 N 
ATOM      7  H   UNL     1       3.523   2.452   0.813  0.00  0.00    -0.081 HD
ENDROOT
BRANCH   1  10
ATOM      8  C   UNL     1       0.002  -0.004   0.002  0.00  0.00    +0.202 A 
ATOM      9  N   UNL     1      -0.016   1.348   0.009  0.00  0.00    -0.193 NA
ATOM     10  C   UNL     1       1.240   1.717  -0.001  0.00  0.00    +0.214 A 
ATOM     11  O   UNL     1       1.978   0.602  -0.014  0.00  0.00    -0.339 OA
ATOM     12  N   UNL     1       1.256  -0.373  -0.012  0.00  0.00    -0.056 NA
BRANCH   8  17
ATOM     13  C   UNL     1      -4.586  -3.486   0.030  0.00  0.00    +0.044 C 
ATOM     14  C   UNL     1      -3.385  -2.575   0.022  0.00  0.00    -0.050 A 
ATOM     15  C   UNL     1      -2.112  -3.114   0.006  0.00  0.00    +0.004 A 
ATOM     16  C   UNL     1      -1.009  -2.284  -0.001  0.00  0.00    +0.012 A 
ATOM     17  C   UNL     1      -1.180  -0.901   0.009  0.00  0.00    +0.022 A 
ATOM     18  C   UNL     1      -2.466  -0.364   0.029  0.00  0.00    +0.012 A 
ATOM     19  C   UNL     1      -3.562  -1.203   0.032  0.00  0.00    +0.004 A 
ENDBRANCH   8  17
ENDBRANCH   1  10
BRANCH   3  20
ATOM     20  N   UNL     1       4.762   3.752  -1.642  0.00  0.00    -0.189 NA
ATOM     21  H   UNL     1       4.852   2.786  -1.634  0.00  0.00    +0.148 HD
BRANCH  20  22
ATOM     22  S   UNL     1       5.975   4.691  -2.267  0.00  0.00    +0.059 S 
ATOM     23  O   UNL     1       7.005   3.803  -2.679  0.00  0.00    -0.153 OA
ATOM     24  O   UNL     1       5.359   5.610  -3.158  0.00  0.00    -0.153 OA
BRANCH  22  25
ATOM     25  C   UNL     1       6.634   5.643  -0.938  0.00  0.00    +0.106 A 
ATOM     26  C   UNL     1       6.092   6.896  -0.658  0.00  0.00    +0.029 A 
ATOM     27  C   UNL     1       6.574   7.655   0.364  0.00  0.00    +0.010 A 
ATOM     28  C   UNL     1       7.641   7.175   1.143  0.00  0.00    -0.018 A 
ATOM     29  C   UNL     1       8.169   7.932   2.203  0.00  0.00    +0.008 A 
ATOM     30  C   UNL     1       9.202   7.435   2.937  0.00  0.00    +0.001 A 
ATOM     31  C   UNL     1       9.747   6.184   2.653  0.00  0.00    +0.001 A 
ATOM     32  C   UNL     1       9.261   5.423   1.635  0.00  0.00    +0.008 A 
ATOM     33  C   UNL     1       8.195   5.903   0.855  0.00  0.00    -0.016 A 
ATOM     34  C   UNL     1       7.667   5.146  -0.205  0.00  0.00    +0.037 A 
ENDBRANCH  22  25
ENDBRANCH  20  22
ENDBRANCH   3  20
TORSDOF 5
