REMARK  Name = ZINC39672860
REMARK  6 active torsions:
REMARK  status: ('A' for Active; 'I' for Inactive)
REMARK    1  A    between atoms: C_1  and  C_2
REMARK    2  A    between atoms: C_2  and  C_3
REMARK    3  A    between atoms: C_7  and  C_16
REMARK    4  A    between atoms: N_18  and  C_19
REMARK    5  A    between atoms: C_19  and  C_20
REMARK    6  A    between atoms: C_20  and  N_26
REMARK                            x       y       z     vdW  Elec       q    Type
REMARK                         _______ _______ _______ _____ _____    ______ ____
ROOT
ATOM      1  C   UNL     1      -1.034  -5.535   0.327  0.00  0.00    +0.218 C 
ATOM      2  O   UNL     1      -1.905  -6.323   0.020  0.00  0.00    -0.275 OA
ATOM      3  N   UNL     1       0.261  -5.859   0.147  0.00  0.00    -0.313 N 
ATOM      4  H   UNL     1       0.957  -5.230   0.392  0.00  0.00    +0.149 HD
ENDROOT
BRANCH   1   9
ATOM      5  C   UNL     1      -4.165  -1.921   1.466  0.00  0.00    +0.215 C 
ATOM      6  O   UNL     1      -4.642  -1.490   2.494  0.00  0.00    -0.276 OA
ATOM      7  N   UNL     1      -3.424  -3.047   1.487  0.00  0.00    -0.300 N 
ATOM      8  C   UNL     1      -2.760  -3.718   0.345  0.00  0.00    +0.121 C 
ATOM      9  C   UNL     1      -1.402  -4.194   0.908  0.00  0.00    +0.100 C 
ATOM     10  C   UNL     1      -1.625  -4.309   2.425  0.00  0.00    -0.004 C 
ATOM     11  C   UNL     1      -3.084  -3.889   2.658  0.00  0.00    +0.115 C 
ATOM     12  C   UNL     1      -0.686  -3.366   3.171  0.00  0.00    -0.010 C 
ATOM     13  C   UNL     1      -0.887  -3.540   4.679  0.00  0.00    -0.082 C 
ATOM     14  N   UNL     1      -0.613  -4.932   5.053  0.00  0.00    +0.379 N 
ATOM     15  C   UNL     1      -1.580  -5.825   4.404  0.00  0.00    -0.082 C 
ATOM     16  C   UNL     1      -1.409  -5.748   2.884  0.00  0.00    -0.010 C 
ATOM     17  H   UNL     1       0.320  -5.180   4.761  0.00  0.00    -0.086 HD
ATOM     18  H   UNL     1      -0.686  -5.030   6.055  0.00  0.00    -0.086 HD
BRANCH   5  20
ATOM     19  C   UNL     1      -5.267   0.038   0.418  0.00  0.00    +0.013 C 
ATOM     20  C   UNL     1      -4.402  -1.198   0.165  0.00  0.00    +0.092 C 
ENDBRANCH   5  20
ENDBRANCH   1   9
BRANCH   3  21
ATOM     21  C   UNL     1       0.619  -7.163  -0.418  0.00  0.00    +0.126 C 
BRANCH  21  22
ATOM     22  C   UNL     1       2.140  -7.326  -0.401  0.00  0.00    +0.038 C 
ATOM     23  C   UNL     1       2.521  -8.628  -1.110  0.00  0.00    +0.024 C 
ATOM     24  C   UNL     1       1.873  -9.810  -0.387  0.00  0.00    +0.002 C 
ATOM     25  C   UNL     1       2.365  -9.855   1.061  0.00  0.00    +0.000 C 
ATOM     26  C   UNL     1       1.984  -8.554   1.769  0.00  0.00    +0.002 C 
ATOM     27  C   UNL     1       2.632  -7.371   1.047  0.00  0.00    +0.024 C 
BRANCH  22  28
ATOM     28  N   UNL     1       2.762  -6.191  -1.095  0.00  0.00    -0.291 NA
ATOM     29  C   UNL     1       2.269  -6.082  -2.476  0.00  0.00    +0.113 C 
ATOM     30  C   UNL     1       2.896  -4.855  -3.141  0.00  0.00    +0.175 C 
ATOM     31  O   UNL     1       4.321  -4.962  -3.083  0.00  0.00    -0.377 OA
ATOM     32  C   UNL     1       4.836  -5.069  -1.752  0.00  0.00    +0.175 C 
ATOM     33  C   UNL     1       4.228  -6.299  -1.073  0.00  0.00    +0.113 C 
ENDBRANCH  22  28
ENDBRANCH  21  22
ENDBRANCH   3  21
TORSDOF 5
