REMARK  Name = ZINC17058447
REMARK  12 active torsions:
REMARK  status: ('A' for Active; 'I' for Inactive)
REMARK    1  A    between atoms: C_1  and  C_2
REMARK    2  A    between atoms: C_13  and  C_14
REMARK    3  A    between atoms: C_13  and  O_15
REMARK    4  A    between atoms: N_21  and  O_22
REMARK    5  A    between atoms: O_22  and  C_23
REMARK    6  A    between atoms: C_23  and  C_24
REMARK    7  A    between atoms: N_26  and  C_27
REMARK    8  A    between atoms: C_27  and  C_29
REMARK    9  A    between atoms: C_27  and  C_35
REMARK   10  A    between atoms: C_35  and  O_37
REMARK   11  A    between atoms: O_37  and  C_38
REMARK   12  A    between atoms: C_41  and  C_42
REMARK                            x       y       z     vdW  Elec       q    Type
REMARK                         _______ _______ _______ _____ _____    ______ ____
ROOT
ATOM      1  C   UNL     1      11.509   9.425  -7.867  0.00  0.00    +0.014 C 
ATOM      2  C   UNL     1      10.788   9.714  -6.549  0.00  0.00    -0.000 C 
ATOM      3  C   UNL     1      10.366   8.411  -5.901  0.00  0.00    +0.010 C 
ATOM      4  C   UNL     1       9.527   7.636  -6.931  0.00  0.00    +0.005 C 
ATOM      5  C   UNL     1       8.320   8.456  -7.388  0.00  0.00    +0.006 C 
ATOM      6  C   UNL     1       8.768   9.821  -7.918  0.00  0.00    -0.003 C 
ATOM      7  C   UNL     1       9.500  10.537  -6.826  0.00  0.00    +0.001 C 
ATOM      8  C   UNL     1      10.082  11.908  -7.187  0.00  0.00    +0.007 C 
ATOM      9  C   UNL     1      11.224  12.085  -6.149  0.00  0.00    +0.035 C 
ATOM     10  C   UNL     1      11.633  10.659  -5.702  0.00  0.00    +0.069 C 
ATOM     11  C   UNL     1      11.323  10.460  -4.217  0.00  0.00    +0.042 C 
ATOM     12  C   UNL     1       7.528  10.627  -8.313  0.00  0.00    +0.008 C 
ATOM     13  C   UNL     1       6.784  11.044  -7.057  0.00  0.00    +0.032 C 
ATOM     14  C   UNL     1       6.584   9.865  -6.150  0.00  0.00    -0.058 C 
ATOM     15  C   UNL     1       5.729   9.995  -5.114  0.00  0.00    +0.031 C 
ATOM     16  C   UNL     1       5.671   8.815  -4.200  0.00  0.00    +0.102 C 
ATOM     17  N   UNL     1       4.552   8.366  -3.701  0.00  0.00    -0.085 NA
ATOM     18  C   UNL     1       6.995   8.192  -3.896  0.00  0.00    +0.027 C 
ATOM     19  C   UNL     1       7.824   8.081  -4.957  0.00  0.00    -0.014 C 
ATOM     20  C   UNL     1       7.310   8.572  -6.281  0.00  0.00    +0.011 C 
ATOM     21  C   UNL     1       6.225   7.561  -6.660  0.00  0.00    +0.020 C 
ENDROOT
BRANCH  10  22
ATOM     22  O   UNL     1      13.023  10.441  -5.952  0.00  0.00    -0.388 OA
ATOM     23  H   UNL     1      13.609  11.015  -5.441  0.00  0.00    +0.210 HD
ENDBRANCH  10  22
BRANCH  17  24
ATOM     24  O   UNL     1       4.561   7.242  -2.840  0.00  0.00    -0.384 OA
BRANCH  24  25
ATOM     25  C   UNL     1       3.267   6.861  -2.368  0.00  0.00    +0.358 C 
BRANCH  25  26
ATOM     26  C   UNL     1       3.395   5.662  -1.465  0.00  0.00    +0.254 C 
ATOM     27  O   UNL     1       4.487   5.181  -1.246  0.00  0.00    -0.272 OA
ATOM     28  N   UNL     1       2.296   5.123  -0.900  0.00  0.00    -0.296 N 
ATOM     29  H   UNL     1       1.423   5.508  -1.075  0.00  0.00    +0.150 HD
BRANCH  28  30
ATOM     30  C   UNL     1       2.420   3.957  -0.022  0.00  0.00    +0.213 C 
BRANCH  30  31
ATOM     31  C   UNL     1       1.122   3.191  -0.017  0.00  0.00    -0.017 A 
ATOM     32  C   UNL     1       1.135   1.809  -0.027  0.00  0.00    +0.006 A 
ATOM     33  C   UNL     1      -0.056   1.107  -0.022  0.00  0.00    +0.000 A 
ATOM     34  C   UNL     1      -1.259   1.787  -0.013  0.00  0.00    +0.000 A 
ATOM     35  C   UNL     1      -1.272   3.169   0.003  0.00  0.00    +0.000 A 
ATOM     36  C   UNL     1      -0.081   3.871  -0.001  0.00  0.00    +0.006 A 
ENDBRANCH  30  31
BRANCH  30  37
ATOM     37  C   UNL     1       2.739   4.414   1.378  0.00  0.00    +0.332 C 
ATOM     38  O   UNL     1       2.851   5.593   1.618  0.00  0.00    -0.248 OA
BRANCH  37  39
ATOM     39  O   UNL     1       2.899   3.512   2.359  0.00  0.00    -0.466 OA
ATOM     40  C   UNL     1       3.205   4.024   3.683  0.00  0.00    +0.280 C 
ENDBRANCH  37  39
ENDBRANCH  30  37
ENDBRANCH  28  30
ENDBRANCH  25  26
ENDBRANCH  24  25
ENDBRANCH  17  24
TORSDOF 8
