REMARK  Name = ZINC06197966
REMARK  6 active torsions:
REMARK  status: ('A' for Active; 'I' for Inactive)
REMARK    1  A    between atoms: C_1  and  C_2
REMARK    2  A    between atoms: C_2  and  C_3
REMARK    3  A    between atoms: C_10  and  C_15
REMARK    4  A    between atoms: C_15  and  C_17
REMARK    5  A    between atoms: C_15  and  N_64
REMARK    6  A    between atoms: N_21  and  C_22
REMARK                            x       y       z     vdW  Elec       q    Type
REMARK                         _______ _______ _______ _____ _____    ______ ____
ROOT
ATOM      1  C   UNL     1      -0.056   0.999   2.425  0.00  0.00    +0.039 C 
ENDROOT
BRANCH   1   9
ATOM      2  C   UNL     1       6.070   0.159   2.649  0.00  0.00    -0.047 A 
ATOM      3  C   UNL     1       6.415   1.500   2.539  0.00  0.00    +0.005 A 
ATOM      4  C   UNL     1       5.442   2.470   2.428  0.00  0.00    +0.026 A 
ATOM      5  C   UNL     1       4.100   2.104   2.427  0.00  0.00    +0.049 A 
ATOM      6  C   UNL     1       3.755   0.744   2.539  0.00  0.00    -0.001 A 
ATOM      7  C   UNL     1       4.759  -0.223   2.650  0.00  0.00    +0.013 A 
ATOM      8  C   UNL     1       2.339   0.370   2.544  0.00  0.00    +0.017 A 
ATOM      9  C   UNL     1       1.409   1.350   2.429  0.00  0.00    +0.011 A 
ATOM     10  C   UNL     1       1.809   2.699   2.320  0.00  0.00    +0.251 A 
ATOM     11  O   UNL     1       0.957   3.566   2.223  0.00  0.00    -0.268 OA
ATOM     12  N   UNL     1       3.106   3.053   2.319  0.00  0.00    -0.322 N 
ATOM     13  H   UNL     1       3.354   4.019   2.239  0.00  0.00    +0.169 HD
BRANCH   2  15
ATOM     14  C   UNL     1       7.554  -1.363   1.372  0.00  0.00    +0.009 C 
ATOM     15  C   UNL     1       7.152  -0.883   2.768  0.00  0.00    +0.032 C 
ENDBRANCH   2  15
ENDBRANCH   1   9
BRANCH   1  25
ATOM     16  C   UNL     1      -2.119   1.210   1.174  0.00  0.00    -0.072 C 
ATOM     17  C   UNL     1      -2.796   2.099   0.130  0.00  0.00    +0.017 C 
ATOM     18  C   UNL     1      -2.027   2.048  -1.166  0.00  0.00    -0.048 A 
ATOM     19  C   UNL     1      -2.651   2.489  -2.323  0.00  0.00    +0.004 A 
ATOM     20  C   UNL     1      -1.980   2.464  -3.530  0.00  0.00    +0.000 A 
ATOM     21  C   UNL     1      -0.680   1.997  -3.584  0.00  0.00    +0.000 A 
ATOM     22  C   UNL     1      -0.059   1.556  -2.433  0.00  0.00    +0.002 A 
ATOM     23  C   UNL     1      -0.732   1.580  -1.220  0.00  0.00    -0.061 A 
ATOM     24  C   UNL     1      -0.013   1.086   0.008  0.00  0.00    -0.041 C 
ATOM     25  N   UNL     1      -0.690   1.578   1.220  0.00  0.00    +0.392 N 
ATOM     26  H   UNL     1      -0.608   2.601   1.258  0.00  0.00    -0.080 HD
ENDBRANCH   1  25
BRANCH   1  27
ATOM     27  C   UNL     1      -0.715   1.576   3.651  0.00  0.00    +0.143 A 
ATOM     28  N   UNL     1      -1.016   2.835   3.858  0.00  0.00    -0.115 NA
ATOM     29  N   UNL     1      -1.567   2.926   5.019  0.00  0.00    -0.023 NA
ATOM     30  N   UNL     1      -1.618   1.760   5.562  0.00  0.00    -0.044 NA
ATOM     31  N   UNL     1      -1.102   0.901   4.749  0.00  0.00    -0.227 N 
BRANCH  31  32
ATOM     32  C   UNL     1      -0.964  -0.540   4.978  0.00  0.00    +0.111 C 
ATOM     33  C   UNL     1      -2.347  -1.167   5.249  0.00  0.00    +0.027 C 
ATOM     34  C   UNL     1      -2.070  -2.245   6.326  0.00  0.00    +0.002 C 
ATOM     35  C   UNL     1      -1.007  -1.567   7.225  0.00  0.00    +0.002 C 
ATOM     36  C   UNL     1      -0.112  -0.794   6.234  0.00  0.00    +0.027 C 
ENDBRANCH  31  32
ENDBRANCH   1  27
TORSDOF 5
