REMARK  Name = ZINC02923685
REMARK  9 active torsions:
REMARK  status: ('A' for Active; 'I' for Inactive)
REMARK    1  A    between atoms: C_1  and  C_2
REMARK    2  A    between atoms: C_6  and  N_9
REMARK    3  A    between atoms: C_7  and  C_8
REMARK    4  A    between atoms: N_9  and  C_10
REMARK    5  A    between atoms: C_10  and  N_12
REMARK    6  A    between atoms: N_12  and  N_13
REMARK    7  A    between atoms: N_21  and  C_24
REMARK    8  A    between atoms: C_24  and  N_25
REMARK    9  A    between atoms: N_28  and  C_31
REMARK                            x       y       z     vdW  Elec       q    Type
REMARK                         _______ _______ _______ _____ _____    ______ ____
ROOT
ATOM      1  N   UNL     1      -0.124  -4.123   4.763  0.00  0.00    -0.175 NA
ATOM      2  C   UNL     1      -0.209  -4.781   5.895  0.00  0.00    +0.153 C 
ATOM      3  C   UNL     1      -0.232  -4.219   7.266  0.00  0.00    +0.028 A 
ATOM      4  C   UNL     1      -0.176  -2.922   7.764  0.00  0.00    +0.012 A 
ATOM      5  C   UNL     1      -0.219  -2.711   9.128  0.00  0.00    +0.001 A 
ATOM      6  C   UNL     1      -0.318  -3.787   9.994  0.00  0.00    +0.002 A 
ATOM      7  C   UNL     1      -0.374  -5.077   9.509  0.00  0.00    +0.024 A 
ATOM      8  C   UNL     1      -0.332  -5.310   8.139  0.00  0.00    +0.047 A 
ATOM      9  N   UNL     1      -0.370  -6.487   7.400  0.00  0.00    -0.252 N 
ATOM     10  C   UNL     1      -0.308  -6.241   6.080  0.00  0.00    +0.272 C 
ATOM     11  O   UNL     1      -0.328  -7.076   5.194  0.00  0.00    -0.268 OA
ENDROOT
BRANCH   1  12
ATOM     12  N   UNL     1      -0.121  -4.818   3.547  0.00  0.00    -0.217 N 
ATOM     13  H   UNL     1      -0.181  -5.786   3.542  0.00  0.00    +0.176 HD
BRANCH  12  14
ATOM     14  C   UNL     1      -0.034  -4.142   2.385  0.00  0.00    +0.154 C 
ATOM     15  S   UNL     1      -0.030  -4.992   0.898  0.00  0.00    -0.017 S 
BRANCH  14  16
ATOM     16  N   UNL     1       0.051  -2.797   2.392  0.00  0.00    -0.295 N 
ATOM     17  H   UNL     1       0.129  -2.321   3.233  0.00  0.00    +0.154 HD
BRANCH  16  23
ATOM     18  C   UNL     1       1.866   0.777  -0.454  0.00  0.00    +0.044 C 
ATOM     19  C   UNL     1       0.895  -0.351  -0.220  0.00  0.00    -0.046 A 
ATOM     20  C   UNL     1      -0.024  -0.686  -1.198  0.00  0.00    +0.004 A 
ATOM     21  C   UNL     1      -0.917  -1.720  -0.987  0.00  0.00    +0.002 A 
ATOM     22  C   UNL     1      -0.895  -2.422   0.202  0.00  0.00    +0.023 A 
ATOM     23  C   UNL     1       0.026  -2.088   1.187  0.00  0.00    +0.036 A 
ATOM     24  C   UNL     1       0.926  -1.053   0.969  0.00  0.00    -0.026 A 
ATOM     25  C   UNL     1       1.931  -0.691   2.033  0.00  0.00    +0.046 C 
ENDBRANCH  16  23
ENDBRANCH  14  16
ENDBRANCH  12  14
ENDBRANCH   1  12
BRANCH   9  26
ATOM     26  C   UNL     1      -0.472  -7.826   7.986  0.00  0.00    +0.201 C 
BRANCH  26  27
ATOM     27  N   UNL     1      -1.888  -8.193   8.125  0.00  0.00    -0.284 NA
ATOM     28  C   UNL     1      -2.436  -8.673   6.850  0.00  0.00    +0.105 C 
ATOM     29  C   UNL     1      -3.949  -8.872   6.990  0.00  0.00    +0.120 C 
ATOM     30  N   UNL     1      -4.200  -9.749   8.143  0.00  0.00    -0.325 N 
ATOM     31  C   UNL     1      -3.570  -9.407   9.428  0.00  0.00    +0.120 C 
ATOM     32  C   UNL     1      -2.072  -9.187   9.192  0.00  0.00    +0.105 C 
BRANCH  30  33
ATOM     33  C   UNL     1      -5.016 -10.878   8.023  0.00  0.00    +0.065 A 
ATOM     34  C   UNL     1      -4.463 -12.103   7.674  0.00  0.00    +0.026 A 
ATOM     35  C   UNL     1      -5.272 -13.216   7.556  0.00  0.00    +0.002 A 
ATOM     36  C   UNL     1      -6.632 -13.113   7.784  0.00  0.00    +0.003 A 
ATOM     37  C   UNL     1      -7.188 -11.896   8.131  0.00  0.00    +0.040 A 
ATOM     38  C   UNL     1      -6.383 -10.778   8.257  0.00  0.00    +0.144 A 
ATOM     39  F   UNL     1      -6.925  -9.590   8.602  0.00  0.00    -0.204 F 
ENDBRANCH  30  33
ENDBRANCH  26  27
ENDBRANCH   9  26
TORSDOF 7
