REMARK  Name = ZINC06301491
REMARK  10 active torsions:
REMARK  status: ('A' for Active; 'I' for Inactive)
REMARK    1  A    between atoms: C_1  and  C_2
REMARK    2  A    between atoms: C_4  and  C_35
REMARK    3  A    between atoms: C_7  and  C_14
REMARK    4  A    between atoms: C_14  and  N_64
REMARK    5  A    between atoms: C_15  and  C_16
REMARK    6  A    between atoms: C_15  and  N_64
REMARK    7  A    between atoms: C_22  and  C_23
REMARK    8  A    between atoms: C_22  and  N_64
REMARK    9  A    between atoms: N_27  and  C_28
REMARK   10  A    between atoms: C_28  and  C_29
REMARK                            x       y       z     vdW  Elec       q    Type
REMARK                         _______ _______ _______ _____ _____    ______ ____
ROOT
ATOM      1  N   UNL     1      -1.899   1.965   1.154  0.00  0.00    +0.390 N 
ATOM      2  H   UNL     1      -1.289   2.709   1.511  0.00  0.00    -0.080 HD
ENDROOT
BRANCH   1   3
ATOM      3  C   UNL     1      -1.775   0.780   2.029  0.00  0.00    -0.036 C 
BRANCH   3  10
ATOM      4  C   UNL     1      -6.207  -5.257  -0.715  0.00  0.00    +0.044 C 
ATOM      5  C   UNL     1      -5.198  -4.209  -0.325  0.00  0.00    -0.048 A 
ATOM      6  C   UNL     1      -3.908  -4.274  -0.834  0.00  0.00    +0.007 A 
ATOM      7  C   UNL     1      -2.978  -3.333  -0.494  0.00  0.00    -0.041 A 
ATOM      8  C   UNL     1      -3.327  -2.296   0.377  0.00  0.00    +0.002 A 
ATOM      9  C   UNL     1      -2.356  -1.269   0.760  0.00  0.00    +0.017 A 
ATOM     10  C   UNL     1      -2.751  -0.290   1.612  0.00  0.00    +0.001 A 
ATOM     11  C   UNL     1      -4.073  -0.266   2.104  0.00  0.00    +0.251 A 
ATOM     12  O   UNL     1      -4.408   0.625   2.865  0.00  0.00    -0.268 OA
ATOM     13  N   UNL     1      -4.973  -1.202   1.754  0.00  0.00    -0.322 N 
ATOM     14  H   UNL     1      -5.874  -1.156   2.111  0.00  0.00    +0.169 HD
ATOM     15  C   UNL     1      -4.634  -2.227   0.896  0.00  0.00    +0.050 A 
ATOM     16  C   UNL     1      -5.564  -3.195   0.535  0.00  0.00    +0.029 A 
ATOM     17  C   UNL     1      -1.581  -3.413  -1.054  0.00  0.00    +0.044 C 
ENDBRANCH   3  10
ENDBRANCH   1   3
BRANCH   1  18
ATOM     18  C   UNL     1      -1.482   1.622  -0.222  0.00  0.00    -0.042 C 
BRANCH  18  19
ATOM     19  C   UNL     1       0.022   1.551  -0.268  0.00  0.00    -0.064 A 
ATOM     20  C   UNL     1       0.756   2.668  -0.621  0.00  0.00    +0.002 A 
ATOM     21  C   UNL     1       2.136   2.601  -0.670  0.00  0.00    +0.000 A 
ATOM     22  C   UNL     1       2.782   1.417  -0.364  0.00  0.00    +0.000 A 
ATOM     23  C   UNL     1       2.048   0.301  -0.010  0.00  0.00    +0.000 A 
ATOM     24  C   UNL     1       0.668   0.367   0.038  0.00  0.00    +0.002 A 
ENDBRANCH  18  19
ENDBRANCH   1  18
BRANCH   1  25
ATOM     25  C   UNL     1      -3.296   2.448   1.153  0.00  0.00    +0.001 C 
BRANCH  25  26
ATOM     26  C   UNL     1      -3.345   3.790   0.469  0.00  0.00    +0.135 A 
ATOM     27  N   UNL     1      -3.622   4.016  -0.792  0.00  0.00    -0.115 NA
ATOM     28  N   UNL     1      -3.564   5.288  -0.990  0.00  0.00    -0.023 NA
ATOM     29  N   UNL     1      -3.256   5.879   0.111  0.00  0.00    -0.044 NA
ATOM     30  N   UNL     1      -3.118   4.989   1.036  0.00  0.00    -0.229 N 
BRANCH  30  31
ATOM     31  C   UNL     1      -2.775   5.238   2.438  0.00  0.00    +0.178 C 
BRANCH  31  32
ATOM     32  C   UNL     1      -1.256   5.363   2.578  0.00  0.00    +0.140 C 
ATOM     33  C   UNL     1      -0.871   5.616   4.057  0.00  0.00    +0.035 C 
ATOM     34  C   UNL     1       0.585   5.071   4.078  0.00  0.00    +0.031 C 
ATOM     35  C   UNL     1       0.512   3.899   3.077  0.00  0.00    +0.160 C 
ATOM     36  O   UNL     1      -0.620   4.123   2.229  0.00  0.00    -0.375 OA
ENDBRANCH  31  32
ENDBRANCH  30  31
ENDBRANCH  25  26
ENDBRANCH   1  25
TORSDOF 8
