REMARK  Name = ZINC32622639
REMARK  10 active torsions:
REMARK  status: ('A' for Active; 'I' for Inactive)
REMARK    1  A    between atoms: C_1  and  C_2
REMARK    2  A    between atoms: C_2  and  C_3
REMARK    3  A    between atoms: C_2  and  C_4
REMARK    4  A    between atoms: C_2  and  C_5
REMARK    5  A    between atoms: C_8  and  C_11
REMARK    6  A    between atoms: C_11  and  C_13
REMARK    7  A    between atoms: C_11  and  N_27
REMARK    8  A    between atoms: C_13  and  N_14
REMARK    9  A    between atoms: C_15  and  C_17
REMARK   10  A    between atoms: C_19  and  C_22
REMARK                            x       y       z     vdW  Elec       q    Type
REMARK                         _______ _______ _______ _____ _____    ______ ____
ROOT
ATOM      1  C   UNL     1      -2.502   0.978   0.013  0.00  0.00    -0.020 C 
ENDROOT
BRANCH   1   2
ATOM      2  N   UNL     1      -3.483   1.727  -0.782  0.00  0.00    +0.385 N 
ATOM      3  C   UNL     1      -2.858   2.313  -1.974  0.00  0.00    -0.078 C 
ATOM      4  C   UNL     1      -3.933   2.959  -2.850  0.00  0.00    -0.019 C 
ATOM      5  C   UNL     1      -4.657   4.043  -2.046  0.00  0.00    -0.004 C 
ATOM      6  C   UNL     1      -5.258   3.416  -0.785  0.00  0.00    -0.019 C 
ATOM      7  C   UNL     1      -4.144   2.756   0.031  0.00  0.00    -0.078 C 
ATOM      8  H   UNL     1      -4.256   1.021  -1.121  0.00  0.00    -0.081 HD
ENDBRANCH   1   2
BRANCH   1  12
ATOM      9  C   UNL     1       1.301   2.908  -0.241  0.00  0.00    -0.042 A 
ATOM     10  C   UNL     1       1.198   1.550  -0.476  0.00  0.00    +0.004 A 
ATOM     11  C   UNL     1      -0.032   0.924  -0.390  0.00  0.00    +0.002 A 
ATOM     12  C   UNL     1      -1.160   1.658  -0.074  0.00  0.00    -0.059 A 
ATOM     13  C   UNL     1      -1.056   3.016   0.166  0.00  0.00    +0.002 A 
ATOM     14  C   UNL     1       0.173   3.641   0.079  0.00  0.00    +0.004 A 
BRANCH   9  16
ATOM     15  C   UNL     1       3.204   3.415  -1.748  0.00  0.00    +0.015 C 
ATOM     16  C   UNL     1       2.641   3.590  -0.336  0.00  0.00    -0.013 C 
ATOM     17  C   UNL     1       2.478   5.081  -0.033  0.00  0.00    +0.015 C 
ATOM     18  C   UNL     1       3.603   2.966   0.677  0.00  0.00    +0.015 C 
ENDBRANCH   9  16
ENDBRANCH   1  12
BRANCH   1  19
ATOM     19  C   UNL     1      -2.956   0.932   1.474  0.00  0.00    +0.094 C 
BRANCH  19  20
ATOM     20  N   UNL     1      -4.254   0.258   1.560  0.00  0.00    -0.311 N 
ATOM     21  C   UNL     1      -4.803   0.007   2.765  0.00  0.00    +0.266 C 
ATOM     22  O   UNL     1      -4.222   0.340   3.779  0.00  0.00    -0.268 OA
ATOM     23  H   UNL     1      -4.780  -0.043   0.642  0.00  0.00    +0.149 HD
BRANCH  21  24
ATOM     24  C   UNL     1      -6.117  -0.675   2.853  0.00  0.00    +0.168 A 
ATOM     25  C   UNL     1      -6.821  -1.014   4.036  0.00  0.00    +0.086 A 
ATOM     26  C   UNL     1      -7.963  -1.617   3.575  0.00  0.00    +0.174 A 
ATOM     27  O   UNL     1      -7.878  -1.612   2.233  0.00  0.00    -0.353 OA
ATOM     28  N   UNL     1      -6.856  -1.090   1.852  0.00  0.00    -0.073 NA
BRANCH  26  29
ATOM     29  C   UNL     1      -9.060  -2.164   4.387  0.00  0.00    +0.057 A 
ATOM     30  C   UNL     1     -10.228  -2.779   3.974  0.00  0.00    +0.019 A 
ATOM     31  C   UNL     1     -11.111  -3.217   4.933  0.00  0.00    +0.008 A 
ATOM     32  C   UNL     1     -10.818  -3.024   6.245  0.00  0.00    +0.046 A 
ATOM     33  S   UNL     1      -9.236  -2.202   6.164  0.00  0.00    -0.093 S 
ENDBRANCH  26  29
ENDBRANCH  21  24
ENDBRANCH  19  20
ENDBRANCH   1  19
TORSDOF 7
