REMARK  Name = ZINC40399937
REMARK  16 active torsions:
REMARK  status: ('A' for Active; 'I' for Inactive)
REMARK    1  A    between atoms: C_1  and  C_2
REMARK    2  A    between atoms: C_2  and  N_3
REMARK    3  A    between atoms: N_3  and  C_4
REMARK    4  A    between atoms: C_4  and  N_6
REMARK    5  A    between atoms: N_6  and  C_7
REMARK    6  A    between atoms: N_6  and  C_12
REMARK    7  A    between atoms: C_7  and  C_8
REMARK    8  A    between atoms: C_8  and  N_9
REMARK    9  A    between atoms: N_9  and  C_10
REMARK   10  A    between atoms: N_9  and  C_11
REMARK   11  A    between atoms: C_12  and  C_13
REMARK   12  A    between atoms: C_16  and  S_25
REMARK   13  A    between atoms: N_17  and  C_18
REMARK   14  A    between atoms: C_18  and  C_19
REMARK   15  A    between atoms: S_25  and  C_28
REMARK   16  A    between atoms: C_28  and  C_29
REMARK                            x       y       z     vdW  Elec       q    Type
REMARK                         _______ _______ _______ _____ _____    ______ ____
ROOT
ATOM      1  C   UNL     1       3.213  -0.508  -2.371  0.00  0.00    +0.057 A 
ATOM      2  C   UNL     1       4.489  -0.876  -2.594  0.00  0.00    +0.137 A 
ATOM      3  N   UNL     1       5.286  -0.048  -1.904  0.00  0.00    -0.220 NA
ATOM      4  C   UNL     1       4.553   0.820  -1.262  0.00  0.00    +0.252 A 
ATOM      5  N   UNL     1       3.253   0.572  -1.531  0.00  0.00    -0.309 N 
ENDROOT
BRANCH   4   6
ATOM      6  S   UNL     1       5.159   2.107  -0.222  0.00  0.00    +0.034 S 
ATOM      7  O   UNL     1       4.101   2.364   0.692  0.00  0.00    -0.166 OA
ATOM      8  O   UNL     1       6.418   1.637   0.241  0.00  0.00    -0.166 OA
BRANCH   6   9
ATOM      9  C   UNL     1       5.391   3.528  -1.325  0.00  0.00    +0.213 C 
BRANCH   9  10
ATOM     10  C   UNL     1       5.912   4.699  -0.533  0.00  0.00    +0.009 A 
ATOM     11  C   UNL     1       5.029   5.586   0.053  0.00  0.00    +0.008 A 
ATOM     12  C   UNL     1       5.507   6.660   0.780  0.00  0.00    +0.000 A 
ATOM     13  C   UNL     1       6.869   6.849   0.921  0.00  0.00    +0.003 A 
ATOM     14  C   UNL     1       7.755   5.964   0.336  0.00  0.00    +0.038 A 
ATOM     15  C   UNL     1       7.277   4.885  -0.388  0.00  0.00    +0.128 A 
ATOM     16  F   UNL     1       8.141   4.016  -0.956  0.00  0.00    -0.205 F 
ENDBRANCH   9  10
ENDBRANCH   6   9
ENDBRANCH   4   6
BRANCH   1  17
ATOM     17  C   UNL     1       1.978  -1.156  -2.942  0.00  0.00    +0.161 C 
BRANCH  17  18
ATOM     18  N   UNL     1       1.594  -0.471  -4.179  0.00  0.00    -0.309 N 
BRANCH  18  19
ATOM     19  C   UNL     1       2.113  -0.867  -5.357  0.00  0.00    +0.133 C 
ATOM     20  S   UNL     1       1.579  -0.144  -6.815  0.00  0.00    -0.019 S 
BRANCH  19  21
ATOM     21  N   UNL     1       3.052  -1.833  -5.389  0.00  0.00    -0.327 N 
ATOM     22  H   UNL     1       3.302  -2.294  -4.573  0.00  0.00    +0.148 HD
BRANCH  21  24
ATOM     23  C   UNL     1       4.630  -3.380  -6.439  0.00  0.00    +0.024 C 
ATOM     24  C   UNL     1       3.696  -2.188  -6.657  0.00  0.00    +0.100 C 
ENDBRANCH  21  24
ENDBRANCH  19  21
ENDBRANCH  18  19
BRANCH  18  25
ATOM     25  C   UNL     1       0.646   0.646  -4.134  0.00  0.00    +0.088 C 
BRANCH  25  26
ATOM     26  C   UNL     1      -0.783   0.101  -4.135  0.00  0.00    -0.060 C 
BRANCH  26  27
ATOM     27  N   UNL     1      -1.734   1.221  -4.090  0.00  0.00    +0.377 N 
ATOM     28  C   UNL     1      -3.104   0.705  -4.211  0.00  0.00    -0.097 C 
ATOM     29  C   UNL     1      -1.590   1.934  -2.814  0.00  0.00    -0.097 C 
ATOM     30  H   UNL     1      -1.544   1.854  -4.853  0.00  0.00    -0.083 HD
ENDBRANCH  26  27
ENDBRANCH  25  26
ENDBRANCH  18  25
ENDBRANCH  17  18
ENDBRANCH   1  17
BRANCH   5  31
ATOM     31  C   UNL     1       2.102   1.317  -1.017  0.00  0.00    +0.156 C 
BRANCH  31  32
ATOM     32  C   UNL     1       1.727   0.786   0.368  0.00  0.00    +0.138 C 
ATOM     33  C   UNL     1       0.551   1.604   0.958  0.00  0.00    +0.035 C 
ATOM     34  C   UNL     1      -0.059   0.573   1.947  0.00  0.00    +0.031 C 
ATOM     35  C   UNL     1       0.176  -0.764   1.212  0.00  0.00    +0.160 C 
ATOM     36  O   UNL     1       1.238  -0.561   0.271  0.00  0.00    -0.375 OA
ENDBRANCH  31  32
ENDBRANCH   5  31
TORSDOF 13
