REMARK  Name = ZINC12489949
REMARK  12 active torsions:
REMARK  status: ('A' for Active; 'I' for Inactive)
REMARK    1  A    between atoms: C_1  and  C_2
REMARK    2  A    between atoms: C_5  and  N_9
REMARK    3  A    between atoms: C_6  and  C_8
REMARK    4  A    between atoms: C_10  and  C_12
REMARK    5  A    between atoms: C_12  and  C_13
REMARK    6  A    between atoms: C_13  and  C_14
REMARK    7  A    between atoms: N_16  and  N_17
REMARK    8  A    between atoms: C_18  and  C_20
REMARK    9  A    between atoms: C_20  and  O_21
REMARK   10  A    between atoms: O_21  and  C_22
REMARK   11  A    between atoms: C_23  and  C_30
REMARK   12  A    between atoms: C_27  and  C_28
REMARK                            x       y       z     vdW  Elec       q    Type
REMARK                         _______ _______ _______ _____ _____    ______ ____
ROOT
ATOM      1  C   UNL     1       1.212  -2.725  -2.033  0.00  0.00    +0.230 C 
ATOM      2  O   UNL     1       1.726  -2.107  -2.941  0.00  0.00    -0.274 OA
ATOM      3  N   UNL     1       0.632  -2.064  -1.011  0.00  0.00    -0.234 N 
ATOM      4  H   UNL     1       0.221  -2.559  -0.285  0.00  0.00    +0.173 HD
ENDROOT
BRANCH   3   5
ATOM      5  N   UNL     1       0.623  -0.663  -0.998  0.00  0.00    -0.232 N 
ATOM      6  C   UNL     1       0.043  -0.003   0.023  0.00  0.00    +0.267 C 
ATOM      7  O   UNL     1      -0.471  -0.621   0.931  0.00  0.00    -0.271 OA
ATOM      8  H   UNL     1       1.034  -0.169  -1.724  0.00  0.00    +0.173 HD
BRANCH   6   9
ATOM      9  C   UNL     1       0.033   1.504   0.037  0.00  0.00    +0.326 C 
BRANCH   9  10
ATOM     10  O   UNL     1      -0.635   1.965   1.213  0.00  0.00    -0.482 OA
BRANCH  10  11
ATOM     11  C   UNL     1      -0.732   3.311   1.381  0.00  0.00    +0.127 A 
ATOM     12  C   UNL     1       0.261   3.999   2.063  0.00  0.00    -0.007 A 
ATOM     13  C   UNL     1       0.163   5.367   2.228  0.00  0.00    +0.022 A 
ATOM     14  C   UNL     1      -0.929   6.049   1.722  0.00  0.00    +0.019 A 
ATOM     15  C   UNL     1      -1.922   5.364   1.045  0.00  0.00    +0.022 A 
ATOM     16  C   UNL     1      -1.826   3.997   0.874  0.00  0.00    -0.007 A 
ATOM     17  C   UNL     1      -2.908   3.251   0.137  0.00  0.00    +0.047 C 
ATOM     18 BR   UNL     1      -1.063   7.921   1.954  0.00  0.00    -0.050 Br
ATOM     19  C   UNL     1       1.447   3.255   2.620  0.00  0.00    +0.047 C 
ENDBRANCH  10  11
ENDBRANCH   9  10
ENDBRANCH   6   9
ENDBRANCH   3   5
BRANCH   1  20
ATOM     20  C   UNL     1       1.222  -4.232  -2.046  0.00  0.00    +0.106 C 
BRANCH  20  21
ATOM     21  C   UNL     1       1.937  -4.726  -3.306  0.00  0.00    +0.105 C 
BRANCH  21  23
ATOM     22  N   UNL     1       2.527  -6.893  -4.341  0.00  0.00    -0.285 N 
ATOM     23  C   UNL     1       1.947  -6.233  -3.320  0.00  0.00    +0.218 C 
ATOM     24  O   UNL     1       1.433  -6.851  -2.412  0.00  0.00    -0.275 OA
ATOM     25  H   UNL     1       2.867  -6.402  -5.106  0.00  0.00    +0.155 HD
BRANCH  22  30
ATOM     26  C   UNL     1       2.981 -12.546  -4.170  0.00  0.00    +0.044 C 
ATOM     27  C   UNL     1       2.861 -11.044  -4.215  0.00  0.00    -0.050 A 
ATOM     28  C   UNL     1       2.763 -10.324  -3.039  0.00  0.00    +0.005 A 
ATOM     29  C   UNL     1       2.652  -8.948  -3.077  0.00  0.00    +0.024 A 
ATOM     30  C   UNL     1       2.639  -8.287  -4.299  0.00  0.00    +0.036 A 
ATOM     31  C   UNL     1       2.732  -9.014  -5.478  0.00  0.00    -0.029 A 
ATOM     32  C   UNL     1       2.848 -10.390  -5.433  0.00  0.00    +0.008 A 
ATOM     33  C   UNL     1       2.712  -8.302  -6.806  0.00  0.00    +0.045 C 
ENDBRANCH  22  30
ENDBRANCH  21  23
ENDBRANCH  20  21
ENDBRANCH   1  20
TORSDOF 8
