REMARK  Name = ZINC35591585
REMARK  8 active torsions:
REMARK  status: ('A' for Active; 'I' for Inactive)
REMARK    1  A    between atoms: C_1  and  C_2
REMARK    2  A    between atoms: C_2  and  C_3
REMARK    3  A    between atoms: C_3  and  C_5
REMARK    4  A    between atoms: C_3  and  N_15
REMARK    5  A    between atoms: N_7  and  C_8
REMARK    6  A    between atoms: C_8  and  C_9
REMARK    7  A    between atoms: C_9  and  N_10
REMARK    8  A    between atoms: N_24  and  C_27
REMARK                            x       y       z     vdW  Elec       q    Type
REMARK                         _______ _______ _______ _____ _____    ______ ____
ROOT
ATOM      1  N   UNL     1      -0.055  -0.114  -2.441  0.00  0.00    -0.281 N 
ATOM      2  C   UNL     1       0.484   0.782  -3.353  0.00  0.00    +0.061 A 
ATOM      3  C   UNL     1       1.745   1.329  -3.174  0.00  0.00    +0.046 A 
ATOM      4  C   UNL     1       2.245   2.218  -4.107  0.00  0.00    +0.043 A 
ATOM      5  C   UNL     1       1.496   2.569  -5.222  0.00  0.00    +0.021 A 
ATOM      6  C   UNL     1       0.240   2.034  -5.415  0.00  0.00    +0.017 A 
ATOM      7  C   UNL     1      -0.275   1.136  -4.482  0.00  0.00    +0.064 A 
ATOM      8  C   UNL     1      -1.611   0.536  -4.641  0.00  0.00    +0.269 A 
ATOM      9  O   UNL     1      -2.307   0.809  -5.599  0.00  0.00    -0.266 OA
ATOM     10  N   UNL     1      -2.042  -0.325  -3.694  0.00  0.00    -0.227 N 
ATOM     11  C   UNL     1      -1.278  -0.637  -2.635  0.00  0.00    +0.338 A 
ATOM     12  O   UNL     1      -1.712  -1.422  -1.815  0.00  0.00    -0.246 OA
ATOM     13 CL   UNL     1       3.824   2.903  -3.882  0.00  0.00    -0.083 Cl
ENDROOT
BRANCH  10  14
ATOM     14  C   UNL     1      -3.310  -0.909  -3.822  0.00  0.00    +0.073 A 
ATOM     15  C   UNL     1      -3.455  -2.116  -4.493  0.00  0.00    +0.028 A 
ATOM     16  C   UNL     1      -4.706  -2.688  -4.617  0.00  0.00    +0.002 A 
ATOM     17  C   UNL     1      -5.813  -2.062  -4.075  0.00  0.00    +0.002 A 
ATOM     18  C   UNL     1      -5.672  -0.860  -3.406  0.00  0.00    +0.022 A 
ATOM     19  C   UNL     1      -4.423  -0.284  -3.273  0.00  0.00    +0.065 A 
ATOM     20 CL   UNL     1      -4.245   1.222  -2.427  0.00  0.00    -0.081 Cl
ENDBRANCH  10  14
BRANCH   1  21
ATOM     21  C   UNL     1       0.718  -0.497  -1.257  0.00  0.00    +0.177 C 
BRANCH  21  22
ATOM     22  C   UNL     1       0.980  -1.981  -1.287  0.00  0.00    +0.236 C 
ATOM     23  O   UNL     1       0.561  -2.652  -2.206  0.00  0.00    -0.274 OA
ATOM     24  N   UNL     1       1.678  -2.563  -0.292  0.00  0.00    -0.315 N 
ATOM     25  H   UNL     1       2.013  -2.026   0.444  0.00  0.00    +0.149 HD
BRANCH  24  26
ATOM     26  C   UNL     1       1.933  -4.005  -0.321  0.00  0.00    +0.086 C 
BRANCH  26  27
ATOM     27  C   UNL     1       2.740  -4.406   0.915  0.00  0.00    -0.060 C 
BRANCH  27  28
ATOM     28  N   UNL     1       2.995  -5.852   0.886  0.00  0.00    +0.381 N 
ATOM     29  C   UNL     1       3.933  -6.185  -0.216  0.00  0.00    -0.079 C 
ATOM     30  C   UNL     1       4.523  -7.550   0.220  0.00  0.00    -0.020 C 
ATOM     31  C   UNL     1       4.659  -7.394   1.752  0.00  0.00    -0.020 C 
ATOM     32  C   UNL     1       3.670  -6.276   2.132  0.00  0.00    -0.079 C 
ATOM     33  H   UNL     1       2.129  -6.356   0.771  0.00  0.00    -0.082 HD
ENDBRANCH  27  28
ENDBRANCH  26  27
ENDBRANCH  24  26
ENDBRANCH  21  22
BRANCH  21  35
ATOM     34  C   UNL     1      -0.230   1.375   0.099  0.00  0.00    +0.006 C 
ATOM     35  C   UNL     1      -0.072  -0.144   0.005  0.00  0.00    +0.031 C 
ENDBRANCH  21  35
ENDBRANCH   1  21
TORSDOF 7
