REMARK  Name = ZINC12413005
REMARK  7 active torsions:
REMARK  status: ('A' for Active; 'I' for Inactive)
REMARK    1  A    between atoms: C_1  and  C_2
REMARK    2  A    between atoms: C_2  and  O_3
REMARK    3  A    between atoms: O_3  and  C_4
REMARK    4  A    between atoms: C_4  and  C_6
REMARK    5  A    between atoms: C_8  and  C_30
REMARK    6  A    between atoms: C_15  and  C_21
REMARK    7  A    between atoms: C_25  and  N_27
REMARK                            x       y       z     vdW  Elec       q    Type
REMARK                         _______ _______ _______ _____ _____    ______ ____
ROOT
ATOM      1  C   UNL     1      -1.432   6.112   0.128  0.00  0.00    +0.176 C 
ATOM      2  C   UNL     1      -2.664   5.253  -0.172  0.00  0.00    +0.053 C 
ATOM      3  C   UNL     1      -2.501   3.904   0.531  0.00  0.00    +0.061 C 
ATOM      4  C   UNL     1      -1.236   3.234   0.057  0.00  0.00    +0.018 C 
ATOM      5  C   UNL     1      -0.169   3.964  -0.328  0.00  0.00    +0.021 C 
ATOM      6  C   UNL     1      -0.199   5.369  -0.309  0.00  0.00    +0.176 C 
ATOM      7  O   UNL     1       0.786   5.993  -0.652  0.00  0.00    -0.291 OA
ATOM      8  C   UNL     1       1.090   3.271  -0.793  0.00  0.00    +0.063 C 
ATOM      9  C   UNL     1       1.281   1.978   0.000  0.00  0.00    +0.109 C 
ATOM     10  C   UNL     1      -0.014   1.208   0.009  0.00  0.00    +0.218 C 
ATOM     11  O   UNL     1       0.002  -0.004   0.002  0.00  0.00    -0.275 OA
ATOM     12  N   UNL     1      -1.188   1.863   0.018  0.00  0.00    -0.289 N 
ATOM     13  H   UNL     1      -2.016   1.358   0.000  0.00  0.00    +0.155 HD
ENDROOT
BRANCH   8  14
ATOM     14  C   UNL     1       0.973   2.948  -2.261  0.00  0.00    -0.037 A 
ATOM     15  C   UNL     1      -0.042   2.123  -2.708  0.00  0.00    +0.004 A 
ATOM     16  C   UNL     1      -0.152   1.830  -4.054  0.00  0.00    +0.003 A 
ATOM     17  C   UNL     1       0.759   2.354  -4.952  0.00  0.00    +0.033 A 
ATOM     18  C   UNL     1       1.777   3.175  -4.505  0.00  0.00    +0.126 A 
ATOM     19  C   UNL     1       1.885   3.471  -3.159  0.00  0.00    +0.037 A 
BRANCH  18  20
ATOM     20  N   UNL     1       2.752   3.736  -5.466  0.00  0.00    +0.056 N 
ATOM     21  O   UNL     1       3.650   4.459  -5.072  0.00  0.00    -0.126 OA
ATOM     22  O   UNL     1       2.658   3.474  -6.652  0.00  0.00    -0.126 OA
ENDBRANCH  18  20
ENDBRANCH   8  14
BRANCH   2  23
ATOM     23  C   UNL     1      -3.901   5.944   0.339  0.00  0.00    -0.006 A 
ATOM     24  C   UNL     1      -4.992   6.362  -0.348  0.00  0.00    +0.011 A 
ATOM     25  C   UNL     1      -6.022   6.978   0.338  0.00  0.00    +0.008 A 
ATOM     26  C   UNL     1      -5.906   7.155   1.677  0.00  0.00    +0.045 A 
ATOM     27  S   UNL     1      -4.307   6.434   2.008  0.00  0.00    -0.101 S 
ENDBRANCH   2  23
BRANCH   1  28
ATOM     28  C   UNL     1      -1.530   7.415  -0.624  0.00  0.00    +0.318 C 
ATOM     29  O   UNL     1      -2.490   7.639  -1.321  0.00  0.00    -0.250 OA
BRANCH  28  30
ATOM     30  O   UNL     1      -0.549   8.325  -0.519  0.00  0.00    -0.464 OA
BRANCH  30  32
ATOM     31  C   UNL     1       0.498  10.464  -1.029  0.00  0.00    +0.048 C 
ATOM     32  C   UNL     1      -0.710   9.557  -1.272  0.00  0.00    +0.229 C 
ENDBRANCH  30  32
ENDBRANCH  28  30
ENDBRANCH   1  28
TORSDOF 6
