REMARK  Name = ZINC63552607
REMARK  11 active torsions:
REMARK  status: ('A' for Active; 'I' for Inactive)
REMARK    1  A    between atoms: C_1  and  C_2
REMARK    2  A    between atoms: C_2  and  C_3
REMARK    3  A    between atoms: C_3  and  C_5
REMARK    4  A    between atoms: C_3  and  N_6
REMARK    5  A    between atoms: C_11  and  C_21
REMARK    6  A    between atoms: C_21  and  C_22
REMARK    7  A    between atoms: C_22  and  C_23
REMARK    8  A    between atoms: C_23  and  C_24
REMARK    9  A    between atoms: N_26  and  C_27
REMARK   10  A    between atoms: C_27  and  C_28
REMARK   11  A    between atoms: C_28  and  C_29
REMARK                            x       y       z     vdW  Elec       q    Type
REMARK                         _______ _______ _______ _____ _____    ______ ____
ROOT
ATOM      1  N   UNL     1      -0.055  -0.114  -2.441  0.00  0.00    -0.262 N 
ATOM      2  C   UNL     1       0.555   0.741  -3.453  0.00  0.00    +0.253 C 
ATOM      3  N   UNL     1       2.014   0.553  -3.554  0.00  0.00    -0.219 NA
ATOM      4  N   UNL     1       2.303   0.914  -4.956  0.00  0.00    -0.234 NA
ATOM      5  C   UNL     1       1.161   0.325  -5.708  0.00  0.00    +0.158 C 
ATOM      6  N   UNL     1       0.030   0.385  -4.790  0.00  0.00    -0.280 N 
ATOM      7  C   UNL     1      -1.322   0.094  -4.972  0.00  0.00    +0.053 A 
ATOM      8  C   UNL     1      -2.137   0.190  -6.073  0.00  0.00    +0.031 A 
ATOM      9  C   UNL     1      -3.442  -0.170  -5.971  0.00  0.00    +0.048 A 
ATOM     10  S   UNL     1      -3.621  -0.656  -4.369  0.00  0.00    -0.090 S 
ATOM     11  C   UNL     1      -1.972  -0.388  -3.813  0.00  0.00    +0.095 A 
ATOM     12  C   UNL     1      -1.331  -0.564  -2.584  0.00  0.00    +0.258 C 
ATOM     13  O   UNL     1      -1.907  -1.106  -1.658  0.00  0.00    -0.269 OA
ATOM     14  H   UNL     1       2.502   1.163  -2.915  0.00  0.00    +0.144 HD
ATOM     15  H   UNL     1       3.179   0.515  -5.259  0.00  0.00    +0.143 HD
ENDROOT
BRANCH   1  16
ATOM     16  C   UNL     1       0.718  -0.497  -1.257  0.00  0.00    +0.076 C 
ATOM     17  C   UNL     1       0.849  -2.021  -1.205  0.00  0.00    +0.028 C 
BRANCH  16  19
ATOM     18  C   UNL     1      -0.019   1.526   0.010  0.00  0.00    +0.006 C 
ATOM     19  C   UNL     1       0.002  -0.004   0.002  0.00  0.00    +0.019 C 
ENDBRANCH  16  19
ENDBRANCH   1  16
BRANCH   5  20
ATOM     20  C   UNL     1       0.872   1.148  -6.965  0.00  0.00    +0.040 C 
BRANCH  20  21
ATOM     21  C   UNL     1       2.048   1.025  -7.936  0.00  0.00    +0.012 C 
BRANCH  21  22
ATOM     22  C   UNL     1       1.759   1.848  -9.193  0.00  0.00    +0.096 C 
BRANCH  22  23
ATOM     23  C   UNL     1       2.917   1.727 -10.150  0.00  0.00    +0.213 C 
ATOM     24  O   UNL     1       3.879   1.049  -9.855  0.00  0.00    -0.276 OA
ATOM     25  N   UNL     1       2.885   2.372 -11.333  0.00  0.00    -0.315 N 
ATOM     26  H   UNL     1       2.115   2.913 -11.569  0.00  0.00    +0.149 HD
BRANCH  25  27
ATOM     27  C   UNL     1       4.011   2.254 -12.263  0.00  0.00    +0.108 C 
BRANCH  27  28
ATOM     28  C   UNL     1       3.722   3.077 -13.520  0.00  0.00    +0.052 C 
BRANCH  28  29
ATOM     29  C   UNL     1       4.880   2.956 -14.476  0.00  0.00    -0.040 C 
ATOM     30  C   UNL     1       4.994   2.093 -15.511  0.00  0.00    -0.001 A 
ATOM     31  C   UNL     1       4.107   1.047 -16.036  0.00  0.00    +0.010 A 
ATOM     32  C   UNL     1       4.503   0.329 -17.111  0.00  0.00    +0.001 A 
ATOM     33  C   UNL     1       5.737   0.557 -17.735  0.00  0.00    +0.002 A 
ATOM     34  C   UNL     1       6.606   1.500 -17.311  0.00  0.00    +0.026 A 
ATOM     35  C   UNL     1       6.291   2.314 -16.189  0.00  0.00    +0.043 A 
ATOM     36  N   UNL     1       6.954   3.277 -15.596  0.00  0.00    -0.380 N 
ATOM     37  C   UNL     1       6.149   3.780 -14.477  0.00  0.00    +0.144 C 
ATOM     38  H   UNL     1       7.829   3.605 -15.855  0.00  0.00    +0.160 HD
ENDBRANCH  28  29
ENDBRANCH  27  28
ENDBRANCH  25  27
ENDBRANCH  22  23
ENDBRANCH  21  22
ENDBRANCH  20  21
ENDBRANCH   5  20
TORSDOF 9
