REMARK  Name = ZINC14202901
REMARK  6 active torsions:
REMARK  status: ('A' for Active; 'I' for Inactive)
REMARK    1  A    between atoms: C_3  and  C_6
REMARK    2  A    between atoms: C_6  and  C_8
REMARK    3  A    between atoms: C_6  and  N_22
REMARK    4  A    between atoms: C_8  and  C_9
REMARK    5  A    between atoms: N_11  and  C_12
REMARK    6  A    between atoms: C_12  and  C_13
REMARK                            x       y       z     vdW  Elec       q    Type
REMARK                         _______ _______ _______ _____ _____    ______ ____
ROOT
ATOM      1  C   UNL     1       8.326  -1.665   0.457  0.00  0.00    +0.123 C 
ENDROOT
BRANCH   1   2
ATOM      2  C   UNL     1       7.355  -1.236   1.526  0.00  0.00    +0.215 C 
ATOM      3  O   UNL     1       7.746  -1.037   2.657  0.00  0.00    -0.276 OA
ATOM      4  N   UNL     1       6.051  -1.073   1.226  0.00  0.00    -0.311 N 
ATOM      5  H   UNL     1       5.738  -1.231   0.322  0.00  0.00    +0.149 HD
BRANCH   4   6
ATOM      6  C   UNL     1       5.107  -0.655   2.265  0.00  0.00    +0.139 C 
BRANCH   6   7
ATOM      7  C   UNL     1       3.725  -0.548   1.674  0.00  0.00    -0.027 A 
ATOM      8  C   UNL     1       2.885  -1.646   1.677  0.00  0.00    +0.009 A 
ATOM      9  C   UNL     1       1.617  -1.553   1.135  0.00  0.00    +0.050 A 
ATOM     10  C   UNL     1       1.183  -0.356   0.589  0.00  0.00    +0.166 A 
ATOM     11  C   UNL     1       2.028   0.751   0.586  0.00  0.00    +0.167 A 
ATOM     12  C   UNL     1       3.298   0.650   1.131  0.00  0.00    +0.054 A 
ATOM     13  O   UNL     1       1.376   1.797  -0.001  0.00  0.00    -0.453 OA
ATOM     14  C   UNL     1      -0.018   1.436   0.010  0.00  0.00    +0.466 C 
ATOM     15  O   UNL     1       0.002  -0.004   0.002  0.00  0.00    -0.453 OA
ENDBRANCH   6   7
ENDBRANCH   4   6
ENDBRANCH   1   2
BRANCH   1  16
ATOM     16  C   UNL     1       9.729  -1.774   1.058  0.00  0.00    +0.120 C 
BRANCH  16  17
ATOM     17  N   UNL     1      10.183  -0.448   1.484  0.00  0.00    -0.292 N 
ATOM     18  C   UNL     1      11.108  -0.333   2.457  0.00  0.00    +0.298 C 
ATOM     19  O   UNL     1      11.566  -1.329   2.981  0.00  0.00    -0.253 OA
ATOM     20  N   UNL     1      11.525   0.887   2.849  0.00  0.00    -0.313 N 
ATOM     21  H   UNL     1       9.818   0.347   1.065  0.00  0.00    +0.151 HD
ATOM     22  H   UNL     1      11.160   1.683   2.431  0.00  0.00    +0.146 HD
ATOM     23  H   UNL     1      12.191   0.970   3.550  0.00  0.00    +0.146 HD
ENDBRANCH  16  17
BRANCH  16  26
ATOM     24  C   UNL     1      12.015  -3.860  -1.164  0.00  0.00    +0.008 A 
ATOM     25  C   UNL     1      11.146  -3.584  -0.126  0.00  0.00    +0.013 A 
ATOM     26  C   UNL     1      10.678  -2.320   0.021  0.00  0.00    +0.010 A 
ATOM     27  S   UNL     1      11.482  -1.469  -1.326  0.00  0.00    -0.100 S 
ATOM     28  C   UNL     1      12.382  -2.857  -1.998  0.00  0.00    +0.045 A 
ENDBRANCH  16  26
ENDBRANCH   1  16
TORSDOF 6
