REMARK  Name = ZINC08995834
REMARK  5 active torsions:
REMARK  status: ('A' for Active; 'I' for Inactive)
REMARK    1  A    between atoms: C_5  and  C_7
REMARK    2  A    between atoms: C_12  and  O_29
REMARK    3  A    between atoms: N_19  and  C_22
REMARK    4  A    between atoms: C_22  and  C_23
REMARK    5  A    between atoms: C_23  and  N_55
REMARK                            x       y       z     vdW  Elec       q    Type
REMARK                         _______ _______ _______ _____ _____    ______ ____
ROOT
ATOM      1  C   UNL     1       0.393  -2.471  -0.092  0.00  0.00    +0.093 C 
ATOM      2  C   UNL     1      -0.048  -1.032  -0.142  0.00  0.00    +0.007 A 
ATOM      3  C   UNL     1      -1.393  -0.727  -0.043  0.00  0.00    +0.012 A 
ATOM      4  C   UNL     1      -1.814   0.587  -0.089  0.00  0.00    +0.046 A 
ATOM      5  C   UNL     1      -0.885   1.608  -0.234  0.00  0.00    +0.120 A 
ATOM      6  C   UNL     1       0.463   1.305  -0.331  0.00  0.00    +0.092 A 
ATOM      7  C   UNL     1       0.885  -0.017  -0.286  0.00  0.00    +0.138 A 
ATOM      8  O   UNL     1       2.206  -0.298  -0.387  0.00  0.00    -0.437 OA
ATOM      9  C   UNL     1       2.685  -1.485   0.044  0.00  0.00    +0.229 A 
ATOM     10  C   UNL     1       1.863  -2.559   0.203  0.00  0.00    +0.066 A 
ATOM     11  C   UNL     1       2.414  -3.781   0.655  0.00  0.00    +0.115 A 
ATOM     12  N   UNL     1       3.770  -3.831   0.916  0.00  0.00    -0.320 N 
ATOM     13  C   UNL     1       4.523  -2.717   0.735  0.00  0.00    +0.204 A 
ATOM     14  N   UNL     1       3.998  -1.601   0.319  0.00  0.00    -0.202 NA
ATOM     15  H   UNL     1       1.952  -5.721   1.131  0.00  0.00    +0.157 HD
ATOM     16  N   UNL     1       1.588  -4.824   0.806  0.00  0.00    -0.384 N 
ATOM     17  H   UNL     1       0.589  -4.722   0.595  0.00  0.00    +0.157 HD
ENDROOT
BRANCH   1  22
ATOM     18  C   UNL     1       0.438  -3.233  -3.789  0.00  0.00    +0.000 A 
ATOM     19  C   UNL     1      -0.408  -4.324  -3.857  0.00  0.00    +0.001 A 
ATOM     20  C   UNL     1      -0.995  -4.817  -2.707  0.00  0.00    +0.020 A 
ATOM     21  C   UNL     1      -0.736  -4.217  -1.487  0.00  0.00    +0.045 A 
ATOM     22  C   UNL     1       0.111  -3.125  -1.420  0.00  0.00    -0.017 A 
ATOM     23  C   UNL     1       0.693  -2.630  -2.571  0.00  0.00    +0.006 A 
ATOM     24 CL   UNL     1      -1.472  -4.835  -0.042  0.00  0.00    -0.083 Cl
ENDBRANCH   1  22
BRANCH   5  25
ATOM     25  O   UNL     1      -1.297   2.902  -0.280  0.00  0.00    -0.507 OA
ATOM     26  H   UNL     1      -1.340   3.332   0.586  0.00  0.00    +0.292 HD
ENDBRANCH   5  25
BRANCH  12  27
ATOM     27  C   UNL     1       4.388  -5.074   1.384  0.00  0.00    +0.106 C 
BRANCH  27  28
ATOM     28  C   UNL     1       4.739  -5.954   0.182  0.00  0.00    -0.057 C 
BRANCH  28  34
ATOM     29  C   UNL     1       6.663  -6.937   1.277  0.00  0.00    -0.050 C 
ATOM     30  C   UNL     1       7.245  -8.251   1.803  0.00  0.00    +0.141 C 
ATOM     31  O   UNL     1       7.339  -9.190   0.728  0.00  0.00    -0.383 OA
ATOM     32  C   UNL     1       6.087  -9.470   0.097  0.00  0.00    +0.141 C 
ATOM     33  C   UNL     1       5.493  -8.168  -0.447  0.00  0.00    -0.050 C 
ATOM     34  N   UNL     1       5.344  -7.212   0.671  0.00  0.00    +0.384 N 
ATOM     35  H   UNL     1       4.728  -7.623   1.382  0.00  0.00    -0.082 HD
ENDBRANCH  28  34
ENDBRANCH  27  28
ENDBRANCH  12  27
TORSDOF 5
