REMARK  Name = ZINC00938463
REMARK  9 active torsions:
REMARK  status: ('A' for Active; 'I' for Inactive)
REMARK    1  A    between atoms: C_1  and  C_2
REMARK    2  A    between atoms: C_2  and  O_3
REMARK    3  A    between atoms: O_3  and  C_4
REMARK    4  A    between atoms: C_4  and  C_6
REMARK    5  A    between atoms: C_10  and  N_11
REMARK    6  A    between atoms: C_12  and  C_14
REMARK    7  A    between atoms: C_14  and  C_15
REMARK    8  A    between atoms: C_22  and  C_27
REMARK    9  A    between atoms: C_32  and  C_36
REMARK                            x       y       z     vdW  Elec       q    Type
REMARK                         _______ _______ _______ _____ _____    ______ ____
ROOT
ATOM      1  N   UNL     1       3.564   4.688  -4.224  0.00  0.00    -0.279 N 
ATOM      2  C   UNL     1       3.428   4.972  -2.913  0.00  0.00    +0.219 C 
ATOM      3  O   UNL     1       4.393   4.928  -2.180  0.00  0.00    -0.275 OA
ATOM      4  H   UNL     1       2.793   4.724  -4.810  0.00  0.00    +0.155 HD
ENDROOT
BRANCH   1   9
ATOM      5  C   UNL     1       5.144   4.019  -6.040  0.00  0.00    +0.091 A 
ATOM      6  C   UNL     1       6.535   3.700  -6.315  0.00  0.00    -0.021 A 
ATOM      7  C   UNL     1       7.359   3.749  -5.246  0.00  0.00    -0.004 A 
ATOM      8  S   UNL     1       6.317   4.217  -3.893  0.00  0.00    -0.077 S 
ATOM      9  C   UNL     1       4.807   4.346  -4.733  0.00  0.00    +0.086 A 
ATOM     10  C   UNL     1       8.829   3.468  -5.225  0.00  0.00    +0.046 C 
ATOM     11  C   UNL     1       9.344   3.477  -6.671  0.00  0.00    -0.009 C 
ATOM     12  C   UNL     1       8.410   2.623  -7.533  0.00  0.00    +0.008 C 
ATOM     13  C   UNL     1       7.062   3.327  -7.695  0.00  0.00    +0.037 C 
ATOM     14  C   UNL     1      10.759   2.896  -6.716  0.00  0.00    +0.008 C 
BRANCH   5  15
ATOM     15  C   UNL     1       4.136   4.000  -7.102  0.00  0.00    +0.342 C 
ATOM     16  O   UNL     1       3.913   5.006  -7.747  0.00  0.00    -0.245 OA
BRANCH  15  17
ATOM     17  O   UNL     1       3.454   2.866  -7.365  0.00  0.00    -0.461 OA
BRANCH  17  19
ATOM     18  C   UNL     1       1.805   1.550  -8.581  0.00  0.00    +0.048 C 
ATOM     19  C   UNL     1       2.470   2.920  -8.431  0.00  0.00    +0.229 C 
ENDBRANCH  17  19
ENDBRANCH  15  17
ENDBRANCH   5  15
ENDBRANCH   1   9
BRANCH   2  20
ATOM     20  C   UNL     1       2.077   5.344  -2.359  0.00  0.00    +0.120 C 
BRANCH  20  21
ATOM     21  C   UNL     1       2.198   5.614  -0.858  0.00  0.00    +0.146 C 
ATOM     22  C   UNL     1       0.870   6.080  -0.319  0.00  0.00    +0.231 C 
ATOM     23  O   UNL     1       0.693   7.271  -0.171  0.00  0.00    -0.274 OA
ATOM     24  N   UNL     1      -0.116   5.250   0.003  0.00  0.00    -0.284 N 
ATOM     25  C   UNL     1      -0.060   3.859   0.013  0.00  0.00    +0.047 A 
ATOM     26  C   UNL     1      -1.247   3.133   0.026  0.00  0.00    +0.036 A 
ATOM     27  C   UNL     1      -1.219   1.752   0.017  0.00  0.00    +0.057 A 
ATOM     28  C   UNL     1      -0.013   1.076   0.008  0.00  0.00    +0.013 A 
ATOM     29  C   UNL     1       1.175   1.785   0.000  0.00  0.00    +0.017 A 
ATOM     30  C   UNL     1       1.151   3.170   0.004  0.00  0.00    +0.030 A 
ATOM     31  S   UNL     1       2.664   4.082   0.004  0.00  0.00    -0.110 S 
ATOM     32  H   UNL     1      -0.961   5.654   0.256  0.00  0.00    +0.155 HD
BRANCH  27  33
ATOM     33  C   UNL     1      -2.511   0.977   0.023  0.00  0.00    +0.417 C 
ATOM     34  F   UNL     1      -2.233  -0.394   0.018  0.00  0.00    -0.166 F 
ATOM     35  F   UNL     1      -3.243   1.300   1.171  0.00  0.00    -0.166 F 
ATOM     36  F   UNL     1      -3.257   1.306  -1.113  0.00  0.00    -0.166 F 
ENDBRANCH  27  33
ENDBRANCH  20  21
ENDBRANCH   2  20
TORSDOF 7
