REMARK  Name = ZINC16428204
REMARK  13 active torsions:
REMARK  status: ('A' for Active; 'I' for Inactive)
REMARK    1  A    between atoms: C_3  and  N_32
REMARK    2  A    between atoms: C_6  and  N_7
REMARK    3  A    between atoms: C_8  and  C_10
REMARK    4  A    between atoms: C_10  and  C_12
REMARK    5  A    between atoms: C_10  and  N_31
REMARK    6  A    between atoms: C_12  and  S_13
REMARK    7  A    between atoms: S_13  and  S_14
REMARK    8  A    between atoms: S_14  and  C_15
REMARK    9  A    between atoms: C_15  and  C_16
REMARK   10  A    between atoms: C_16  and  C_18
REMARK   11  A    between atoms: C_16  and  N_30
REMARK   12  A    between atoms: N_20  and  C_21
REMARK   13  A    between atoms: C_24  and  N_27
REMARK                            x       y       z     vdW  Elec       q    Type
REMARK                         _______ _______ _______ _____ _____    ______ ____
ROOT
ATOM      1  S   UNL     1       3.195   5.291   1.354  0.00  0.00    -0.094 S 
ENDROOT
BRANCH   1   2
ATOM      2  C   UNL     1       2.891   6.020   2.987  0.00  0.00    +0.074 C 
BRANCH   2   3
ATOM      3  C   UNL     1       4.173   5.956   3.820  0.00  0.00    +0.024 C 
BRANCH   3   5
ATOM      4  N   UNL     1       3.304   5.630   6.113  0.00  0.00    -0.287 N 
ATOM      5  C   UNL     1       3.889   6.448   5.216  0.00  0.00    +0.204 C 
ATOM      6  O   UNL     1       4.187   7.581   5.532  0.00  0.00    -0.277 OA
ATOM      7  H   UNL     1       3.109   4.579   5.854  0.00  0.00    +0.155 HD
BRANCH   4  13
ATOM      8  C   UNL     1       3.003   5.287   8.485  0.00  0.00    +0.025 A 
ATOM      9  C   UNL     1       2.652   5.773   9.729  0.00  0.00    +0.034 A 
ATOM     10  C   UNL     1       2.231   7.083   9.868  0.00  0.00    +0.126 A 
ATOM     11  C   UNL     1       2.165   7.912   8.763  0.00  0.00    +0.034 A 
ATOM     12  C   UNL     1       2.520   7.433   7.517  0.00  0.00    +0.025 A 
ATOM     13  C   UNL     1       2.943   6.118   7.374  0.00  0.00    +0.033 A 
BRANCH  10  14
ATOM     14  N   UNL     1       1.850   7.599  11.202  0.00  0.00    +0.056 N 
ATOM     15  O   UNL     1       1.480   8.753  11.325  0.00  0.00    -0.126 OA
ATOM     16  O   UNL     1       1.908   6.871  12.176  0.00  0.00    -0.126 OA
ENDBRANCH  10  14
ENDBRANCH   4  13
ENDBRANCH   3   5
BRANCH   3  17
ATOM     17  N   UNL     1       5.202   6.802   3.203  0.00  0.00    +0.386 N 
ATOM     18  H   UNL     1       5.409   6.443   2.184  0.00  0.00    -0.089 HD
ATOM     19  H   UNL     1       6.123   6.756   3.802  0.00  0.00    -0.089 HD
ATOM     20  H   UNL     1       4.845   7.842   3.159  0.00  0.00    -0.089 HD
ENDBRANCH   3  17
ENDBRANCH   2   3
ENDBRANCH   1   2
BRANCH   1  21
ATOM     21  S   UNL     1       3.413   3.289   1.737  0.00  0.00    -0.094 S 
BRANCH  21  22
ATOM     22  C   UNL     1       1.713   2.657   1.750  0.00  0.00    +0.074 C 
BRANCH  22  23
ATOM     23  C   UNL     1       1.147   2.687   0.329  0.00  0.00    +0.024 C 
BRANCH  23  24
ATOM     24  C   UNL     1      -0.265   2.162   0.340  0.00  0.00    +0.204 C 
ATOM     25  O   UNL     1      -1.200   2.935   0.321  0.00  0.00    -0.277 OA
ATOM     26  N   UNL     1      -0.490   0.833   0.366  0.00  0.00    -0.287 N 
ATOM     27  H   UNL     1       0.354   0.131   0.302  0.00  0.00    +0.155 HD
BRANCH  26  28
ATOM     28  C   UNL     1      -1.798   0.347   0.473  0.00  0.00    +0.033 A 
ATOM     29  C   UNL     1      -2.052  -0.813   1.194  0.00  0.00    +0.025 A 
ATOM     30  C   UNL     1      -3.344  -1.288   1.302  0.00  0.00    +0.034 A 
ATOM     31  C   UNL     1      -4.383  -0.616   0.684  0.00  0.00    +0.126 A 
ATOM     32  C   UNL     1      -4.133   0.536  -0.039  0.00  0.00    +0.034 A 
ATOM     33  C   UNL     1      -2.843   1.019  -0.146  0.00  0.00    +0.025 A 
BRANCH  31  34
ATOM     34  N   UNL     1      -5.766  -1.130   0.798  0.00  0.00    +0.056 N 
ATOM     35  O   UNL     1      -6.683  -0.539   0.255  0.00  0.00    -0.126 OA
ATOM     36  O   UNL     1      -5.989  -2.145   1.434  0.00  0.00    -0.126 OA
ENDBRANCH  31  34
ENDBRANCH  26  28
ENDBRANCH  23  24
BRANCH  23  37
ATOM     37  N   UNL     1       1.152   4.068  -0.171  0.00  0.00    +0.386 N 
ATOM     38  H   UNL     1       0.745   4.090  -1.193  0.00  0.00    -0.089 HD
ATOM     39  H   UNL     1       2.183   4.452  -0.179  0.00  0.00    -0.089 HD
ATOM     40  H   UNL     1       0.532   4.698   0.484  0.00  0.00    -0.089 HD
ENDBRANCH  23  37
ENDBRANCH  22  23
ENDBRANCH  21  22
ENDBRANCH   1  21
TORSDOF 13
