REMARK  Name = ZINC16761780
REMARK  10 active torsions:
REMARK  status: ('A' for Active; 'I' for Inactive)
REMARK    1  A    between atoms: C_1  and  C_2
REMARK    2  A    between atoms: C_5  and  N_8
REMARK    3  A    between atoms: C_9  and  C_29
REMARK    4  A    between atoms: C_12  and  S_13
REMARK    5  A    between atoms: S_13  and  C_14
REMARK    6  A    between atoms: C_14  and  C_15
REMARK    7  A    between atoms: N_17  and  C_18
REMARK    8  A    between atoms: N_17  and  C_23
REMARK    9  A    between atoms: C_18  and  C_19
REMARK   10  A    between atoms: C_19  and  C_20
REMARK                            x       y       z     vdW  Elec       q    Type
REMARK                         _______ _______ _______ _____ _____    ______ ____
ROOT
ATOM      1  N   UNL     1      -0.173  -0.735  -1.359  0.00  0.00    -0.270 N 
ATOM      2  C   UNL     1       0.788   0.226  -1.583  0.00  0.00    +0.172 A 
ATOM      3  N   UNL     1       0.249   1.386  -1.285  0.00  0.00    -0.128 NA
ATOM      4  N   UNL     1      -0.964   1.220  -0.896  0.00  0.00    -0.122 NA
ATOM      5  C   UNL     1      -1.277  -0.056  -0.921  0.00  0.00    +0.197 A 
ENDROOT
BRANCH   1  10
ATOM      6  C   UNL     1       0.339  -6.339  -2.101  0.00  0.00    +0.044 C 
ATOM      7  C   UNL     1       0.203  -4.851  -1.904  0.00  0.00    -0.050 A 
ATOM      8  C   UNL     1      -0.676  -4.128  -2.690  0.00  0.00    +0.005 A 
ATOM      9  C   UNL     1      -0.802  -2.764  -2.511  0.00  0.00    +0.026 A 
ATOM     10  C   UNL     1      -0.047  -2.119  -1.542  0.00  0.00    +0.051 A 
ATOM     11  C   UNL     1       0.838  -2.847  -0.758  0.00  0.00    +0.026 A 
ATOM     12  C   UNL     1       0.957  -4.211  -0.937  0.00  0.00    +0.005 A 
ENDBRANCH   1  10
BRANCH   2  13
ATOM     13  C   UNL     1       2.166  -0.005  -2.066  0.00  0.00    +0.055 A 
ATOM     14  C   UNL     1       2.393  -0.838  -3.163  0.00  0.00    +0.014 A 
ATOM     15  C   UNL     1       3.681  -1.049  -3.609  0.00  0.00    +0.001 A 
ATOM     16  C   UNL     1       4.748  -0.438  -2.973  0.00  0.00    +0.003 A 
ATOM     17  C   UNL     1       4.532   0.388  -1.885  0.00  0.00    +0.039 A 
ATOM     18  C   UNL     1       3.246   0.614  -1.431  0.00  0.00    +0.134 A 
ATOM     19  F   UNL     1       3.034   1.426  -0.372  0.00  0.00    -0.205 F 
ENDBRANCH   2  13
BRANCH   5  20
ATOM     20  S   UNL     1      -2.829  -0.760  -0.473  0.00  0.00    -0.076 S 
BRANCH  20  21
ATOM     21  C   UNL     1      -3.736   0.739  -0.019  0.00  0.00    +0.173 C 
BRANCH  21  22
ATOM     22  C   UNL     1      -5.132   0.371   0.411  0.00  0.00    +0.230 C 
ATOM     23  O   UNL     1      -5.449  -0.795   0.507  0.00  0.00    -0.274 OA
ATOM     24  N   UNL     1      -6.029   1.338   0.688  0.00  0.00    -0.270 N 
BRANCH  24  25
ATOM     25  C   UNL     1      -5.636   2.681   0.674  0.00  0.00    +0.036 A 
ATOM     26  C   UNL     1      -4.767   3.163   1.644  0.00  0.00    +0.023 A 
ATOM     27  C   UNL     1      -4.377   4.487   1.623  0.00  0.00    +0.002 A 
ATOM     28  C   UNL     1      -4.859   5.337   0.645  0.00  0.00    +0.000 A 
ATOM     29  C   UNL     1      -5.730   4.862  -0.319  0.00  0.00    +0.002 A 
ATOM     30  C   UNL     1      -6.120   3.537  -0.307  0.00  0.00    +0.023 A 
ENDBRANCH  24  25
BRANCH  24  31
ATOM     31  C   UNL     1      -7.414   0.984   1.005  0.00  0.00    +0.123 C 
BRANCH  31  32
ATOM     32  C   UNL     1      -7.555   0.775   2.515  0.00  0.00    +0.115 C 
BRANCH  32  33
ATOM     33  C   UNL     1      -8.980   0.410   2.841  0.00  0.00    +0.212 C 
ATOM     34  O   UNL     1      -9.803   0.325   1.953  0.00  0.00    -0.276 OA
ATOM     35  N   UNL     1      -9.341   0.179   4.119  0.00  0.00    -0.329 N 
ATOM     36  H   UNL     1      -8.683   0.247   4.828  0.00  0.00    +0.145 HD
ATOM     37  H   UNL     1     -10.259  -0.056   4.328  0.00  0.00    +0.145 HD
ENDBRANCH  32  33
ENDBRANCH  31  32
ENDBRANCH  24  31
ENDBRANCH  21  22
ENDBRANCH  20  21
ENDBRANCH   5  20
TORSDOF 9
