REMARK  Name = ZINC36500315
REMARK  11 active torsions:
REMARK  status: ('A' for Active; 'I' for Inactive)
REMARK    1  A    between atoms: C_1  and  C_2
REMARK    2  A    between atoms: C_5  and  S_8
REMARK    3  A    between atoms: S_8  and  C_11
REMARK    4  A    between atoms: C_11  and  N_12
REMARK    5  A    between atoms: C_13  and  C_15
REMARK    6  A    between atoms: C_15  and  C_17
REMARK    7  A    between atoms: C_15  and  N_23
REMARK    8  A    between atoms: N_23  and  C_24
REMARK    9  A    between atoms: C_24  and  C_25
REMARK   10  A    between atoms: C_30  and  C_32
REMARK   11  A    between atoms: C_35  and  O_38
REMARK                            x       y       z     vdW  Elec       q    Type
REMARK                         _______ _______ _______ _____ _____    ______ ____
ROOT
ATOM      1  C   UNL     1       5.070  -5.777   3.715  0.00  0.00    +0.193 C 
ENDROOT
BRANCH   1   2
ATOM      2  C   UNL     1       6.404  -6.108   4.334  0.00  0.00    -0.018 A 
ATOM      3  C   UNL     1       6.639  -7.376   4.830  0.00  0.00    +0.006 A 
ATOM      4  C   UNL     1       7.863  -7.679   5.398  0.00  0.00    +0.000 A 
ATOM      5  C   UNL     1       8.850  -6.715   5.469  0.00  0.00    +0.000 A 
ATOM      6  C   UNL     1       8.615  -5.447   4.971  0.00  0.00    +0.000 A 
ATOM      7  C   UNL     1       7.393  -5.144   4.400  0.00  0.00    +0.006 A 
ENDBRANCH   1   2
BRANCH   1   9
ATOM      8  N   UNL     1       5.311  -5.749   1.253  0.00  0.00    -0.294 N 
ATOM      9  C   UNL     1       4.967  -6.433   2.362  0.00  0.00    +0.239 C 
ATOM     10  O   UNL     1       4.575  -7.577   2.271  0.00  0.00    -0.273 OA
ATOM     11  H   UNL     1       5.625  -4.834   1.326  0.00  0.00    +0.150 HD
BRANCH   8  12
ATOM     12  C   UNL     1       5.212  -6.387  -0.062  0.00  0.00    +0.278 C 
BRANCH  12  13
ATOM     13  S   UNL     1       3.619  -5.964  -0.820  0.00  0.00    +0.013 S 
ATOM     14  O   UNL     1       2.567  -6.147   0.118  0.00  0.00    -0.168 OA
ATOM     15  O   UNL     1       3.533  -6.524  -2.123  0.00  0.00    -0.168 OA
BRANCH  13  20
ATOM     16  C   UNL     1       3.859  -0.003  -1.719  0.00  0.00    +0.044 C 
ATOM     17  C   UNL     1       3.799  -1.492  -1.494  0.00  0.00    -0.050 A 
ATOM     18  C   UNL     1       4.241  -2.357  -2.478  0.00  0.00    +0.005 A 
ATOM     19  C   UNL     1       4.186  -3.723  -2.271  0.00  0.00    +0.027 A 
ATOM     20  C   UNL     1       3.690  -4.223  -1.082  0.00  0.00    +0.090 A 
ATOM     21  C   UNL     1       3.249  -3.358  -0.099  0.00  0.00    +0.027 A 
ATOM     22  C   UNL     1       3.307  -1.992  -0.303  0.00  0.00    +0.005 A 
ENDBRANCH  13  20
ENDBRANCH  12  13
ENDBRANCH   8  12
ENDBRANCH   1   9
BRANCH   1  23
ATOM     23  N   UNL     1       3.995  -6.269   4.579  0.00  0.00    -0.275 N 
ATOM     24  C   UNL     1       3.496  -5.480   5.551  0.00  0.00    +0.248 C 
ATOM     25  O   UNL     1       2.628  -5.901   6.291  0.00  0.00    -0.270 OA
BRANCH  24  26
ATOM     26  C   UNL     1       4.003  -4.103   5.716  0.00  0.00    +0.037 A 
ATOM     27  C   UNL     1       4.149  -3.272   4.603  0.00  0.00    +0.016 A 
ATOM     28  C   UNL     1       4.622  -1.989   4.761  0.00  0.00    +0.046 A 
ATOM     29  C   UNL     1       4.955  -1.520   6.027  0.00  0.00    +0.117 A 
ATOM     30  C   UNL     1       4.811  -2.344   7.137  0.00  0.00    +0.046 A 
ATOM     31  C   UNL     1       4.333  -3.626   6.987  0.00  0.00    +0.016 A 
BRANCH  29  32
ATOM     32  O   UNL     1       5.421  -0.255   6.178  0.00  0.00    -0.507 OA
ATOM     33  H   UNL     1       4.730   0.404   6.332  0.00  0.00    +0.292 HD
ENDBRANCH  29  32
ENDBRANCH  24  26
BRANCH  23  34
ATOM     34  C   UNL     1       3.462  -7.620   4.388  0.00  0.00    +0.183 C 
BRANCH  34  35
ATOM     35  C   UNL     1       2.133  -7.541   3.681  0.00  0.00    +0.122 A 
ATOM     36  C   UNL     1       1.952  -7.498   2.349  0.00  0.00    +0.046 A 
ATOM     37  C   UNL     1       0.557  -7.427   2.128  0.00  0.00    +0.041 A 
ATOM     38  C   UNL     1      -0.031  -7.432   3.338  0.00  0.00    +0.195 A 
ATOM     39  O   UNL     1       0.928  -7.506   4.275  0.00  0.00    -0.466 OA
ENDBRANCH  34  35
ENDBRANCH  23  34
ENDBRANCH   1  23
TORSDOF 10
