REMARK  Name = ZINC09611429
REMARK  10 active torsions:
REMARK  status: ('A' for Active; 'I' for Inactive)
REMARK    1  A    between atoms: C_1  and  C_2
REMARK    2  A    between atoms: C_2  and  O_3
REMARK    3  A    between atoms: O_3  and  C_4
REMARK    4  A    between atoms: C_4  and  C_6
REMARK    5  A    between atoms: C_13  and  C_15
REMARK    6  A    between atoms: C_15  and  C_17
REMARK    7  A    between atoms: C_15  and  N_24
REMARK    8  A    between atoms: C_17  and  C_18
REMARK    9  A    between atoms: N_24  and  S_25
REMARK   10  A    between atoms: S_25  and  C_28
REMARK                            x       y       z     vdW  Elec       q    Type
REMARK                         _______ _______ _______ _____ _____    ______ ____
ROOT
ATOM      1  C   UNL     1       0.093   1.336   0.326  0.00  0.00    +0.166 C 
ENDROOT
BRANCH   1   8
ATOM      2  C   UNL     1      -0.684   0.436  -4.309  0.00  0.00    +0.115 C 
ATOM      3  C   UNL     1       0.679  -0.251  -4.417  0.00  0.00    +0.018 C 
ATOM      4  C   UNL     1       1.150  -0.677  -3.025  0.00  0.00    +0.020 C 
ATOM      5  C   UNL     1       1.305   0.568  -2.139  0.00  0.00    +0.108 C 
ATOM      6  N   UNL     1       0.035   1.308  -2.147  0.00  0.00    -0.299 N 
ATOM      7  C   UNL     1      -0.553   1.689  -3.438  0.00  0.00    +0.122 C 
ATOM      8  C   UNL     1      -0.575   1.635  -0.991  0.00  0.00    +0.235 C 
ATOM      9  O   UNL     1      -1.663   2.171  -1.010  0.00  0.00    -0.274 OA
BRANCH   2  10
ATOM     10  C   UNL     1      -1.161   0.826  -5.684  0.00  0.00    +0.312 C 
ATOM     11  O   UNL     1      -1.374   1.987  -5.942  0.00  0.00    -0.250 OA
BRANCH  10  12
ATOM     12  O   UNL     1      -1.349  -0.115  -6.622  0.00  0.00    -0.465 OA
BRANCH  12  14
ATOM     13  C   UNL     1      -1.965  -0.872  -8.853  0.00  0.00    +0.048 C 
ATOM     14  C   UNL     1      -1.810   0.334  -7.924  0.00  0.00    +0.229 C 
ENDBRANCH  12  14
ENDBRANCH  10  12
ENDBRANCH   2  10
ENDBRANCH   1   8
BRANCH   1  15
ATOM     15  N   UNL     1      -0.902   1.380   1.401  0.00  0.00    -0.178 NA
ATOM     16  H   UNL     1      -1.132   2.227   1.813  0.00  0.00    +0.149 HD
BRANCH  15  17
ATOM     17  S   UNL     1      -1.633  -0.016   1.910  0.00  0.00    +0.059 S 
ATOM     18  O   UNL     1      -2.525   0.351   2.953  0.00  0.00    -0.153 OA
ATOM     19  O   UNL     1      -2.066  -0.697   0.741  0.00  0.00    -0.153 OA
BRANCH  17  20
ATOM     20  C   UNL     1      -0.385  -1.020   2.644  0.00  0.00    +0.106 A 
ATOM     21  C   UNL     1       0.376  -1.863   1.855  0.00  0.00    +0.030 A 
ATOM     22  C   UNL     1       1.358  -2.648   2.426  0.00  0.00    +0.025 A 
ATOM     23  C   UNL     1       1.574  -2.597   3.797  0.00  0.00    +0.037 A 
ATOM     24  C   UNL     1       0.806  -1.753   4.587  0.00  0.00    -0.024 A 
ATOM     25  C   UNL     1      -0.172  -0.967   4.010  0.00  0.00    +0.034 A 
ATOM     26  C   UNL     1       1.041  -1.697   6.074  0.00  0.00    +0.046 C 
ATOM     27  C   UNL     1       1.456  -3.079   6.578  0.00  0.00    +0.101 C 
ATOM     28  C   UNL     1       2.547  -3.638   5.705  0.00  0.00    +0.218 C 
ATOM     29  O   UNL     1       3.421  -4.317   6.200  0.00  0.00    -0.275 OA
ATOM     30  N   UNL     1       2.564  -3.392   4.383  0.00  0.00    -0.285 N 
ATOM     31  H   UNL     1       3.267  -3.769   3.832  0.00  0.00    +0.155 HD
ENDBRANCH  17  20
ENDBRANCH  15  17
ENDBRANCH   1  15
BRANCH   1  32
ATOM     32  C   UNL     1       1.181   2.378   0.595  0.00  0.00    +0.065 C 
BRANCH  32  33
ATOM     33  C   UNL     1       1.939   2.004   1.842  0.00  0.00    -0.045 A 
ATOM     34  C   UNL     1       1.583   2.554   3.059  0.00  0.00    +0.004 A 
ATOM     35  C   UNL     1       2.276   2.207   4.204  0.00  0.00    +0.000 A 
ATOM     36  C   UNL     1       3.330   1.316   4.130  0.00  0.00    +0.000 A 
ATOM     37  C   UNL     1       3.689   0.770   2.913  0.00  0.00    +0.000 A 
ATOM     38  C   UNL     1       2.994   1.113   1.768  0.00  0.00    +0.004 A 
ENDBRANCH  32  33
ENDBRANCH   1  32
TORSDOF 9
