REMARK  Name = ZINC64151839
REMARK  8 active torsions:
REMARK  status: ('A' for Active; 'I' for Inactive)
REMARK    1  A    between atoms: C_1  and  C_2
REMARK    2  A    between atoms: C_11  and  C_13
REMARK    3  A    between atoms: C_19  and  C_21
REMARK    4  A    between atoms: C_21  and  O_23
REMARK    5  A    between atoms: O_23  and  C_24
REMARK    6  A    between atoms: N_25  and  C_26
REMARK    7  A    between atoms: C_26  and  C_27
REMARK    8  A    between atoms: C_27  and  C_28
REMARK                            x       y       z     vdW  Elec       q    Type
REMARK                         _______ _______ _______ _____ _____    ______ ____
ROOT
ATOM      1  C   UNL     1      -0.019   1.526   0.010  0.00  0.00    +0.014 C 
ATOM      2  C   UNL     1       0.002  -0.004   0.002  0.00  0.00    +0.044 C 
ATOM      3  C   UNL     1      -1.415  -0.515   0.004  0.00  0.00    +0.028 A 
ATOM      4  C   UNL     1      -2.294  -0.612  -1.088  0.00  0.00    +0.126 A 
ATOM      5  N   UNL     1      -3.523  -1.075  -0.903  0.00  0.00    -0.221 NA
ATOM      6  C   UNL     1      -3.950  -1.449   0.286  0.00  0.00    +0.224 A 
ATOM      7  N   UNL     1      -3.162  -1.384   1.342  0.00  0.00    -0.229 NA
ATOM      8  C   UNL     1      -1.920  -0.941   1.230  0.00  0.00    +0.106 A 
ATOM      9  S   UNL     1      -0.601  -0.761   2.409  0.00  0.00    -0.092 S 
ATOM     10  C   UNL     1       0.790  -0.505   1.235  0.00  0.00    +0.146 C 
ATOM     11  N   UNL     1      -1.878  -0.225  -2.353  0.00  0.00    -0.328 N 
ATOM     12  H   UNL     1      -0.979   0.114  -2.485  0.00  0.00    +0.147 HD
ENDROOT
BRANCH  10  13
ATOM     13  C   UNL     1       1.506  -1.798   0.941  0.00  0.00    +0.230 C 
ATOM     14  O   UNL     1       1.044  -2.577   0.135  0.00  0.00    -0.274 OA
ATOM     15  N   UNL     1       2.659  -2.088   1.574  0.00  0.00    -0.287 N 
ATOM     16  C   UNL     1       3.326  -1.239   2.578  0.00  0.00    +0.109 C 
ATOM     17  C   UNL     1       4.816  -1.660   2.526  0.00  0.00    +0.021 C 
ATOM     18  C   UNL     1       4.700  -3.189   2.292  0.00  0.00    +0.035 C 
ATOM     19  C   UNL     1       3.458  -3.308   1.384  0.00  0.00    +0.185 C 
BRANCH  19  20
ATOM     20  C   UNL     1       2.647  -4.517   1.775  0.00  0.00    +0.328 C 
ATOM     21  O   UNL     1       1.515  -4.382   2.175  0.00  0.00    -0.249 OA
BRANCH  20  22
ATOM     22  O   UNL     1       3.184  -5.744   1.681  0.00  0.00    -0.467 OA
ATOM     23  C   UNL     1       2.359  -6.845   2.068  0.00  0.00    +0.280 C 
ENDBRANCH  20  22
ENDBRANCH  19  20
ENDBRANCH  10  13
BRANCH  11  24
ATOM     24  C   UNL     1      -2.797  -0.327  -3.489  0.00  0.00    +0.107 C 
BRANCH  24  25
ATOM     25  C   UNL     1      -2.096   0.160  -4.758  0.00  0.00    +0.052 C 
BRANCH  25  26
ATOM     26  C   UNL     1      -3.041   0.055  -5.927  0.00  0.00    -0.040 C 
ATOM     27  C   UNL     1      -3.829   1.034  -6.426  0.00  0.00    -0.001 A 
ATOM     28  C   UNL     1      -4.034   2.437  -6.045  0.00  0.00    +0.010 A 
ATOM     29  C   UNL     1      -4.911   3.187  -6.750  0.00  0.00    +0.001 A 
ATOM     30  C   UNL     1      -5.627   2.660  -7.834  0.00  0.00    +0.002 A 
ATOM     31  C   UNL     1      -5.492   1.381  -8.244  0.00  0.00    +0.026 A 
ATOM     32  C   UNL     1      -4.597   0.502  -7.574  0.00  0.00    +0.043 A 
ATOM     33  N   UNL     1      -4.295  -0.758  -7.777  0.00  0.00    -0.380 N 
ATOM     34  C   UNL     1      -3.296  -1.165  -6.783  0.00  0.00    +0.144 C 
ATOM     35  H   UNL     1      -4.667  -1.324  -8.471  0.00  0.00    +0.160 HD
ENDBRANCH  25  26
ENDBRANCH  24  25
ENDBRANCH  11  24
TORSDOF 6
