REMARK  Name = ZINC67204750
REMARK  8 active torsions:
REMARK  status: ('A' for Active; 'I' for Inactive)
REMARK    1  A    between atoms: C_1  and  C_2
REMARK    2  A    between atoms: C_2  and  O_3
REMARK    3  A    between atoms: O_3  and  C_4
REMARK    4  A    between atoms: C_4  and  C_6
REMARK    5  A    between atoms: C_7  and  C_21
REMARK    6  A    between atoms: C_12  and  C_14
REMARK    7  A    between atoms: C_21  and  N_22
REMARK    8  A    between atoms: N_25  and  C_28
REMARK                            x       y       z     vdW  Elec       q    Type
REMARK                         _______ _______ _______ _____ _____    ______ ____
ROOT
ATOM      1  C   UNL     1       1.244  -2.347  -2.557  0.00  0.00    +0.079 C 
ATOM      2  C   UNL     1       1.621  -3.643  -2.608  0.00  0.00    +0.038 C 
ATOM      3  N   UNL     1       2.420  -4.106  -3.614  0.00  0.00    -0.271 N 
ATOM      4  C   UNL     1       2.884  -3.337  -4.607  0.00  0.00    +0.304 C 
ATOM      5  O   UNL     1       3.590  -3.840  -5.459  0.00  0.00    -0.252 OA
ATOM      6  N   UNL     1       2.594  -2.023  -4.693  0.00  0.00    -0.288 N 
ATOM      7  C   UNL     1       1.733  -1.427  -3.658  0.00  0.00    +0.144 C 
ATOM      8  H   UNL     1       2.665  -5.044  -3.608  0.00  0.00    +0.156 HD
ATOM      9  H   UNL     1       2.942  -1.485  -5.421  0.00  0.00    +0.151 HD
ENDROOT
BRANCH   7  10
ATOM     10  C   UNL     1       2.499  -0.300  -3.015  0.00  0.00    -0.022 A 
ATOM     11  C   UNL     1       3.811  -0.492  -2.622  0.00  0.00    +0.007 A 
ATOM     12  C   UNL     1       4.514   0.541  -2.032  0.00  0.00    +0.020 A 
ATOM     13  C   UNL     1       3.906   1.768  -1.835  0.00  0.00    +0.041 A 
ATOM     14  C   UNL     1       2.594   1.960  -2.229  0.00  0.00    +0.020 A 
ATOM     15  C   UNL     1       1.893   0.927  -2.824  0.00  0.00    +0.007 A 
ATOM     16 CL   UNL     1       4.789   3.066  -1.094  0.00  0.00    -0.084 Cl
ENDBRANCH   7  10
BRANCH   1  17
ATOM     17  C   UNL     1       0.416  -1.866  -1.516  0.00  0.00    +0.339 C 
ATOM     18  O   UNL     1      -0.063  -2.643  -0.711  0.00  0.00    -0.245 OA
BRANCH  17  19
ATOM     19  O   UNL     1       0.157  -0.545  -1.415  0.00  0.00    -0.462 OA
BRANCH  19  21
ATOM     20  C   UNL     1      -0.865   1.389  -0.388  0.00  0.00    +0.048 C 
ATOM     21  C   UNL     1      -0.687  -0.130  -0.339  0.00  0.00    +0.229 C 
ENDBRANCH  19  21
ENDBRANCH  17  19
ENDBRANCH   1  17
BRANCH   2  22
ATOM     22  C   UNL     1       1.153  -4.593  -1.536  0.00  0.00    +0.136 C 
BRANCH  22  23
ATOM     23  N   UNL     1      -0.177  -5.110  -1.886  0.00  0.00    -0.294 NA
ATOM     24  C   UNL     1      -0.097  -6.045  -3.016  0.00  0.00    +0.103 C 
ATOM     25  C   UNL     1      -1.513  -6.420  -3.466  0.00  0.00    +0.120 C 
ATOM     26  N   UNL     1      -2.258  -6.916  -2.299  0.00  0.00    -0.326 N 
ATOM     27  C   UNL     1      -2.268  -6.095  -1.079  0.00  0.00    +0.120 C 
ATOM     28  C   UNL     1      -0.823  -5.733  -0.723  0.00  0.00    +0.103 C 
BRANCH  26  29
ATOM     29  C   UNL     1      -2.938  -8.136  -2.349  0.00  0.00    +0.048 A 
ATOM     30  C   UNL     1      -2.292  -9.309  -1.979  0.00  0.00    +0.024 A 
ATOM     31  C   UNL     1      -2.967 -10.512  -2.028  0.00  0.00    +0.002 A 
ATOM     32  C   UNL     1      -4.285 -10.552  -2.445  0.00  0.00    +0.002 A 
ATOM     33  C   UNL     1      -4.932  -9.387  -2.815  0.00  0.00    +0.022 A 
ATOM     34  C   UNL     1      -4.264  -8.178  -2.762  0.00  0.00    +0.062 A 
ATOM     35 CL   UNL     1      -5.079  -6.715  -3.219  0.00  0.00    -0.082 Cl
ENDBRANCH  26  29
ENDBRANCH  22  23
ENDBRANCH   2  22
TORSDOF 7
