REMARK  Name = ZINC38649734
REMARK  11 active torsions:
REMARK  status: ('A' for Active; 'I' for Inactive)
REMARK    1  A    between atoms: C_1  and  C_2
REMARK    2  A    between atoms: C_2  and  C_3
REMARK    3  A    between atoms: C_2  and  C_4
REMARK    4  A    between atoms: C_2  and  C_5
REMARK    5  A    between atoms: C_8  and  C_11
REMARK    6  A    between atoms: C_16  and  O_25
REMARK    7  A    between atoms: C_20  and  N_24
REMARK    8  A    between atoms: C_21  and  C_22
REMARK    9  A    between atoms: O_25  and  C_26
REMARK   10  A    between atoms: C_26  and  C_28
REMARK   11  A    between atoms: C_29  and  C_30
REMARK                            x       y       z     vdW  Elec       q    Type
REMARK                         _______ _______ _______ _____ _____    ______ ____
ROOT
ATOM      1  C   UNL     1       2.657  -1.878  -4.794  0.00  0.00    +0.098 C 
ATOM      2  C   UNL     1       3.117  -0.692  -5.598  0.00  0.00    +0.008 A 
ATOM      3  C   UNL     1       2.220  -0.043  -6.429  0.00  0.00    +0.012 A 
ATOM      4  C   UNL     1       2.624   1.046  -7.174  0.00  0.00    +0.047 A 
ATOM      5  C   UNL     1       3.935   1.495  -7.093  0.00  0.00    +0.135 A 
ATOM      6  C   UNL     1       4.836   0.849  -6.262  0.00  0.00    +0.093 A 
ATOM      7  C   UNL     1       4.427  -0.247  -5.513  0.00  0.00    +0.138 A 
ATOM      8  O   UNL     1       5.321  -0.869  -4.705  0.00  0.00    -0.441 OA
ATOM      9  C   UNL     1       5.084  -2.122  -4.282  0.00  0.00    +0.199 C 
ATOM     10  C   UNL     1       3.843  -2.657  -4.298  0.00  0.00    +0.098 C 
ENDROOT
BRANCH   1  14
ATOM     11  C   UNL     1       0.363  -0.522  -1.455  0.00  0.00    -0.042 A 
ATOM     12  C   UNL     1      -0.212  -1.356  -2.396  0.00  0.00    +0.004 A 
ATOM     13  C   UNL     1       0.530  -1.795  -3.477  0.00  0.00    +0.005 A 
ATOM     14  C   UNL     1       1.848  -1.399  -3.616  0.00  0.00    -0.035 A 
ATOM     15  C   UNL     1       2.422  -0.565  -2.676  0.00  0.00    +0.005 A 
ATOM     16  C   UNL     1       1.679  -0.123  -1.598  0.00  0.00    +0.004 A 
BRANCH  11  18
ATOM     17  C   UNL     1      -0.524   1.484  -0.299  0.00  0.00    +0.015 C 
ATOM     18  C   UNL     1      -0.447  -0.044  -0.277  0.00  0.00    -0.013 C 
ATOM     19  C   UNL     1       0.222  -0.503   1.020  0.00  0.00    +0.015 C 
ATOM     20  C   UNL     1      -1.858  -0.628  -0.358  0.00  0.00    +0.015 C 
ENDBRANCH  11  18
ENDBRANCH   1  14
BRANCH   9  21
ATOM     21  N   UNL     1       6.131  -2.879  -3.820  0.00  0.00    -0.328 N 
ATOM     22  H   UNL     1       7.027  -2.507  -3.801  0.00  0.00    +0.145 HD
ATOM     23  H   UNL     1       5.976  -3.785  -3.511  0.00  0.00    +0.145 HD
ENDBRANCH   9  21
BRANCH  10  24
ATOM     24  C   UNL     1       3.657  -3.998  -3.833  0.00  0.00    +0.101 C 
ATOM     25  N   UNL     1       3.509  -5.062  -3.463  0.00  0.00    -0.191 NA
ENDBRANCH  10  24
BRANCH   5  26
ATOM     26  O   UNL     1       4.334   2.567  -7.826  0.00  0.00    -0.423 OA
BRANCH  26  27
ATOM     27  C   UNL     1       3.848   3.780  -7.492  0.00  0.00    +0.337 C 
ATOM     28  O   UNL     1       3.161   3.907  -6.496  0.00  0.00    -0.245 OA
BRANCH  27  29
ATOM     29  C   UNL     1       4.147   4.943  -8.325  0.00  0.00    +0.092 C 
ATOM     30  C   UNL     1       3.661   6.157  -7.991  0.00  0.00    +0.016 C 
BRANCH  30  31
ATOM     31  C   UNL     1       3.962   7.327  -8.830  0.00  0.00    -0.006 A 
ATOM     32  C   UNL     1       4.747   7.185  -9.979  0.00  0.00    +0.009 A 
ATOM     33  C   UNL     1       5.025   8.286 -10.760  0.00  0.00    +0.001 A 
ATOM     34  C   UNL     1       4.530   9.531 -10.411  0.00  0.00    +0.001 A 
ATOM     35  C   UNL     1       3.753   9.681  -9.276  0.00  0.00    +0.020 A 
ATOM     36  C   UNL     1       3.460   8.587  -8.486  0.00  0.00    +0.048 A 
ATOM     37 CL   UNL     1       2.478   8.776  -7.067  0.00  0.00    -0.083 Cl
ENDBRANCH  30  31
ENDBRANCH  27  29
ENDBRANCH  26  27
ENDBRANCH   5  26
TORSDOF 8
