REMARK  Name = ZINC65265830
REMARK  6 active torsions:
REMARK  status: ('A' for Active; 'I' for Inactive)
REMARK    1  A    between atoms: C_1  and  O_2
REMARK    2  A    between atoms: O_2  and  C_3
REMARK    3  A    between atoms: C_3  and  C_4
REMARK    4  A    between atoms: C_4  and  N_5
REMARK    5  A    between atoms: N_19  and  S_21
REMARK    6  A    between atoms: S_21  and  C_24
REMARK                            x       y       z     vdW  Elec       q    Type
REMARK                         _______ _______ _______ _____ _____    ______ ____
ROOT
ATOM      1  N   UNL     1       0.291  -2.493   0.807  0.00  0.00    -0.373 N 
ATOM      2  C   UNL     1       0.290  -3.751   1.111  0.00  0.00    +0.094 C 
ATOM      3  N   UNL     1      -0.059  -4.715   0.197  0.00  0.00    -0.303 N 
ATOM      4  C   UNL     1       0.936  -5.284  -0.593  0.00  0.00    +0.037 A 
ATOM      5  C   UNL     1       0.729  -5.452  -1.955  0.00  0.00    +0.023 A 
ATOM      6  C   UNL     1       1.707  -6.030  -2.739  0.00  0.00    +0.002 A 
ATOM      7  C   UNL     1       2.892  -6.441  -2.154  0.00  0.00    +0.000 A 
ATOM      8  C   UNL     1       3.099  -6.269  -0.803  0.00  0.00    +0.007 A 
ATOM      9  C   UNL     1       2.127  -5.681   0.001  0.00  0.00    -0.012 A 
ATOM     10  C   UNL     1       2.465  -5.506   1.460  0.00  0.00    +0.119 C 
ATOM     11  N   UNL     1       1.281  -5.567   2.328  0.00  0.00    -0.299 NA
ATOM     12  C   UNL     1       0.674  -4.229   2.470  0.00  0.00    +0.089 C 
ATOM     13  C   UNL     1      -0.532  -4.287   3.423  0.00  0.00    +0.048 C 
ATOM     14  C   UNL     1       0.126  -4.153   4.815  0.00  0.00    +0.112 C 
ATOM     15  N   UNL     1       1.448  -3.539   4.618  0.00  0.00    -0.174 NA
ATOM     16  C   UNL     1       1.635  -3.265   3.179  0.00  0.00    +0.139 C 
ATOM     17  H   UNL     1       0.546  -1.834   1.472  0.00  0.00    +0.161 HD
ATOM     18  H   UNL     1       0.612  -6.237   1.979  0.00  0.00    +0.123 HD
ATOM     19  H   UNL     1      -0.983  -4.994   0.103  0.00  0.00    +0.153 HD
ENDROOT
BRANCH  15  20
ATOM     20  S   UNL     1       2.546  -3.210   5.813  0.00  0.00    +0.062 S 
ATOM     21  O   UNL     1       3.265  -2.057   5.397  0.00  0.00    -0.153 OA
ATOM     22  O   UNL     1       1.837  -3.263   7.043  0.00  0.00    -0.153 OA
BRANCH  20  23
ATOM     23  C   UNL     1       3.701  -4.540   5.840  0.00  0.00    +0.124 A 
ATOM     24  C   UNL     1       5.014  -4.324   5.464  0.00  0.00    +0.030 A 
ATOM     25  C   UNL     1       5.920  -5.368   5.485  0.00  0.00    +0.002 A 
ATOM     26  C   UNL     1       5.514  -6.629   5.882  0.00  0.00    +0.002 A 
ATOM     27  C   UNL     1       4.202  -6.846   6.258  0.00  0.00    +0.022 A 
ATOM     28  C   UNL     1       3.296  -5.800   6.242  0.00  0.00    +0.067 A 
ATOM     29 CL   UNL     1       1.649  -6.071   6.721  0.00  0.00    -0.082 Cl
ENDBRANCH  20  23
ENDBRANCH  15  20
BRANCH   1  30
ATOM     30  C   UNL     1      -0.093  -2.065  -0.540  0.00  0.00    +0.141 C 
BRANCH  30  31
ATOM     31  C   UNL     1      -0.008  -0.540  -0.634  0.00  0.00    +0.180 C 
BRANCH  31  33
ATOM     32  C   UNL     1       1.544   1.285  -0.552  0.00  0.00    +0.194 C 
ATOM     33  O   UNL     1       1.352  -0.129  -0.480  0.00  0.00    -0.381 OA
ENDBRANCH  31  33
ENDBRANCH  30  31
ENDBRANCH   1  30
TORSDOF 5
