REMARK  Name = ZINC06907877
REMARK  7 active torsions:
REMARK  status: ('A' for Active; 'I' for Inactive)
REMARK    1  A    between atoms: C_1  and  C_2
REMARK    2  A    between atoms: C_2  and  O_3
REMARK    3  A    between atoms: O_3  and  C_4
REMARK    4  A    between atoms: C_4  and  C_6
REMARK    5  A    between atoms: C_7  and  N_30
REMARK    6  A    between atoms: C_21  and  C_23
REMARK    7  A    between atoms: C_26  and  O_29
REMARK                            x       y       z     vdW  Elec       q    Type
REMARK                         _______ _______ _______ _____ _____    ______ ____
ROOT
ATOM      1  C   UNL     1       3.248   1.698  -1.341  0.00  0.00    +0.105 C 
ATOM      2  C   UNL     1       4.399   2.378  -1.099  0.00  0.00    +0.195 C 
ATOM      3  O   UNL     1       4.798   2.659   0.153  0.00  0.00    -0.441 OA
ATOM      4  C   UNL     1       4.298   1.963   1.193  0.00  0.00    +0.148 A 
ATOM      5  C   UNL     1       5.006   1.957   2.480  0.00  0.00    +0.041 A 
ATOM      6  C   UNL     1       6.197   2.666   2.653  0.00  0.00    +0.013 A 
ATOM      7  C   UNL     1       6.832   2.641   3.863  0.00  0.00    +0.001 A 
ATOM      8  C   UNL     1       6.303   1.916   4.922  0.00  0.00    +0.002 A 
ATOM      9  C   UNL     1       5.129   1.208   4.773  0.00  0.00    +0.026 A 
ATOM     10  C   UNL     1       4.467   1.222   3.550  0.00  0.00    +0.053 A 
ATOM     11  N   UNL     1       3.290   0.524   3.371  0.00  0.00    -0.322 N 
ATOM     12  H   UNL     1       2.909   0.000   4.132  0.00  0.00    +0.169 HD
ATOM     13  C   UNL     1       2.648   0.537   2.191  0.00  0.00    +0.257 A 
ATOM     14  O   UNL     1       1.609  -0.092   2.075  0.00  0.00    -0.267 OA
ATOM     15  C   UNL     1       3.141   1.258   1.084  0.00  0.00    +0.072 A 
ATOM     16  C   UNL     1       2.373   1.232  -0.211  0.00  0.00    +0.100 C 
ENDROOT
BRANCH  16  17
ATOM     17  C   UNL     1       1.176   2.141  -0.100  0.00  0.00    -0.035 A 
ATOM     18  C   UNL     1      -0.099   1.626  -0.251  0.00  0.00    +0.008 A 
ATOM     19  C   UNL     1      -1.197   2.458  -0.154  0.00  0.00    +0.046 A 
ATOM     20  C   UNL     1      -1.022   3.809   0.105  0.00  0.00    +0.117 A 
ATOM     21  C   UNL     1       0.258   4.324   0.256  0.00  0.00    +0.046 A 
ATOM     22  C   UNL     1       1.353   3.489   0.153  0.00  0.00    +0.008 A 
BRANCH  20  23
ATOM     23  O   UNL     1      -2.101   4.628   0.206  0.00  0.00    -0.507 OA
ATOM     24  H   UNL     1      -2.375   5.024  -0.633  0.00  0.00    +0.292 HD
ENDBRANCH  20  23
ENDBRANCH  16  17
BRANCH   2  25
ATOM     25  N   UNL     1       5.170   2.785  -2.155  0.00  0.00    -0.329 N 
ATOM     26  H   UNL     1       5.649   3.627  -2.109  0.00  0.00    +0.145 HD
ATOM     27  H   UNL     1       5.236   2.232  -2.949  0.00  0.00    +0.145 HD
ENDBRANCH   2  25
BRANCH   1  28
ATOM     28  C   UNL     1       2.871   1.427  -2.665  0.00  0.00    +0.341 C 
ATOM     29  O   UNL     1       3.511   1.896  -3.589  0.00  0.00    -0.245 OA
BRANCH  28  30
ATOM     30  O   UNL     1       1.798   0.646  -2.915  0.00  0.00    -0.462 OA
BRANCH  30  32
ATOM     31  C   UNL     1       0.236  -0.488  -4.369  0.00  0.00    +0.048 C 
ATOM     32  C   UNL     1       1.471   0.412  -4.286  0.00  0.00    +0.229 C 
ENDBRANCH  30  32
ENDBRANCH  28  30
ENDBRANCH   1  28
TORSDOF 6
