REMARK  Name = ZINC09634611
REMARK  7 active torsions:
REMARK  status: ('A' for Active; 'I' for Inactive)
REMARK    1  A    between atoms: C_9  and  C_10
REMARK    2  A    between atoms: C_9  and  C_12
REMARK    3  A    between atoms: C_12  and  C_14
REMARK    4  A    between atoms: C_14  and  S_15
REMARK    5  A    between atoms: S_15  and  C_16
REMARK    6  A    between atoms: N_26  and  C_27
REMARK    7  A    between atoms: C_27  and  C_28
REMARK                            x       y       z     vdW  Elec       q    Type
REMARK                         _______ _______ _______ _____ _____    ______ ____
ROOT
ATOM      1  S   UNL     1      -2.689   0.752   0.019  0.00  0.00    -0.080 S 
ENDROOT
BRANCH   1   2
ATOM      2  C   UNL     1      -4.064   1.854   0.031  0.00  0.00    +0.173 A 
ATOM      3  N   UNL     1      -3.832   3.143   0.043  0.00  0.00    -0.223 NA
ATOM      4  C   UNL     1      -4.842   4.044   0.048  0.00  0.00    +0.080 A 
ATOM      5  C   UNL     1      -4.596   5.420   0.054  0.00  0.00    +0.048 A 
ATOM      6  C   UNL     1      -5.656   6.300   0.064  0.00  0.00    +0.043 A 
ATOM      7  C   UNL     1      -6.967   5.835   0.067  0.00  0.00    +0.021 A 
ATOM      8  C   UNL     1      -7.232   4.494   0.062  0.00  0.00    +0.017 A 
ATOM      9  C   UNL     1      -6.178   3.582   0.052  0.00  0.00    +0.065 A 
ATOM     10  C   UNL     1      -6.409   2.131   0.044  0.00  0.00    +0.263 A 
ATOM     11  O   UNL     1      -7.536   1.672   0.047  0.00  0.00    -0.267 OA
ATOM     12  N   UNL     1      -5.323   1.324   0.035  0.00  0.00    -0.280 N 
ATOM     13 CL   UNL     1      -5.353   8.009   0.072  0.00  0.00    -0.083 Cl
BRANCH  12  14
ATOM     14  C   UNL     1      -5.499  -0.131   0.027  0.00  0.00    +0.201 C 
BRANCH  14  15
ATOM     15  C   UNL     1      -5.553  -0.637   1.446  0.00  0.00    +0.125 A 
ATOM     16  C   UNL     1      -6.663  -0.765   2.194  0.00  0.00    +0.046 A 
ATOM     17  C   UNL     1      -6.255  -1.274   3.448  0.00  0.00    +0.041 A 
ATOM     18  C   UNL     1      -4.919  -1.419   3.395  0.00  0.00    +0.195 A 
ATOM     19  O   UNL     1      -4.499  -1.031   2.179  0.00  0.00    -0.466 OA
ENDBRANCH  14  15
ENDBRANCH  12  14
ENDBRANCH   1   2
BRANCH   1  20
ATOM     20  C   UNL     1      -1.330   1.947   0.019  0.00  0.00    +0.157 C 
BRANCH  20  21
ATOM     21  C   UNL     1      -0.014   1.211   0.009  0.00  0.00    +0.187 C 
ATOM     22  O   UNL     1       0.002  -0.004   0.002  0.00  0.00    -0.290 OA
BRANCH  21  31
ATOM     23  C   UNL     1       6.695  -0.354  -0.061  0.00  0.00    +0.002 A 
ATOM     24  C   UNL     1       6.019  -1.563  -0.060  0.00  0.00    +0.002 A 
ATOM     25  C   UNL     1       4.639  -1.589  -0.048  0.00  0.00    +0.025 A 
ATOM     26  C   UNL     1       3.925  -0.398  -0.036  0.00  0.00    +0.054 A 
ATOM     27  C   UNL     1       4.607   0.821  -0.037  0.00  0.00    +0.054 A 
ATOM     28  C   UNL     1       5.995   0.836  -0.049  0.00  0.00    +0.025 A 
ATOM     29  N   UNL     1       3.647   1.826  -0.023  0.00  0.00    -0.300 N 
ATOM     30  C   UNL     1       2.420   1.244  -0.014  0.00  0.00    +0.114 C 
ATOM     31  C   UNL     1       1.193   1.930   0.001  0.00  0.00    +0.131 C 
ATOM     32  N   UNL     1       2.566  -0.106  -0.017  0.00  0.00    -0.300 N 
ATOM     33  H   UNL     1       3.823   2.780  -0.020  0.00  0.00    +0.153 HD
ATOM     34  H   UNL     1       1.845  -0.756  -0.009  0.00  0.00    +0.153 HD
BRANCH  31  35
ATOM     35  C   UNL     1       1.173   3.362   0.009  0.00  0.00    +0.106 C 
ATOM     36  N   UNL     1       1.158   4.498   0.015  0.00  0.00    -0.191 NA
ENDBRANCH  31  35
ENDBRANCH  21  31
ENDBRANCH  20  21
ENDBRANCH   1  20
TORSDOF 7
