REMARK  Name = ZINC39266690
REMARK  8 active torsions:
REMARK  status: ('A' for Active; 'I' for Inactive)
REMARK    1  A    between atoms: C_1  and  O_2
REMARK    2  A    between atoms: O_2  and  C_3
REMARK    3  A    between atoms: C_3  and  C_5
REMARK    4  A    between atoms: C_5  and  C_7
REMARK    5  A    between atoms: C_5  and  N_17
REMARK    6  A    between atoms: C_7  and  C_8
REMARK    7  A    between atoms: C_18  and  C_20
REMARK    8  A    between atoms: C_20  and  N_21
REMARK                            x       y       z     vdW  Elec       q    Type
REMARK                         _______ _______ _______ _____ _____    ______ ____
ROOT
ATOM      1  N   UNL     1      -2.643  -2.570   0.013  0.00  0.00    -0.301 N 
ATOM      2  C   UNL     1      -3.328  -2.666  -1.143  0.00  0.00    +0.231 C 
ATOM      3  O   UNL     1      -2.786  -2.393  -2.193  0.00  0.00    -0.274 OA
ATOM      4  H   UNL     1      -3.076  -2.788   0.853  0.00  0.00    +0.150 HD
ENDROOT
BRANCH   1   5
ATOM      5  C   UNL     1      -1.244  -2.135   0.003  0.00  0.00    +0.186 C 
BRANCH   5   6
ATOM      6  C   UNL     1      -1.185  -0.630   0.010  0.00  0.00    +0.328 C 
ATOM      7  O   UNL     1      -2.208   0.015   0.023  0.00  0.00    -0.249 OA
BRANCH   6   9
ATOM      8  C   UNL     1      -0.017   1.425   0.010  0.00  0.00    +0.280 C 
ATOM      9  O   UNL     1       0.002  -0.004   0.002  0.00  0.00    -0.467 OA
ENDBRANCH   6   9
ENDBRANCH   5   6
BRANCH   5  10
ATOM     10  C   UNL     1      -0.531  -2.680   1.242  0.00  0.00    +0.071 C 
BRANCH  10  11
ATOM     11  C   UNL     1      -0.482  -4.184   1.173  0.00  0.00    -0.020 A 
ATOM     12  C   UNL     1       0.524  -4.992   0.479  0.00  0.00    +0.003 A 
ATOM     13  C   UNL     1       1.659  -4.691  -0.275  0.00  0.00    +0.010 A 
ATOM     14  C   UNL     1       2.411  -5.702  -0.803  0.00  0.00    +0.001 A 
ATOM     15  C   UNL     1       2.055  -7.028  -0.596  0.00  0.00    +0.002 A 
ATOM     16  C   UNL     1       0.938  -7.348   0.145  0.00  0.00    +0.026 A 
ATOM     17  C   UNL     1       0.159  -6.335   0.692  0.00  0.00    +0.047 A 
ATOM     18  N   UNL     1      -0.985  -6.327   1.459  0.00  0.00    -0.360 N 
ATOM     19  C   UNL     1      -1.348  -5.038   1.741  0.00  0.00    +0.087 A 
ATOM     20  H   UNL     1      -1.460  -7.118   1.759  0.00  0.00    +0.165 HD
ENDBRANCH  10  11
ENDBRANCH   5  10
ENDBRANCH   1   5
BRANCH   2  21
ATOM     21  C   UNL     1      -4.767  -3.113  -1.132  0.00  0.00    +0.209 C 
BRANCH  21  22
ATOM     22  N   UNL     1      -5.282  -3.136  -2.503  0.00  0.00    -0.260 N 
ATOM     23  C   UNL     1      -5.864  -1.976  -2.987  0.00  0.00    +0.049 A 
ATOM     24  C   UNL     1      -5.270  -0.759  -2.652  0.00  0.00    +0.024 A 
ATOM     25  C   UNL     1      -5.816   0.429  -3.084  0.00  0.00    +0.002 A 
ATOM     26  C   UNL     1      -6.967   0.422  -3.857  0.00  0.00    +0.001 A 
ATOM     27  C   UNL     1      -7.559  -0.768  -4.203  0.00  0.00    +0.015 A 
ATOM     28  C   UNL     1      -7.010  -1.993  -3.780  0.00  0.00    +0.058 A 
ATOM     29  C   UNL     1      -7.666  -3.216  -4.230  0.00  0.00    +0.249 C 
ATOM     30  O   UNL     1      -8.882  -3.232  -4.196  0.00  0.00    -0.270 OA
ATOM     31  N   UNL     1      -7.055  -4.330  -4.680  0.00  0.00    -0.286 N 
ATOM     32  C   UNL     1      -7.934  -5.348  -5.262  0.00  0.00    +0.109 C 
ATOM     33  C   UNL     1      -7.215  -6.680  -5.446  0.00  0.00    +0.019 C 
ATOM     34  C   UNL     1      -5.895  -6.387  -6.178  0.00  0.00    +0.004 C 
ATOM     35  C   UNL     1      -4.981  -5.673  -5.189  0.00  0.00    +0.032 C 
ATOM     36  C   UNL     1      -5.610  -4.419  -4.616  0.00  0.00    +0.163 C 
ATOM     37  C   UNL     1      -5.151  -4.264  -3.188  0.00  0.00    +0.241 C 
ATOM     38  O   UNL     1      -4.642  -5.218  -2.639  0.00  0.00    -0.273 OA
ENDBRANCH  21  22
ENDBRANCH   2  21
TORSDOF 7
