REMARK  Name = ZINC22680737
REMARK  9 active torsions:
REMARK  status: ('A' for Active; 'I' for Inactive)
REMARK    1  A    between atoms: C_1  and  C_2
REMARK    2  A    between atoms: N_5  and  C_8
REMARK    3  A    between atoms: C_8  and  C_10
REMARK    4  A    between atoms: C_8  and  C_25
REMARK    5  A    between atoms: C_10  and  N_11
REMARK    6  A    between atoms: C_12  and  C_14
REMARK    7  A    between atoms: C_14  and  O_15
REMARK    8  A    between atoms: O_15  and  C_16
REMARK    9  A    between atoms: C_19  and  N_22
REMARK                            x       y       z     vdW  Elec       q    Type
REMARK                         _______ _______ _______ _____ _____    ______ ____
ROOT
ATOM      1  C   UNL     1      -1.509   2.785  -1.419  0.00  0.00    +0.094 C 
ENDROOT
BRANCH   1   2
ATOM      2  N   UNL     1      -0.456   3.696  -1.873  0.00  0.00    -0.314 N 
ATOM      3  C   UNL     1      -0.576   4.329  -3.057  0.00  0.00    +0.251 C 
ATOM      4  O   UNL     1      -1.557   4.144  -3.746  0.00  0.00    -0.272 OA
ATOM      5  H   UNL     1       0.434   3.864  -1.247  0.00  0.00    +0.149 HD
BRANCH   3   6
ATOM      6  C   UNL     1       0.507   5.266  -3.524  0.00  0.00    +0.324 C 
BRANCH   6   7
ATOM      7  O   UNL     1       0.151   5.809  -4.797  0.00  0.00    -0.483 OA
BRANCH   7   8
ATOM      8  C   UNL     1       1.028   6.680  -5.363  0.00  0.00    +0.121 A 
ATOM      9  C   UNL     1       2.204   7.010  -4.705  0.00  0.00    +0.048 A 
ATOM     10  C   UNL     1       3.095   7.891  -5.285  0.00  0.00    +0.036 A 
ATOM     11  C   UNL     1       2.811   8.453  -6.516  0.00  0.00    +0.126 A 
ATOM     12  C   UNL     1       1.638   8.130  -7.172  0.00  0.00    +0.036 A 
ATOM     13  C   UNL     1       0.746   7.245  -6.598  0.00  0.00    +0.048 A 
BRANCH  11  14
ATOM     14  N   UNL     1       3.766   9.401  -7.132  0.00  0.00    +0.056 N 
ATOM     15  O   UNL     1       3.517   9.896  -8.217  0.00  0.00    -0.126 OA
ATOM     16  O   UNL     1       4.800   9.686  -6.555  0.00  0.00    -0.126 OA
ENDBRANCH  11  14
ENDBRANCH   7   8
ENDBRANCH   6   7
ENDBRANCH   3   6
ENDBRANCH   1   2
BRANCH   1  17
ATOM     17  C   UNL     1      -1.185   2.294  -0.006  0.00  0.00    -0.013 C 
BRANCH  17  22
ATOM     18  C   UNL     1      -1.099   6.478   3.888  0.00  0.00    +0.007 C 
ATOM     19  C   UNL     1      -1.484   5.234   3.084  0.00  0.00    -0.018 C 
ATOM     20  C   UNL     1      -0.328   4.231   3.107  0.00  0.00    -0.015 C 
ATOM     21  C   UNL     1      -0.695   3.016   2.252  0.00  0.00    -0.078 C 
ATOM     22  N   UNL     1      -0.964   3.449   0.875  0.00  0.00    +0.386 N 
ATOM     23  C   UNL     1      -2.101   4.376   0.822  0.00  0.00    -0.078 C 
ATOM     24  C   UNL     1      -1.776   5.632   1.634  0.00  0.00    -0.015 C 
ATOM     25  H   UNL     1      -0.075   3.987   0.513  0.00  0.00    -0.081 HD
ENDBRANCH  17  22
BRANCH  17  26
ATOM     26  C   UNL     1       0.060   1.445  -0.043  0.00  0.00    -0.022 A 
ATOM     27  C   UNL     1       0.172   0.094  -0.043  0.00  0.00    +0.009 A 
ATOM     28  C   UNL     1       1.431  -0.474  -0.086  0.00  0.00    +0.008 A 
ATOM     29  C   UNL     1       2.517   0.336  -0.127  0.00  0.00    +0.045 A 
ATOM     30  S   UNL     1       1.769   1.957  -0.105  0.00  0.00    -0.103 S 
ENDBRANCH  17  26
ENDBRANCH   1  17
TORSDOF 8
