REMARK  Name = ZINC45285472
REMARK  4 active torsions:
REMARK  status: ('A' for Active; 'I' for Inactive)
REMARK    1  A    between atoms: C_4  and  C_7
REMARK    2  A    between atoms: C_8  and  C_22
REMARK    3  A    between atoms: N_10  and  C_16
REMARK    4  A    between atoms: C_12  and  C_13
REMARK                            x       y       z     vdW  Elec       q    Type
REMARK                         _______ _______ _______ _____ _____    ______ ____
ROOT
ATOM      1  C   UNL     1       3.711  -0.707  -0.038  0.00  0.00    +0.091 C 
ATOM      2  C   UNL     1       3.823  -1.549   1.201  0.00  0.00    +0.040 C 
ATOM      3  C   UNL     1       3.647  -2.880   1.163  0.00  0.00    +0.090 C 
ATOM      4  N   UNL     1       3.365  -3.516  -0.018  0.00  0.00    -0.282 N 
ATOM      5  C   UNL     1       3.609  -2.891  -1.214  0.00  0.00    +0.090 C 
ATOM      6  C   UNL     1       3.784  -1.561  -1.271  0.00  0.00    +0.040 C 
ENDROOT
BRANCH   1  10
ATOM      7  C   UNL     1      -0.017   1.378   0.010  0.00  0.00    +0.000 A 
ATOM      8  C   UNL     1       1.171   2.086   0.002  0.00  0.00    +0.000 A 
ATOM      9  C   UNL     1       2.377   1.411  -0.013  0.00  0.00    +0.004 A 
ATOM     10  C   UNL     1       2.396   0.029  -0.020  0.00  0.00    -0.035 A 
ATOM     11  C   UNL     1       1.208  -0.679  -0.012  0.00  0.00    +0.004 A 
ATOM     12  C   UNL     1       0.002  -0.004   0.002  0.00  0.00    +0.000 A 
ENDBRANCH   1  10
BRANCH   4  13
ATOM     13  C   UNL     1       2.828  -4.809  -0.004  0.00  0.00    +0.038 A 
ATOM     14  C   UNL     1       2.575  -5.443   1.206  0.00  0.00    +0.024 A 
ATOM     15  C   UNL     1       2.045  -6.718   1.217  0.00  0.00    +0.002 A 
ATOM     16  C   UNL     1       1.766  -7.363   0.026  0.00  0.00    +0.000 A 
ATOM     17  C   UNL     1       2.017  -6.734  -1.180  0.00  0.00    +0.002 A 
ATOM     18  C   UNL     1       2.542  -5.457  -1.198  0.00  0.00    +0.024 A 
ENDBRANCH   4  13
BRANCH   6  19
ATOM     19  C   UNL     1       4.042  -0.950  -2.523  0.00  0.00    +0.240 C 
ATOM     20  O   UNL     1       4.103  -1.630  -3.531  0.00  0.00    -0.271 OA
ATOM     21  N   UNL     1       4.219   0.384  -2.597  0.00  0.00    -0.326 N 
ATOM     22  H   UNL     1       4.170   0.925  -1.794  0.00  0.00    +0.145 HD
ATOM     23  H   UNL     1       4.396   0.803  -3.454  0.00  0.00    +0.145 HD
ENDBRANCH   6  19
BRANCH   2  24
ATOM     24  C   UNL     1       4.122  -0.926   2.438  0.00  0.00    +0.240 C 
ATOM     25  O   UNL     1       4.215  -1.595   3.450  0.00  0.00    -0.271 OA
ATOM     26  N   UNL     1       4.302   0.409   2.494  0.00  0.00    -0.326 N 
ATOM     27  H   UNL     1       4.227   0.942   1.687  0.00  0.00    +0.145 HD
ATOM     28  H   UNL     1       4.506   0.836   3.340  0.00  0.00    +0.145 HD
ENDBRANCH   2  24
TORSDOF 4
