REMARK  Name = ZINC21264392
REMARK  12 active torsions:
REMARK  status: ('A' for Active; 'I' for Inactive)
REMARK    1  A    between atoms: C_1  and  C_2
REMARK    2  A    between atoms: C_2  and  C_33
REMARK    3  A    between atoms: C_4  and  N_10
REMARK    4  A    between atoms: C_6  and  C_8
REMARK    5  A    between atoms: C_6  and  C_9
REMARK    6  A    between atoms: N_10  and  C_11
REMARK    7  A    between atoms: C_11  and  N_13
REMARK    8  A    between atoms: C_16  and  C_19
REMARK    9  A    between atoms: C_22  and  S_25
REMARK   10  A    between atoms: N_23  and  C_24
REMARK   11  A    between atoms: S_25  and  C_26
REMARK   12  A    between atoms: C_26  and  C_27
REMARK                            x       y       z     vdW  Elec       q    Type
REMARK                         _______ _______ _______ _____ _____    ______ ____
ROOT
ATOM      1  N   UNL     1       0.206   7.047  -2.398  0.00  0.00    -0.313 N 
ATOM      2  C   UNL     1       0.599   7.811  -1.206  0.00  0.00    +0.107 C 
ATOM      3  C   UNL     1       1.788   8.711  -1.573  0.00  0.00    +0.030 C 
ATOM      4  C   UNL     1       1.412   9.577  -2.777  0.00  0.00    +0.060 C 
ATOM      5  C   UNL     1       1.100   8.679  -3.976  0.00  0.00    +0.030 C 
ATOM      6  C   UNL     1      -0.091   7.777  -3.638  0.00  0.00    +0.107 C 
ENDROOT
BRANCH   4   7
ATOM      7  C   UNL     1       2.562  10.489  -3.119  0.00  0.00    +0.137 A 
ATOM      8  N   UNL     1       3.764  10.122  -3.459  0.00  0.00    -0.133 NA
ATOM      9  N   UNL     1       4.495  11.155  -3.683  0.00  0.00    -0.122 NA
ATOM     10  C   UNL     1       3.792  12.248  -3.496  0.00  0.00    +0.192 A 
ATOM     11  N   UNL     1       2.534  11.857  -3.135  0.00  0.00    -0.309 N 
ATOM     12  C   UNL     1       1.393  12.722  -2.826  0.00  0.00    +0.152 C 
BRANCH  10  13
ATOM     13  S   UNL     1       4.361  13.905  -3.681  0.00  0.00    -0.081 S 
BRANCH  13  14
ATOM     14  C   UNL     1       6.077  13.595  -4.169  0.00  0.00    +0.112 C 
BRANCH  14  15
ATOM     15  C   UNL     1       6.781  14.909  -4.388  0.00  0.00    -0.037 A 
ATOM     16  C   UNL     1       6.779  15.493  -5.641  0.00  0.00    +0.004 A 
ATOM     17  C   UNL     1       7.421  16.701  -5.842  0.00  0.00    +0.000 A 
ATOM     18  C   UNL     1       8.075  17.319  -4.792  0.00  0.00    +0.000 A 
ATOM     19  C   UNL     1       8.081  16.732  -3.540  0.00  0.00    +0.000 A 
ATOM     20  C   UNL     1       7.434  15.527  -3.338  0.00  0.00    +0.004 A 
ENDBRANCH  14  15
ENDBRANCH  13  14
ENDBRANCH  10  13
ENDBRANCH   4   7
BRANCH   1  21
ATOM     21  C   UNL     1       0.113   5.703  -2.353  0.00  0.00    +0.133 C 
ATOM     22  S   UNL     1       0.335   4.879  -0.869  0.00  0.00    -0.019 S 
BRANCH  21  23
ATOM     23  N   UNL     1      -0.154   5.008  -3.477  0.00  0.00    -0.324 N 
ATOM     24  H   UNL     1      -0.380   5.541  -4.412  0.00  0.00    +0.148 HD
BRANCH  23  28
ATOM     25  C   UNL     1       1.224   0.988  -2.275  0.00  0.00    -0.010 C 
ATOM     26  C   UNL     1       1.316   1.516  -3.711  0.00  0.00    -0.072 C 
ATOM     27  C   UNL     1       1.278   3.041  -3.697  0.00  0.00    +0.009 C 
ATOM     28  C   UNL     1      -0.145   3.541  -3.452  0.00  0.00    +0.069 C 
ATOM     29  C   UNL     1      -1.041   3.013  -4.574  0.00  0.00    +0.009 C 
ATOM     30  C   UNL     1      -1.046   1.485  -4.562  0.00  0.00    -0.072 C 
ATOM     31  N   UNL     1       0.293   0.928  -4.552  0.00  0.00    +0.386 N 
ATOM     32  C   UNL     1      -1.754   1.012  -5.851  0.00  0.00    -0.010 C 
ATOM     33  C   UNL     1      -1.871   0.980  -3.375  0.00  0.00    -0.010 C 
ATOM     34  C   UNL     1       2.695   1.090  -4.265  0.00  0.00    -0.010 C 
ATOM     35  H   UNL     1       0.609   0.979  -5.604  0.00  0.00    -0.084 HD
ATOM     36  H   UNL     1       0.141  -0.122  -4.264  0.00  0.00    -0.084 HD
ENDBRANCH  23  28
ENDBRANCH  21  23
ENDBRANCH   1  21
TORSDOF 7
