REMARK  Name = ZINC06860677
REMARK  11 active torsions:
REMARK  status: ('A' for Active; 'I' for Inactive)
REMARK    1  A    between atoms: C_1  and  C_2
REMARK    2  A    between atoms: C_2  and  C_3
REMARK    3  A    between atoms: C_8  and  N_9
REMARK    4  A    between atoms: N_9  and  C_10
REMARK    5  A    between atoms: C_10  and  C_12
REMARK    6  A    between atoms: C_10  and  C_19
REMARK    7  A    between atoms: N_21  and  C_22
REMARK    8  A    between atoms: C_22  and  C_23
REMARK    9  A    between atoms: C_29  and  C_31
REMARK   10  A    between atoms: C_32  and  N_39
REMARK   11  A    between atoms: C_33  and  C_36
REMARK                            x       y       z     vdW  Elec       q    Type
REMARK                         _______ _______ _______ _____ _____    ______ ____
ROOT
ATOM      1  N   UNL     1      -5.443   1.380   3.510  0.00  0.00    -0.251 N 
ATOM      2  C   UNL     1      -6.519   2.174   3.341  0.00  0.00    +0.262 C 
ATOM      3  O   UNL     1      -6.992   2.329   2.230  0.00  0.00    -0.269 OA
ENDROOT
BRANCH   1   9
ATOM      4  C   UNL     1      -3.875   2.028   5.228  0.00  0.00    -0.026 A 
ATOM      5  C   UNL     1      -3.344   1.852   6.491  0.00  0.00    +0.005 A 
ATOM      6  C   UNL     1      -3.825   0.848   7.311  0.00  0.00    +0.000 A 
ATOM      7  C   UNL     1      -4.842   0.020   6.872  0.00  0.00    +0.002 A 
ATOM      8  C   UNL     1      -5.380   0.194   5.613  0.00  0.00    +0.024 A 
ATOM      9  C   UNL     1      -4.900   1.202   4.786  0.00  0.00    +0.041 A 
BRANCH   4  11
ATOM     10  C   UNL     1      -4.290   4.323   4.385  0.00  0.00    +0.009 C 
ATOM     11  C   UNL     1      -3.347   3.119   4.333  0.00  0.00    +0.033 C 
ENDBRANCH   4  11
ENDBRANCH   1   9
BRANCH   2  12
ATOM     12  C   UNL     1      -7.119   2.849   4.492  0.00  0.00    +0.116 A 
ATOM     13  C   UNL     1      -8.222   3.704   4.541  0.00  0.00    +0.076 A 
ATOM     14  C   UNL     1      -8.493   4.153   5.834  0.00  0.00    +0.155 A 
ATOM     15  N   UNL     1      -7.730   3.753   6.827  0.00  0.00    -0.203 NA
ATOM     16  S   UNL     1      -6.643   2.794   6.207  0.00  0.00    +0.019 S 
BRANCH  14  17
ATOM     17  C   UNL     1      -9.624   5.066   6.084  0.00  0.00    +0.262 C 
ATOM     18  O   UNL     1     -10.326   5.431   5.160  0.00  0.00    -0.269 OA
ATOM     19  N   UNL     1      -9.879   5.495   7.335  0.00  0.00    -0.324 N 
ATOM     20  H   UNL     1      -9.319   5.203   8.072  0.00  0.00    +0.145 HD
ATOM     21  H   UNL     1     -10.623   6.096   7.500  0.00  0.00    +0.145 HD
ENDBRANCH  14  17
BRANCH  13  22
ATOM     22  N   UNL     1      -8.967   4.066   3.427  0.00  0.00    -0.355 N 
ATOM     23  H   UNL     1      -8.730   3.721   2.552  0.00  0.00    +0.142 HD
ATOM     24  H   UNL     1      -9.724   4.665   3.523  0.00  0.00    +0.142 HD
ENDBRANCH  13  22
ENDBRANCH   2  12
BRANCH   1  25
ATOM     25  C   UNL     1      -4.842   0.704   2.357  0.00  0.00    +0.197 C 
BRANCH  25  26
ATOM     26  C   UNL     1      -5.892  -0.116   1.653  0.00  0.00    -0.018 A 
ATOM     27  C   UNL     1      -6.731  -0.937   2.383  0.00  0.00    +0.009 A 
ATOM     28  C   UNL     1      -7.697  -1.687   1.738  0.00  0.00    +0.038 A 
ATOM     29  C   UNL     1      -7.817  -1.623   0.360  0.00  0.00    +0.123 A 
ATOM     30  C   UNL     1      -6.972  -0.804  -0.370  0.00  0.00    +0.038 A 
ATOM     31  C   UNL     1      -6.010  -0.052   0.277  0.00  0.00    +0.009 A 
ATOM     32  F   UNL     1      -8.758  -2.358  -0.271  0.00  0.00    -0.205 F 
ENDBRANCH  25  26
BRANCH  25  33
ATOM     33  C   UNL     1      -3.731  -0.198   2.828  0.00  0.00    +0.239 C 
ATOM     34  O   UNL     1      -3.890  -0.899   3.805  0.00  0.00    -0.273 OA
ATOM     35  N   UNL     1      -2.559  -0.227   2.162  0.00  0.00    -0.311 N 
ATOM     36  H   UNL     1      -2.431   0.333   1.381  0.00  0.00    +0.149 HD
BRANCH  35  37
ATOM     37  C   UNL     1      -1.478  -1.105   2.619  0.00  0.00    +0.135 C 
BRANCH  37  38
ATOM     38  C   UNL     1      -0.269  -0.947   1.696  0.00  0.00    +0.135 C 
ATOM     39  C   UNL     1       0.853  -1.927   2.107  0.00  0.00    +0.035 C 
ATOM     40  C   UNL     1       2.154  -1.127   1.875  0.00  0.00    +0.031 C 
ATOM     41  C   UNL     1       1.665   0.242   1.351  0.00  0.00    +0.160 C 
ATOM     42  O   UNL     1       0.314   0.366   1.847  0.00  0.00    -0.375 OA
ENDBRANCH  37  38
ENDBRANCH  35  37
ENDBRANCH  25  33
ENDBRANCH   1  25
TORSDOF 10
