REMARK  Name = ZINC33834433
REMARK  19 active torsions:
REMARK  status: ('A' for Active; 'I' for Inactive)
REMARK    1  A    between atoms: C_1  and  C_2
REMARK    2  A    between atoms: C_2  and  S_3
REMARK    3  A    between atoms: S_3  and  C_4
REMARK    4  A    between atoms: C_4  and  C_5
REMARK    5  A    between atoms: C_5  and  O_6
REMARK    6  A    between atoms: O_6  and  C_7
REMARK    7  A    between atoms: C_7  and  C_9
REMARK    8  A    between atoms: C_10  and  C_40
REMARK    9  A    between atoms: C_14  and  C_16
REMARK   10  A    between atoms: C_18  and  O_26
REMARK   11  A    between atoms: C_19  and  O_24
REMARK   12  A    between atoms: C_20  and  O_22
REMARK   13  A    between atoms: O_22  and  C_23
REMARK   14  A    between atoms: O_24  and  C_25
REMARK   15  A    between atoms: O_26  and  C_27
REMARK   16  A    between atoms: C_30  and  C_36
REMARK   17  A    between atoms: C_32  and  C_35
REMARK   18  A    between atoms: C_36  and  O_38
REMARK   19  A    between atoms: O_38  and  C_39
REMARK                            x       y       z     vdW  Elec       q    Type
REMARK                         _______ _______ _______ _____ _____    ______ ____
ROOT
ATOM      1  C   UNL     1      -3.703   1.820  -0.218  0.00  0.00    +0.065 C 
ATOM      2  C   UNL     1      -3.721   3.164  -0.252  0.00  0.00    +0.016 C 
ATOM      3  N   UNL     1      -2.577   3.878  -0.014  0.00  0.00    -0.321 N 
ATOM      4  C   UNL     1      -1.349   3.287  -0.146  0.00  0.00    +0.016 C 
ATOM      5  C   UNL     1      -1.229   1.943  -0.113  0.00  0.00    +0.025 C 
ATOM      6  C   UNL     1      -2.440   1.066   0.078  0.00  0.00    +0.092 C 
ATOM      7  C   UNL     1       0.026   1.323  -0.245  0.00  0.00    +0.176 C 
ATOM      8  O   UNL     1       0.098   0.110  -0.226  0.00  0.00    -0.291 OA
ATOM      9  C   UNL     1       1.282   2.135  -0.415  0.00  0.00    +0.171 C 
ATOM     10  C   UNL     1       1.092   3.495   0.264  0.00  0.00    +0.013 C 
ATOM     11  C   UNL     1      -0.141   4.171  -0.339  0.00  0.00    +0.055 C 
ATOM     12  C   UNL     1       0.889   3.294   1.768  0.00  0.00    +0.009 C 
ATOM     13  C   UNL     1      -5.010   3.888  -0.543  0.00  0.00    +0.061 C 
ATOM     14  H   UNL     1      -2.640   4.934   0.286  0.00  0.00    +0.152 HD
ENDROOT
BRANCH   6  15
ATOM     15  C   UNL     1      -2.478   0.577   1.503  0.00  0.00    -0.028 A 
ATOM     16  C   UNL     1      -2.544   1.486   2.542  0.00  0.00    +0.054 A 
ATOM     17  C   UNL     1      -2.584   1.041   3.854  0.00  0.00    +0.165 A 
ATOM     18  C   UNL     1      -2.546  -0.322   4.125  0.00  0.00    +0.204 A 
ATOM     19  C   UNL     1      -2.474  -1.233   3.078  0.00  0.00    +0.165 A 
ATOM     20  C   UNL     1      -2.441  -0.779   1.768  0.00  0.00    +0.054 A 
BRANCH  19  21
ATOM     21  O   UNL     1      -2.437  -2.567   3.337  0.00  0.00    -0.491 OA
ATOM     22  C   UNL     1      -2.364  -3.445   2.212  0.00  0.00    +0.277 C 
ENDBRANCH  19  21
BRANCH  18  23
ATOM     23  O   UNL     1      -2.579  -0.763   5.412  0.00  0.00    -0.488 OA
ATOM     24  C   UNL     1      -1.324  -0.928   6.074  0.00  0.00    +0.277 C 
ENDBRANCH  18  23
BRANCH  17  25
ATOM     25  O   UNL     1      -2.655   1.936   4.876  0.00  0.00    -0.491 OA
ATOM     26  C   UNL     1      -2.691   3.320   4.523  0.00  0.00    +0.277 C 
ENDBRANCH  17  25
ENDBRANCH   6  15
BRANCH   1  27
ATOM     27  C   UNL     1      -4.898   1.104  -0.464  0.00  0.00    +0.338 C 
ATOM     28  O   UNL     1      -5.054   0.528  -1.525  0.00  0.00    -0.245 OA
BRANCH  27  29
ATOM     29  O   UNL     1      -5.864   1.060   0.476  0.00  0.00    -0.460 OA
BRANCH  29  30
ATOM     30  C   UNL     1      -7.044   0.318   0.160  0.00  0.00    +0.243 C 
BRANCH  30  31
ATOM     31  C   UNL     1      -8.018   0.381   1.338  0.00  0.00    +0.110 C 
BRANCH  31  32
ATOM     32  S   UNL     1      -9.515  -0.560   0.937  0.00  0.00    -0.158 S 
BRANCH  32  34
ATOM     33  C   UNL     1     -11.866  -1.145   2.208  0.00  0.00    +0.015 C 
ATOM     34  C   UNL     1     -10.552  -0.388   2.415  0.00  0.00    +0.066 C 
ENDBRANCH  32  34
ENDBRANCH  31  32
ENDBRANCH  30  31
ENDBRANCH  29  30
ENDBRANCH  27  29
ENDBRANCH   1  27
BRANCH   9  35
ATOM     35  C   UNL     1       2.441   1.411   0.220  0.00  0.00    +0.318 C 
ATOM     36  O   UNL     1       3.059   1.931   1.118  0.00  0.00    -0.250 OA
BRANCH  35  37
ATOM     37  O   UNL     1       2.786   0.187  -0.212  0.00  0.00    -0.467 OA
ATOM     38  C   UNL     1       3.912  -0.451   0.446  0.00  0.00    +0.280 C 
ENDBRANCH  35  37
ENDBRANCH   9  35
TORSDOF 12
