REMARK  Name = ZINC01073656
REMARK  7 active torsions:
REMARK  status: ('A' for Active; 'I' for Inactive)
REMARK    1  A    between atoms: C_1  and  C_2
REMARK    2  A    between atoms: C_3  and  C_14
REMARK    3  A    between atoms: N_6  and  C_7
REMARK    4  A    between atoms: C_19  and  C_21
REMARK    5  A    between atoms: N_22  and  C_28
REMARK    6  A    between atoms: C_23  and  N_27
REMARK    7  A    between atoms: C_24  and  C_25
REMARK                            x       y       z     vdW  Elec       q    Type
REMARK                         _______ _______ _______ _____ _____    ______ ____
ROOT
ATOM      1  C   UNL     1      -0.017  -0.327  -2.527  0.00  0.00    +0.121 C 
ATOM      2  C   UNL     1       1.221  -0.847  -3.208  0.00  0.00    +0.115 A 
ATOM      3  C   UNL     1       1.191  -1.838  -4.138  0.00  0.00    +0.223 A 
ATOM      4  O   UNL     1       2.451  -2.055  -4.527  0.00  0.00    -0.425 OA
ATOM      5  C   UNL     1       3.238  -1.201  -3.846  0.00  0.00    +0.195 A 
ATOM      6  N   UNL     1       2.495  -0.477  -3.054  0.00  0.00    -0.216 NA
ATOM      7  C   UNL     1       4.736  -1.099  -3.977  0.00  0.00    +0.109 C 
ATOM      8  N   UNL     1       0.000  -2.442  -4.541  0.00  0.00    -0.226 N 
ATOM      9  C   UNL     1      -1.183  -1.836  -4.171  0.00  0.00    +0.109 C 
ATOM     10  C   UNL     1      -1.234  -0.846  -3.245  0.00  0.00    +0.079 C 
ENDROOT
BRANCH   1  13
ATOM     11  C   UNL     1      -0.055   1.503   0.010  0.00  0.00    +0.066 C 
ATOM     12  C   UNL     1      -0.056  -0.004   0.002  0.00  0.00    +0.047 A 
ATOM     13  C   UNL     1      -0.039  -0.796  -1.095  0.00  0.00    +0.026 A 
ATOM     14  C   UNL     1      -0.046  -2.128  -0.665  0.00  0.00    +0.156 A 
ATOM     15  N   UNL     1      -0.066  -2.136   0.644  0.00  0.00    -0.154 NA
ATOM     16  N   UNL     1      -0.067  -0.807   1.089  0.00  0.00    -0.235 N 
ATOM     17 CL   UNL     1      -0.031  -3.529  -1.690  0.00  0.00    -0.060 Cl
BRANCH  16  18
ATOM     18  C   UNL     1      -0.081  -0.386   2.426  0.00  0.00    +0.066 A 
ATOM     19  C   UNL     1       0.600   0.765   2.799  0.00  0.00    +0.028 A 
ATOM     20  C   UNL     1       0.585   1.179   4.117  0.00  0.00    +0.002 A 
ATOM     21  C   UNL     1      -0.108   0.447   5.064  0.00  0.00    +0.000 A 
ATOM     22  C   UNL     1      -0.787  -0.700   4.696  0.00  0.00    +0.002 A 
ATOM     23  C   UNL     1      -0.780  -1.115   3.379  0.00  0.00    +0.028 A 
ENDBRANCH  16  18
ENDBRANCH   1  13
BRANCH   8  24
ATOM     24  C   UNL     1       0.005  -3.622  -5.293  0.00  0.00    +0.043 A 
ATOM     25  C   UNL     1      -0.493  -4.798  -4.746  0.00  0.00    +0.024 A 
ATOM     26  C   UNL     1      -0.487  -5.961  -5.492  0.00  0.00    +0.002 A 
ATOM     27  C   UNL     1       0.015  -5.955  -6.780  0.00  0.00    +0.000 A 
ATOM     28  C   UNL     1       0.511  -4.786  -7.327  0.00  0.00    +0.002 A 
ATOM     29  C   UNL     1       0.503  -3.619  -6.590  0.00  0.00    +0.024 A 
ENDBRANCH   8  24
BRANCH   9  30
ATOM     30  N   UNL     1      -2.352  -2.249  -4.764  0.00  0.00    -0.345 N 
ATOM     31  H   UNL     1      -2.346  -3.003  -5.374  0.00  0.00    +0.144 HD
ATOM     32  H   UNL     1      -3.183  -1.787  -4.571  0.00  0.00    +0.144 HD
ENDBRANCH   9  30
BRANCH  10  33
ATOM     33  C   UNL     1      -2.507  -0.268  -2.934  0.00  0.00    +0.099 C 
ATOM     34  N   UNL     1      -3.516   0.191  -2.688  0.00  0.00    -0.191 NA
ENDBRANCH  10  33
TORSDOF 5
