REMARK  Name = ZINC64604913
REMARK  9 active torsions:
REMARK  status: ('A' for Active; 'I' for Inactive)
REMARK    1  A    between atoms: C_1  and  C_2
REMARK    2  A    between atoms: C_5  and  C_8
REMARK    3  A    between atoms: C_10  and  N_28
REMARK    4  A    between atoms: N_13  and  C_15
REMARK    5  A    between atoms: C_15  and  C_16
REMARK    6  A    between atoms: N_18  and  C_19
REMARK    7  A    between atoms: C_21  and  C_27
REMARK    8  A    between atoms: C_23  and  C_25
REMARK    9  A    between atoms: C_29  and  C_31
REMARK                            x       y       z     vdW  Elec       q    Type
REMARK                         _______ _______ _______ _____ _____    ______ ____
ROOT
ATOM      1  C   UNL     1       0.250  -4.177   0.344  0.00  0.00    +0.093 A 
ATOM      2  C   UNL     1       0.368  -5.029   1.462  0.00  0.00    +0.059 A 
ATOM      3  C   UNL     1       0.483  -6.376   1.275  0.00  0.00    +0.102 A 
ATOM      4  C   UNL     1       0.482  -6.893  -0.044  0.00  0.00    +0.289 A 
ATOM      5  O   UNL     1       0.584  -8.095  -0.233  0.00  0.00    -0.264 OA
ATOM      6  N   UNL     1       0.368  -6.049  -1.089  0.00  0.00    -0.218 N 
ATOM      7  N   UNL     1       0.245  -4.672  -0.873  0.00  0.00    -0.168 NA
ENDROOT
BRANCH   1  12
ATOM      8  C   UNL     1      -0.238   1.508   1.122  0.00  0.00    +0.044 C 
ATOM      9  C   UNL     1      -0.111   0.021   0.918  0.00  0.00    -0.050 A 
ATOM     10  C   UNL     1      -0.115  -0.503  -0.362  0.00  0.00    +0.004 A 
ATOM     11  C   UNL     1       0.002  -1.864  -0.554  0.00  0.00    +0.010 A 
ATOM     12  C   UNL     1       0.124  -2.712   0.545  0.00  0.00    +0.002 A 
ATOM     13  C   UNL     1       0.128  -2.180   1.832  0.00  0.00    +0.010 A 
ATOM     14  C   UNL     1       0.016  -0.816   2.013  0.00  0.00    +0.004 A 
ENDBRANCH   1  12
BRANCH   3  15
ATOM     15  N   UNL     1       0.602  -7.234   2.372  0.00  0.00    -0.281 N 
ATOM     16  C   UNL     1      -0.315  -8.202   2.572  0.00  0.00    +0.214 C 
ATOM     17  O   UNL     1      -1.292  -8.269   1.856  0.00  0.00    -0.276 OA
ATOM     18  C   UNL     1      -0.126  -9.200   3.685  0.00  0.00    +0.109 C 
ATOM     19  H   UNL     1       1.344  -7.133   2.988  0.00  0.00    +0.155 HD
ENDBRANCH   3  15
BRANCH   6  20
ATOM     20  C   UNL     1       0.366  -6.576  -2.456  0.00  0.00    +0.243 C 
BRANCH  20  21
ATOM     21  C   UNL     1      -1.049  -6.885  -2.873  0.00  0.00    +0.239 C 
ATOM     22  O   UNL     1      -1.966  -6.685  -2.104  0.00  0.00    -0.273 OA
ATOM     23  N   UNL     1      -1.296  -7.384  -4.100  0.00  0.00    -0.284 N 
ATOM     24  H   UNL     1      -0.559  -7.618  -4.686  0.00  0.00    +0.155 HD
BRANCH  23  25
ATOM     25  C   UNL     1      -2.616  -7.565  -4.530  0.00  0.00    +0.034 A 
ATOM     26  C   UNL     1      -2.941  -8.641  -5.345  0.00  0.00    +0.027 A 
ATOM     27  C   UNL     1      -4.244  -8.817  -5.767  0.00  0.00    -0.034 A 
ATOM     28  C   UNL     1      -5.226  -7.922  -5.378  0.00  0.00    +0.024 A 
ATOM     29  C   UNL     1      -4.904  -6.849  -4.566  0.00  0.00    -0.034 A 
ATOM     30  C   UNL     1      -3.604  -6.671  -4.137  0.00  0.00    +0.027 A 
ATOM     31  C   UNL     1      -5.976  -5.876  -4.145  0.00  0.00    +0.045 C 
ATOM     32 BR   UNL     1      -7.009  -8.166  -5.958  0.00  0.00    -0.050 Br
ATOM     33  C   UNL     1      -4.598  -9.984  -6.652  0.00  0.00    +0.045 C 
ENDBRANCH  23  25
ENDBRANCH  20  21
ENDBRANCH   6  20
TORSDOF 5
