REMARK  Name = ZINC38595287
REMARK  18 active torsions:
REMARK  status: ('A' for Active; 'I' for Inactive)
REMARK    1  A    between atoms: C_1  and  C_2
REMARK    2  A    between atoms: C_2  and  O_4
REMARK    3  A    between atoms: O_4  and  C_5
REMARK    4  A    between atoms: C_7  and  O_33
REMARK    5  A    between atoms: C_11  and  C_32
REMARK    6  A    between atoms: C_12  and  O_19
REMARK    7  A    between atoms: C_16  and  C_17
REMARK    8  A    between atoms: C_16  and  C_18
REMARK    9  A    between atoms: C_20  and  O_31
REMARK   10  A    between atoms: C_21  and  C_30
REMARK   11  A    between atoms: C_23  and  C_27
REMARK   12  A    between atoms: C_23  and  C_28
REMARK   13  A    between atoms: O_33  and  C_34
REMARK   14  A    between atoms: C_34  and  C_36
REMARK   15  A    between atoms: C_36  and  C_37
REMARK   16  A    between atoms: C_37  and  N_38
REMARK   17  A    between atoms: N_38  and  C_39
REMARK   18  A    between atoms: N_38  and  C_40
REMARK                            x       y       z     vdW  Elec       q    Type
REMARK                         _______ _______ _______ _____ _____    ______ ____
ROOT
ATOM      1  C   UNL     1      -0.197  -2.513  -1.290  0.00  0.00    +0.252 C 
ATOM      2  C   UNL     1      -1.610  -3.087  -1.177  0.00  0.00    +0.224 C 
ATOM      3  C   UNL     1      -1.575  -4.607  -1.153  0.00  0.00    +0.051 C 
ATOM      4  C   UNL     1      -0.914  -5.179  -2.402  0.00  0.00    +0.039 C 
ATOM      5  C   UNL     1      -0.826  -6.710  -2.267  0.00  0.00    +0.124 C 
ATOM      6  C   UNL     1      -2.231  -7.286  -2.079  0.00  0.00    +0.032 C 
ATOM      7  C   UNL     1      -2.813  -6.773  -0.767  0.00  0.00    +0.009 C 
ATOM      8  C   UNL     1      -2.884  -5.244  -0.743  0.00  0.00    -0.028 C 
ATOM      9  C   UNL     1      -3.175  -4.851   0.728  0.00  0.00    +0.011 C 
ATOM     10  C   UNL     1      -4.081  -4.784  -1.572  0.00  0.00    +0.011 C 
ATOM     11  C   UNL     1       0.488  -4.605  -2.499  0.00  0.00    +0.164 C 
ATOM     12  C   UNL     1       0.566  -3.080  -2.484  0.00  0.00    +0.144 C 
ATOM     13  O   UNL     1       1.947  -2.736  -2.354  0.00  0.00    -0.356 OA
ATOM     14  C   UNL     1       2.948  -3.260  -3.191  0.00  0.00    +0.092 C 
ATOM     15  C   UNL     1       2.732  -4.676  -3.711  0.00  0.00    +0.116 C 
ATOM     16  C   UNL     1       1.262  -5.053  -3.718  0.00  0.00    +0.171 C 
ATOM     17  O   UNL     1       0.787  -5.673  -4.633  0.00  0.00    -0.294 OA
ATOM     18  C   UNL     1       3.201  -2.326  -4.388  0.00  0.00    +0.046 C 
ATOM     19  C   UNL     1       0.050  -2.441  -3.771  0.00  0.00    +0.049 C 
ATOM     20  C   UNL     1      -1.730  -4.892  -3.664  0.00  0.00    +0.017 C 
ENDROOT
BRANCH   5  21
ATOM     21  O   UNL     1      -0.032  -7.075  -1.140  0.00  0.00    -0.391 OA
ATOM     22  H   UNL     1       0.053  -8.030  -1.012  0.00  0.00    +0.210 HD
ENDBRANCH   5  21
BRANCH  14  23
ATOM     23  C   UNL     1       4.248  -3.277  -2.388  0.00  0.00    -0.000 C 
ATOM     24  C   UNL     1       4.260  -2.846  -1.151  0.00  0.00    +0.007 C 
ENDBRANCH  14  23
BRANCH  11  25
ATOM     25  O   UNL     1       1.244  -5.051  -1.345  0.00  0.00    -0.377 OA
ATOM     26  H   UNL     1       2.156  -4.730  -1.324  0.00  0.00    +0.211 HD
ENDBRANCH  11  25
BRANCH   1  27
ATOM     27  O   UNL     1      -0.278  -1.088  -1.422  0.00  0.00    -0.455 OA
BRANCH  27  29
ATOM     28  C   UNL     1      -0.376   1.132  -0.346  0.00  0.00    +0.136 C 
ATOM     29  C   UNL     1      -0.292  -0.371  -0.287  0.00  0.00    +0.304 C 
ATOM     30  O   UNL     1      -0.238  -0.931   0.782  0.00  0.00    -0.251 OA
ENDBRANCH  27  29
ENDBRANCH   1  27
BRANCH   2  31
ATOM     31  O   UNL     1      -2.439  -2.557  -2.203  0.00  0.00    -0.457 OA
BRANCH  31  32
ATOM     32  C   UNL     1      -3.105  -1.425  -1.923  0.00  0.00    +0.306 C 
ATOM     33  O   UNL     1      -2.984  -0.905  -0.840  0.00  0.00    -0.251 OA
BRANCH  32  34
ATOM     34  C   UNL     1      -4.004  -0.804  -2.961  0.00  0.00    +0.102 C 
BRANCH  34  35
ATOM     35  C   UNL     1      -4.638   0.467  -2.392  0.00  0.00    -0.068 C 
BRANCH  35  36
ATOM     36  N   UNL     1      -5.514   1.072  -3.404  0.00  0.00    +0.376 N 
ATOM     37  C   UNL     1      -6.638   0.169  -3.683  0.00  0.00    -0.097 C 
ATOM     38  C   UNL     1      -6.028   2.354  -2.903  0.00  0.00    -0.097 C 
ATOM     39  H   UNL     1      -4.990   1.229  -4.252  0.00  0.00    -0.083 HD
ENDBRANCH  35  36
ENDBRANCH  34  35
ENDBRANCH  32  34
ENDBRANCH  31  32
ENDBRANCH   2  31
TORSDOF 10
