REMARK  Name = ZINC36556730
REMARK  15 active torsions:
REMARK  status: ('A' for Active; 'I' for Inactive)
REMARK    1  A    between atoms: C_1  and  C_2
REMARK    2  A    between atoms: C_2  and  O_3
REMARK    3  A    between atoms: O_3  and  C_4
REMARK    4  A    between atoms: C_4  and  C_6
REMARK    5  A    between atoms: C_8  and  C_34
REMARK    6  A    between atoms: C_10  and  C_29
REMARK    7  A    between atoms: C_12  and  C_27
REMARK    8  A    between atoms: C_12  and  O_28
REMARK    9  A    between atoms: N_15  and  N_16
REMARK   10  A    between atoms: N_16  and  S_17
REMARK   11  A    between atoms: S_17  and  C_20
REMARK   12  A    between atoms: C_23  and  C_26
REMARK   13  A    between atoms: C_29  and  O_31
REMARK   14  A    between atoms: O_31  and  C_32
REMARK   15  A    between atoms: C_32  and  C_33
REMARK                            x       y       z     vdW  Elec       q    Type
REMARK                         _______ _______ _______ _____ _____    ______ ____
ROOT
ATOM      1  C   UNL     1       1.539  -2.477   2.131  0.00  0.00    +0.152 C 
ATOM      2  C   UNL     1       1.392  -3.838   2.818  0.00  0.00    +0.055 C 
ATOM      3  C   UNL     1       2.296  -4.858   2.123  0.00  0.00    +0.138 C 
ATOM      4  C   UNL     1       3.761  -4.449   2.286  0.00  0.00    +0.082 C 
ATOM      5  C   UNL     1       3.997  -3.111   1.579  0.00  0.00    +0.088 C 
ATOM      6  C   UNL     1       3.004  -2.097   2.115  0.00  0.00    +0.055 C 
ATOM      7  N   UNL     1       3.391  -0.955   2.544  0.00  0.00    -0.174 NA
ATOM      8  C   UNL     1       4.088  -4.305   3.774  0.00  0.00    +0.042 C 
ENDROOT
BRANCH   2   9
ATOM      9  C   UNL     1      -0.041  -4.294   2.729  0.00  0.00    -0.042 A 
ATOM     10  C   UNL     1      -0.534  -4.797   1.540  0.00  0.00    +0.004 A 
ATOM     11  C   UNL     1      -1.850  -5.215   1.458  0.00  0.00    +0.000 A 
ATOM     12  C   UNL     1      -2.672  -5.130   2.566  0.00  0.00    +0.000 A 
ATOM     13  C   UNL     1      -2.178  -4.628   3.756  0.00  0.00    +0.000 A 
ATOM     14  C   UNL     1      -0.862  -4.214   3.839  0.00  0.00    +0.004 A 
ENDBRANCH   2   9
BRANCH   1  15
ATOM     15  C   UNL     1       1.024  -2.564   0.718  0.00  0.00    +0.316 C 
ATOM     16  O   UNL     1       1.741  -2.978  -0.163  0.00  0.00    -0.250 OA
BRANCH  15  17
ATOM     17  O   UNL     1      -0.233  -2.184   0.437  0.00  0.00    -0.464 OA
BRANCH  17  19
ATOM     18  C   UNL     1      -2.103  -1.818  -1.049  0.00  0.00    +0.048 C 
ATOM     19  C   UNL     1      -0.655  -2.294  -0.924  0.00  0.00    +0.229 C 
ENDBRANCH  17  19
ENDBRANCH  15  17
ENDBRANCH   1  15
BRANCH   7  20
ATOM     20  N   UNL     1       4.731  -0.572   2.404  0.00  0.00    -0.137 N 
ATOM     21  H   UNL     1       5.350  -1.140   1.920  0.00  0.00    +0.197 HD
BRANCH  20  22
ATOM     22  S   UNL     1       5.258   0.853   3.065  0.00  0.00    +0.086 S 
ATOM     23  O   UNL     1       6.666   0.888   2.882  0.00  0.00    -0.149 OA
ATOM     24  O   UNL     1       4.399   1.872   2.571  0.00  0.00    -0.149 OA
BRANCH  22  25
ATOM     25  C   UNL     1       4.977   0.756   4.802  0.00  0.00    +0.110 A 
ATOM     26  C   UNL     1       3.775   1.186   5.332  0.00  0.00    +0.029 A 
ATOM     27  C   UNL     1       3.555   1.111   6.695  0.00  0.00    +0.005 A 
ATOM     28  C   UNL     1       4.537   0.605   7.527  0.00  0.00    -0.050 A 
ATOM     29  C   UNL     1       5.738   0.174   6.996  0.00  0.00    +0.005 A 
ATOM     30  C   UNL     1       5.957   0.246   5.633  0.00  0.00    +0.029 A 
ATOM     31  C   UNL     1       4.297   0.524   9.012  0.00  0.00    +0.044 C 
ENDBRANCH  22  25
ENDBRANCH  20  22
ENDBRANCH   7  20
BRANCH   4  32
ATOM     32  O   UNL     1       4.602  -5.449   1.707  0.00  0.00    -0.388 OA
ATOM     33  H   UNL     1       5.547  -5.255   1.774  0.00  0.00    +0.210 HD
ENDBRANCH   4  32
BRANCH   3  34
ATOM     34  C   UNL     1       2.085  -6.217   2.741  0.00  0.00    +0.314 C 
ATOM     35  O   UNL     1       1.294  -6.354   3.643  0.00  0.00    -0.250 OA
BRANCH  34  36
ATOM     36  O   UNL     1       2.777  -7.274   2.288  0.00  0.00    -0.465 OA
BRANCH  36  37
ATOM     37  C   UNL     1       2.527  -8.532   2.920  0.00  0.00    +0.229 C 
ATOM     38  C   UNL     1       3.400  -9.609   2.274  0.00  0.00    +0.048 C 
ENDBRANCH  36  37
ENDBRANCH  34  36
ENDBRANCH   3  34
TORSDOF 11
