REMARK  Name = ZINC44243859
REMARK  8 active torsions:
REMARK  status: ('A' for Active; 'I' for Inactive)
REMARK    1  A    between atoms: C_1  and  C_2
REMARK    2  A    between atoms: C_2  and  C_3
REMARK    3  A    between atoms: C_3  and  C_4
REMARK    4  A    between atoms: C_4  and  C_6
REMARK    5  A    between atoms: C_4  and  N_10
REMARK    6  A    between atoms: N_7  and  O_8
REMARK    7  A    between atoms: N_10  and  S_11
REMARK    8  A    between atoms: S_11  and  C_14
REMARK                            x       y       z     vdW  Elec       q    Type
REMARK                         _______ _______ _______ _____ _____    ______ ____
ROOT
ATOM      1  N   UNL     1      -0.834  -2.537  -1.256  0.00  0.00    -0.180 NA
ATOM      2  H   UNL     1      -0.995  -2.048  -2.077  0.00  0.00    +0.149 HD
ENDROOT
BRANCH   1   3
ATOM      3  S   UNL     1       0.094  -3.908  -1.277  0.00  0.00    +0.060 S 
ATOM      4  O   UNL     1       0.480  -4.117  -2.628  0.00  0.00    -0.153 OA
ATOM      5  O   UNL     1       1.042  -3.773  -0.226  0.00  0.00    -0.153 OA
BRANCH   3   6
ATOM      6  C   UNL     1      -0.955  -5.255  -0.839  0.00  0.00    +0.124 A 
ATOM      7  C   UNL     1      -1.107  -5.622   0.490  0.00  0.00    +0.046 A 
ATOM      8  C   UNL     1      -1.943  -6.688   0.788  0.00  0.00    +0.038 A 
ATOM      9  C   UNL     1      -2.592  -7.344  -0.243  0.00  0.00    +0.126 A 
ATOM     10  N   UNL     1      -2.422  -6.966  -1.495  0.00  0.00    -0.260 NA
ATOM     11  C   UNL     1      -1.640  -5.953  -1.814  0.00  0.00    +0.139 A 
ATOM     12 BR   UNL     1      -2.192  -7.239   2.580  0.00  0.00    -0.049 Br
ENDBRANCH   3   6
ENDBRANCH   1   3
BRANCH   1  13
ATOM     13  C   UNL     1      -1.413  -2.063   0.004  0.00  0.00    +0.143 C 
BRANCH  13  14
ATOM     14  C   UNL     1      -2.820  -2.586   0.139  0.00  0.00    +0.150 C 
ATOM     15  N   UNL     1      -3.564  -2.713  -0.909  0.00  0.00    -0.075 NA
ATOM     16  N   UNL     1      -3.312  -2.927   1.379  0.00  0.00    -0.343 N 
ATOM     17  H   UNL     1      -2.753  -2.831   2.166  0.00  0.00    +0.144 HD
ATOM     18  H   UNL     1      -4.218  -3.263   1.466  0.00  0.00    +0.144 HD
BRANCH  15  19
ATOM     19  O   UNL     1      -4.886  -3.204  -0.783  0.00  0.00    -0.408 OA
ATOM     20  H   UNL     1      -5.365  -3.264  -1.621  0.00  0.00    +0.328 HD
ENDBRANCH  15  19
ENDBRANCH  13  14
BRANCH  13  21
ATOM     21  C   UNL     1      -1.433  -0.534   0.013  0.00  0.00    +0.028 C 
BRANCH  21  23
ATOM     22  C   UNL     1      -0.019   1.526   0.010  0.00  0.00    +0.004 C 
ATOM     23  C   UNL     1       0.002  -0.004   0.002  0.00  0.00    -0.001 C 
ENDBRANCH  21  23
ENDBRANCH  13  21
ENDBRANCH   1  13
TORSDOF 7
