REMARK  Name = ZINC10233702
REMARK  9 active torsions:
REMARK  status: ('A' for Active; 'I' for Inactive)
REMARK    1  A    between atoms: C_1  and  C_2
REMARK    2  A    between atoms: C_2  and  C_3
REMARK    3  A    between atoms: C_3  and  C_5
REMARK    4  A    between atoms: C_3  and  N_6
REMARK    5  A    between atoms: C_7  and  C_24
REMARK    6  A    between atoms: C_8  and  C_23
REMARK    7  A    between atoms: N_16  and  C_21
REMARK    8  A    between atoms: N_19  and  C_20
REMARK    9  A    between atoms: C_21  and  C_22
REMARK                            x       y       z     vdW  Elec       q    Type
REMARK                         _______ _______ _______ _____ _____    ______ ____
ROOT
ATOM      1  N   UNL     1      -0.018   1.461   0.010  0.00  0.00    -0.311 N 
ATOM      2  C   UNL     1       1.088   2.290   0.004  0.00  0.00    +0.039 A 
ATOM      3  C   UNL     1       0.662   3.549   0.015  0.00  0.00    +0.043 A 
ATOM      4  N   UNL     1      -0.722   3.541   0.028  0.00  0.00    -0.275 N 
ATOM      5  C   UNL     1      -1.136   2.252   0.019  0.00  0.00    +0.218 A 
ATOM      6  N   UNL     1      -2.460   2.218   0.037  0.00  0.00    -0.193 NA
ATOM      7  C   UNL     1      -2.946   3.457   0.048  0.00  0.00    +0.170 A 
ATOM      8  C   UNL     1      -1.861   4.332   0.043  0.00  0.00    +0.157 A 
ATOM      9  C   UNL     1      -2.098   5.716   0.053  0.00  0.00    +0.283 A 
ATOM     10  O   UNL     1      -1.165   6.501   0.048  0.00  0.00    -0.265 OA
ATOM     11  N   UNL     1      -3.369   6.169   0.067  0.00  0.00    -0.259 N 
ATOM     12  C   UNL     1      -4.409   5.318   0.072  0.00  0.00    +0.333 A 
ATOM     13  O   UNL     1      -5.540   5.763   0.085  0.00  0.00    -0.246 OA
ATOM     14  N   UNL     1      -4.229   3.983   0.063  0.00  0.00    -0.279 N 
ATOM     15  C   UNL     1      -5.388   3.088   0.069  0.00  0.00    +0.155 C 
ATOM     16  C   UNL     1       1.537   4.777   0.012  0.00  0.00    +0.066 C 
ATOM     17  C   UNL     1       2.527   1.843  -0.012  0.00  0.00    +0.065 C 
ENDROOT
BRANCH   1  18
ATOM     18  C   UNL     1       0.002  -0.004   0.002  0.00  0.00    +0.087 C 
ATOM     19  C   UNL     1      -0.724  -0.517  -1.243  0.00  0.00    +0.031 C 
BRANCH  18  21
ATOM     20  C   UNL     1      -0.571  -2.054   1.310  0.00  0.00    +0.006 C 
ATOM     21  C   UNL     1      -0.700  -0.530   1.255  0.00  0.00    +0.021 C 
ENDBRANCH  18  21
ENDBRANCH   1  18
BRANCH  11  22
ATOM     22  C   UNL     1      -3.619   7.612   0.076  0.00  0.00    +0.126 C 
ATOM     23  C   UNL     1      -3.692   8.107   1.522  0.00  0.00    +0.027 C 
ENDBRANCH  11  22
TORSDOF 3
