REMARK  Name = ZINC20494084
REMARK  7 active torsions:
REMARK  status: ('A' for Active; 'I' for Inactive)
REMARK    1  A    between atoms: C_6  and  N_7
REMARK    2  A    between atoms: C_8  and  C_10
REMARK    3  A    between atoms: C_10  and  S_11
REMARK    4  A    between atoms: S_11  and  C_12
REMARK    5  A    between atoms: N_17  and  N_18
REMARK    6  A    between atoms: C_19  and  C_20
REMARK    7  A    between atoms: C_25  and  O_26
REMARK                            x       y       z     vdW  Elec       q    Type
REMARK                         _______ _______ _______ _____ _____    ______ ____
ROOT
ATOM      1  C   UNL     1       8.534  -3.418   5.035  0.00  0.00    +0.211 A 
ATOM      2  N   UNL     1       9.145  -4.428   5.723  0.00  0.00    -0.186 NA
ATOM      3  C   UNL     1      10.361  -3.970   6.152  0.00  0.00    +0.232 A 
ATOM      4  N   UNL     1      10.494  -2.731   5.745  0.00  0.00    -0.245 N 
ATOM      5  N   UNL     1       9.338  -2.383   5.033  0.00  0.00    -0.144 NA
ATOM      6  N   UNL     1      11.289  -4.691   6.888  0.00  0.00    -0.205 N 
ATOM      7  H   UNL     1      11.074  -5.731   7.178  0.00  0.00    +0.177 HD
ATOM      8  H   UNL     1      11.407  -2.168   5.988  0.00  0.00    +0.192 HD
ENDROOT
BRANCH   6   9
ATOM      9  N   UNL     1      12.501  -4.096   7.262  0.00  0.00    -0.187 NA
ATOM     10  C   UNL     1      13.371  -4.771   7.951  0.00  0.00    +0.142 C 
BRANCH  10  11
ATOM     11  C   UNL     1      14.645  -4.145   8.345  0.00  0.00    +0.037 A 
ATOM     12  C   UNL     1      15.583  -4.867   9.086  0.00  0.00    +0.028 A 
ATOM     13  C   UNL     1      16.775  -4.275   9.451  0.00  0.00    +0.019 A 
ATOM     14  C   UNL     1      17.044  -2.966   9.086  0.00  0.00    +0.019 A 
ATOM     15  C   UNL     1      16.124  -2.242   8.352  0.00  0.00    +0.047 A 
ATOM     16  C   UNL     1      14.926  -2.823   7.973  0.00  0.00    +0.126 A 
ATOM     17 BR   UNL     1      18.044  -5.253  10.455  0.00  0.00    -0.050 Br
BRANCH  16  18
ATOM     18  O   UNL     1      14.023  -2.113   7.247  0.00  0.00    -0.506 OA
ATOM     19  H   UNL     1      14.245  -1.076   6.955  0.00  0.00    +0.292 HD
ENDBRANCH  16  18
ENDBRANCH  10  11
ENDBRANCH   6   9
BRANCH   1  20
ATOM     20  S   UNL     1       6.945  -3.497   4.276  0.00  0.00    -0.075 S 
BRANCH  20  21
ATOM     21  C   UNL     1       6.728  -1.852   3.542  0.00  0.00    +0.173 C 
BRANCH  21  23
ATOM     22  N   UNL     1       5.010  -0.649   2.231  0.00  0.00    -0.285 N 
ATOM     23  C   UNL     1       5.390  -1.783   2.851  0.00  0.00    +0.227 C 
ATOM     24  O   UNL     1       4.656  -2.748   2.854  0.00  0.00    -0.275 OA
ATOM     25  H   UNL     1       5.710   0.197   2.153  0.00  0.00    +0.155 HD
BRANCH  22  31
ATOM     26  C   UNL     1       2.657  -1.190   2.296  0.00  0.00    +0.027 A 
ATOM     27  C   UNL     1       1.388  -1.091   1.758  0.00  0.00    +0.051 A 
ATOM     28  C   UNL     1       1.177  -0.348   0.608  0.00  0.00    +0.166 A 
ATOM     29  C   UNL     1       2.245   0.300  -0.007  0.00  0.00    +0.168 A 
ATOM     30  C   UNL     1       3.517   0.200   0.532  0.00  0.00    +0.072 A 
ATOM     31  C   UNL     1       3.724  -0.546   1.685  0.00  0.00    +0.037 A 
ATOM     32  O   UNL     1       1.781   0.958  -1.110  0.00  0.00    -0.453 OA
ATOM     33  C   UNL     1       0.354   1.043  -0.933  0.00  0.00    +0.466 C 
ATOM     34  O   UNL     1       0.042  -0.095  -0.109  0.00  0.00    -0.453 OA
ENDBRANCH  22  31
ENDBRANCH  21  23
ENDBRANCH  20  21
ENDBRANCH   1  20
TORSDOF 7
