REMARK  Name = ZINC09912356
REMARK  8 active torsions:
REMARK  status: ('A' for Active; 'I' for Inactive)
REMARK    1  A    between atoms: C_1  and  C_2
REMARK    2  A    between atoms: C_2  and  C_3
REMARK    3  A    between atoms: C_2  and  C_4
REMARK    4  A    between atoms: C_4  and  C_5
REMARK    5  A    between atoms: C_5  and  C_7
REMARK    6  A    between atoms: C_5  and  N_26
REMARK    7  A    between atoms: C_14  and  C_15
REMARK    8  A    between atoms: C_14  and  N_62
REMARK                            x       y       z     vdW  Elec       q    Type
REMARK                         _______ _______ _______ _____ _____    ______ ____
ROOT
ATOM      1  C   UNL     1      -1.040   0.694   2.140  0.00  0.00    +0.236 C 
ATOM      2  O   UNL     1      -1.012  -0.512   2.022  0.00  0.00    -0.274 OA
ATOM      3  N   UNL     1      -0.594   1.480   1.140  0.00  0.00    -0.303 N 
ATOM      4  C   UNL     1       0.045   0.897  -0.050  0.00  0.00    +0.089 C 
ATOM      5  C   UNL     1      -0.634   1.467  -1.300  0.00  0.00    -0.059 C 
ATOM      6  C   UNL     1      -1.385   3.432  -0.093  0.00  0.00    -0.059 C 
ATOM      7  C   UNL     1      -0.736   2.943   1.207  0.00  0.00    +0.089 C 
ATOM      8  N   UNL     1      -0.583   2.944  -1.236  0.00  0.00    +0.386 N 
ATOM      9  H   UNL     1       0.392   3.238  -1.109  0.00  0.00    -0.081 HD
ENDROOT
BRANCH   1  10
ATOM     10  C   UNL     1      -1.574   1.315   3.405  0.00  0.00    +0.171 C 
BRANCH  10  11
ATOM     11  N   UNL     1      -1.612   0.306   4.467  0.00  0.00    -0.222 N 
ATOM     12  C   UNL     1      -2.404  -0.781   4.455  0.00  0.00    +0.254 C 
ATOM     13  O   UNL     1      -3.189  -1.078   3.577  0.00  0.00    -0.270 OA
ATOM     14  C   UNL     1      -2.158  -1.556   5.689  0.00  0.00    +0.049 A 
ATOM     15  C   UNL     1      -2.666  -2.736   6.210  0.00  0.00    +0.014 A 
ATOM     16  C   UNL     1      -2.211  -3.200   7.434  0.00  0.00    +0.001 A 
ATOM     17  C   UNL     1      -1.253  -2.495   8.138  0.00  0.00    +0.001 A 
ATOM     18  C   UNL     1      -0.735  -1.313   7.630  0.00  0.00    +0.014 A 
ATOM     19  C   UNL     1      -1.181  -0.837   6.408  0.00  0.00    +0.049 A 
ATOM     20  C   UNL     1      -0.864   0.348   5.583  0.00  0.00    +0.254 C 
ATOM     21  O   UNL     1      -0.061   1.214   5.867  0.00  0.00    -0.270 OA
ENDBRANCH  10  11
BRANCH  10  22
ATOM     22  C   UNL     1      -2.988   1.846   3.155  0.00  0.00    +0.035 C 
BRANCH  22  24
ATOM     23  C   UNL     1      -2.652   3.775   4.707  0.00  0.00    +0.007 C 
ATOM     24  C   UNL     1      -3.504   2.537   4.419  0.00  0.00    -0.015 C 
ATOM     25  C   UNL     1      -4.960   2.957   4.212  0.00  0.00    +0.007 C 
ENDBRANCH  22  24
ENDBRANCH  10  22
ENDBRANCH   1  10
BRANCH   8  26
ATOM     26  C   UNL     1      -1.098   3.521  -2.495  0.00  0.00    -0.003 C 
BRANCH  26  27
ATOM     27  C   UNL     1      -0.834   5.004  -2.493  0.00  0.00    +0.094 A 
ATOM     28  N   UNL     1      -1.215   5.730  -3.577  0.00  0.00    -0.311 N 
ATOM     29  H   UNL     1      -1.644   5.296  -4.330  0.00  0.00    +0.170 HD
ATOM     30  C   UNL     1      -0.987   7.066  -3.595  0.00  0.00    +0.266 A 
ATOM     31  O   UNL     1      -1.316   7.745  -4.553  0.00  0.00    -0.267 OA
ATOM     32  C   UNL     1      -0.366   7.642  -2.486  0.00  0.00    +0.102 A 
ATOM     33  C   UNL     1       0.018   6.868  -1.377  0.00  0.00    +0.085 A 
ATOM     34  N   UNL     1      -0.261   5.526  -1.456  0.00  0.00    -0.235 NA
ATOM     35  C   UNL     1       0.632   7.573  -0.333  0.00  0.00    +0.036 A 
ATOM     36  C   UNL     1       0.821   8.907  -0.433  0.00  0.00    +0.048 A 
ATOM     37  S   UNL     1       0.135   9.283  -2.037  0.00  0.00    -0.090 S 
ENDBRANCH  26  27
ENDBRANCH   8  26
TORSDOF 6
