REMARK  Name = ZINC02067283
REMARK  10 active torsions:
REMARK  status: ('A' for Active; 'I' for Inactive)
REMARK    1  A    between atoms: C_1  and  C_2
REMARK    2  A    between atoms: C_2  and  O_3
REMARK    3  A    between atoms: O_3  and  C_4
REMARK    4  A    between atoms: C_4  and  C_6
REMARK    5  A    between atoms: C_7  and  C_27
REMARK    6  A    between atoms: C_10  and  N_11
REMARK    7  A    between atoms: N_11  and  C_12
REMARK    8  A    between atoms: C_12  and  C_14
REMARK    9  A    between atoms: C_12  and  N_18
REMARK   10  A    between atoms: C_19  and  C_21
REMARK                            x       y       z     vdW  Elec       q    Type
REMARK                         _______ _______ _______ _____ _____    ______ ____
ROOT
ATOM      1  N   UNL     1       6.720  -0.622  -1.400  0.00  0.00    -0.316 N 
ATOM      2  H   UNL     1       7.127   0.206  -1.701  0.00  0.00    +0.148 HD
ENDROOT
BRANCH   1   7
ATOM      3  C   UNL     1       7.196  -1.835  -3.525  0.00  0.00    +0.095 A 
ATOM      4  C   UNL     1       7.032  -3.122  -4.178  0.00  0.00    +0.005 A 
ATOM      5  C   UNL     1       6.405  -4.091  -3.466  0.00  0.00    +0.056 A 
ATOM      6  S   UNL     1       6.038  -3.292  -1.917  0.00  0.00    -0.081 S 
ATOM      7  C   UNL     1       6.695  -1.722  -2.234  0.00  0.00    +0.082 A 
BRANCH   4   8
ATOM      8  C   UNL     1       7.525  -3.364  -5.554  0.00  0.00    -0.017 A 
ATOM      9  C   UNL     1       7.201  -2.477  -6.580  0.00  0.00    +0.008 A 
ATOM     10  C   UNL     1       7.668  -2.704  -7.858  0.00  0.00    +0.001 A 
ATOM     11  C   UNL     1       8.445  -3.816  -8.126  0.00  0.00    +0.000 A 
ATOM     12  C   UNL     1       8.765  -4.703  -7.114  0.00  0.00    +0.001 A 
ATOM     13  C   UNL     1       8.309  -4.483  -5.830  0.00  0.00    +0.008 A 
ENDBRANCH   4   8
BRANCH   3  14
ATOM     14  C   UNL     1       7.836  -0.748  -4.174  0.00  0.00    +0.342 C 
ATOM     15  O   UNL     1       9.038  -0.596  -4.064  0.00  0.00    -0.245 OA
BRANCH  14  16
ATOM     16  O   UNL     1       7.111   0.118  -4.912  0.00  0.00    -0.461 OA
BRANCH  16  18
ATOM     17  C   UNL     1       6.839   2.061  -6.324  0.00  0.00    +0.048 C 
ATOM     18  C   UNL     1       7.820   1.190  -5.537  0.00  0.00    +0.229 C 
ENDBRANCH  16  18
ENDBRANCH  14  16
ENDBRANCH   3  14
ENDBRANCH   1   7
BRANCH   1  19
ATOM     19  C   UNL     1       6.132  -0.704  -0.061  0.00  0.00    +0.211 C 
BRANCH  19  20
ATOM     20  C   UNL     1       7.083  -0.066   0.954  0.00  0.00    +0.225 C 
ATOM     21 CL   UNL     1       6.360  -0.167   2.602  0.00  0.00    -0.080 Cl
ATOM     22 CL   UNL     1       8.659  -0.942   0.934  0.00  0.00    -0.080 Cl
ATOM     23 CL   UNL     1       7.351   1.664   0.521  0.00  0.00    -0.080 Cl
ENDBRANCH  19  20
BRANCH  19  24
ATOM     24  N   UNL     1       4.852   0.008  -0.045  0.00  0.00    -0.290 N 
ATOM     25  C   UNL     1       3.696  -0.685  -0.037  0.00  0.00    +0.246 C 
ATOM     26  O   UNL     1       3.715  -1.900  -0.044  0.00  0.00    -0.270 OA
ATOM     27  H   UNL     1       4.836   0.978  -0.039  0.00  0.00    +0.151 HD
BRANCH  25  28
ATOM     28  C   UNL     1       2.403   0.034  -0.021  0.00  0.00    +0.037 A 
ATOM     29  C   UNL     1       1.204  -0.681  -0.013  0.00  0.00    +0.013 A 
ATOM     30  C   UNL     1       0.002  -0.004   0.002  0.00  0.00    +0.001 A 
ATOM     31  C   UNL     1      -0.017   1.379   0.010  0.00  0.00    +0.000 A 
ATOM     32  C   UNL     1       1.168   2.094   0.002  0.00  0.00    +0.001 A 
ATOM     33  C   UNL     1       2.377   1.429  -0.013  0.00  0.00    +0.013 A 
ENDBRANCH  25  28
ENDBRANCH  19  24
ENDBRANCH   1  19
TORSDOF 9
