REMARK  Name = ZINC23259736
REMARK  14 active torsions:
REMARK  status: ('A' for Active; 'I' for Inactive)
REMARK    1  A    between atoms: C_1  and  C_2
REMARK    2  A    between atoms: C_2  and  N_3
REMARK    3  A    between atoms: C_7  and  S_28
REMARK    4  A    between atoms: C_11  and  C_12
REMARK    5  A    between atoms: C_12  and  N_13
REMARK    6  A    between atoms: N_13  and  C_14
REMARK    7  A    between atoms: N_13  and  C_15
REMARK    8  A    between atoms: C_15  and  C_17
REMARK    9  A    between atoms: C_15  and  C_18
REMARK   10  A    between atoms: C_21  and  S_24
REMARK   11  A    between atoms: S_24  and  N_27
REMARK   12  A    between atoms: S_28  and  N_31
REMARK   13  A    between atoms: N_31  and  C_32
REMARK   14  A    between atoms: N_31  and  C_33
REMARK                            x       y       z     vdW  Elec       q    Type
REMARK                         _______ _______ _______ _____ _____    ______ ____
ROOT
ATOM      1  C   UNL     1       1.581   2.978   2.916  0.00  0.00    -0.003 C 
ENDROOT
BRANCH   1  10
ATOM      2  N   UNL     1      -0.089   1.060   2.889  0.00  0.00    -0.329 N 
ATOM      3  C   UNL     1      -0.357  -0.043   3.676  0.00  0.00    +0.069 A 
ATOM      4  C   UNL     1      -1.295  -1.064   3.621  0.00  0.00    +0.030 A 
ATOM      5  C   UNL     1      -1.295  -2.044   4.590  0.00  0.00    +0.030 A 
ATOM      6  C   UNL     1      -0.364  -2.016   5.619  0.00  0.00    +0.108 A 
ATOM      7  C   UNL     1       0.572  -1.023   5.685  0.00  0.00    +0.058 A 
ATOM      8  C   UNL     1       0.588  -0.016   4.716  0.00  0.00    +0.091 A 
ATOM      9  N   UNL     1       1.361   1.083   4.520  0.00  0.00    -0.234 NA
ATOM     10  C   UNL     1       0.964   1.712   3.452  0.00  0.00    +0.094 A 
BRANCH   6  11
ATOM     11  S   UNL     1      -0.382  -3.279   6.848  0.00  0.00    +0.060 S 
ATOM     12  O   UNL     1       0.236  -2.730   8.003  0.00  0.00    -0.153 OA
ATOM     13  O   UNL     1      -1.701  -3.807   6.868  0.00  0.00    -0.153 OA
BRANCH  11  14
ATOM     14  N   UNL     1       0.606  -4.495   6.314  0.00  0.00    -0.183 NA
ATOM     15  C   UNL     1       2.031  -4.485   6.656  0.00  0.00    +0.131 C 
ATOM     16  C   UNL     1       0.057  -5.582   5.499  0.00  0.00    +0.131 C 
ENDBRANCH  11  14
ENDBRANCH   6  11
BRANCH   2  18
ATOM     17  C   UNL     1      -0.150   0.814   0.457  0.00  0.00    +0.027 C 
ATOM     18  C   UNL     1      -0.810   1.458   1.678  0.00  0.00    +0.120 C 
ENDBRANCH   2  18
ENDBRANCH   1  10
BRANCH   1  19
ATOM     19  N   UNL     1       0.907   4.141   3.510  0.00  0.00    +0.387 N 
ATOM     20  C   UNL     1      -0.491   4.220   3.068  0.00  0.00    -0.095 C 
ATOM     21  H   UNL     1       0.910   4.012   4.602  0.00  0.00    -0.081 HD
BRANCH  19  22
ATOM     22  C   UNL     1       1.629   5.382   3.199  0.00  0.00    -0.041 C 
ATOM     23  C   UNL     1       1.492   5.693   1.708  0.00  0.00    -0.008 C 
BRANCH  22  24
ATOM     24  C   UNL     1       1.046   6.516   4.004  0.00  0.00    -0.061 A 
ATOM     25  C   UNL     1       0.994   7.789   3.467  0.00  0.00    +0.004 A 
ATOM     26  C   UNL     1       0.455   8.827   4.203  0.00  0.00    +0.029 A 
ATOM     27  C   UNL     1      -0.021   8.595   5.480  0.00  0.00    +0.105 A 
ATOM     28  C   UNL     1       0.036   7.324   6.019  0.00  0.00    +0.029 A 
ATOM     29  C   UNL     1       0.570   6.284   5.281  0.00  0.00    +0.004 A 
BRANCH  27  30
ATOM     30  S   UNL     1      -0.701   9.921   6.421  0.00  0.00    +0.056 S 
ATOM     31  O   UNL     1      -1.139  10.899   5.487  0.00  0.00    -0.153 OA
ATOM     32  O   UNL     1      -1.575   9.335   7.376  0.00  0.00    -0.153 OA
BRANCH  30  33
ATOM     33  N   UNL     1       0.543  10.604   7.274  0.00  0.00    -0.204 NA
ATOM     34  H   UNL     1       0.159  11.440   7.877  0.00  0.00    +0.144 HD
ATOM     35  H   UNL     1       1.306  10.978   6.574  0.00  0.00    +0.144 HD
ENDBRANCH  30  33
ENDBRANCH  27  30
ENDBRANCH  22  24
ENDBRANCH  19  22
ENDBRANCH   1  19
TORSDOF 9
