REMARK  Name = ZINC39666031
REMARK  9 active torsions:
REMARK  status: ('A' for Active; 'I' for Inactive)
REMARK    1  A    between atoms: C_1  and  C_2
REMARK    2  A    between atoms: C_5  and  O_8
REMARK    3  A    between atoms: O_8  and  C_9
REMARK    4  A    between atoms: C_9  and  C_11
REMARK    5  A    between atoms: C_9  and  C_12
REMARK    6  A    between atoms: C_12  and  N_13
REMARK    7  A    between atoms: C_14  and  C_16
REMARK    8  A    between atoms: C_27  and  C_29
REMARK    9  A    between atoms: C_31  and  C_36
REMARK                            x       y       z     vdW  Elec       q    Type
REMARK                         _______ _______ _______ _____ _____    ______ ____
ROOT
ATOM      1  C   UNL     1      -3.946  -6.883  -0.116  0.00  0.00    +0.100 C 
ATOM      2  C   UNL     1      -3.894  -6.391  -1.580  0.00  0.00    +0.121 C 
ATOM      3  N   UNL     1      -3.928  -7.630  -2.393  0.00  0.00    -0.296 N 
ATOM      4  C   UNL     1      -4.891  -8.508  -1.686  0.00  0.00    +0.115 C 
ATOM      5  C   UNL     1      -4.605  -8.271  -0.190  0.00  0.00    -0.004 C 
ATOM      6  C   UNL     1      -5.907  -8.281   0.605  0.00  0.00    -0.010 C 
ATOM      7  C   UNL     1      -6.513  -9.687   0.566  0.00  0.00    -0.082 C 
ATOM      8  N   UNL     1      -5.561 -10.649   1.136  0.00  0.00    +0.379 N 
ATOM      9  C   UNL     1      -4.348 -10.700   0.311  0.00  0.00    -0.082 C 
ATOM     10  C   UNL     1      -3.650  -9.338   0.340  0.00  0.00    -0.010 C 
ATOM     11  C   UNL     1      -3.240  -7.897  -3.520  0.00  0.00    +0.247 C 
ATOM     12  O   UNL     1      -2.529  -7.044  -4.015  0.00  0.00    -0.270 OA
ATOM     13  H   UNL     1      -5.317 -10.364   2.072  0.00  0.00    -0.086 HD
ATOM     14  H   UNL     1      -5.986 -11.563   1.165  0.00  0.00    -0.086 HD
ENDROOT
BRANCH  11  15
ATOM     15  C   UNL     1      -3.351  -9.227  -4.156  0.00  0.00    +0.040 A 
ATOM     16  C   UNL     1      -4.558  -9.927  -4.111  0.00  0.00    +0.025 A 
ATOM     17  C   UNL     1      -4.656 -11.167  -4.707  0.00  0.00    +0.058 A 
ATOM     18  C   UNL     1      -3.561 -11.720  -5.348  0.00  0.00    +0.050 A 
ATOM     19  C   UNL     1      -2.360 -11.032  -5.396  0.00  0.00    +0.125 A 
ATOM     20  C   UNL     1      -2.251  -9.785  -4.808  0.00  0.00    +0.051 A 
ATOM     21  F   UNL     1      -1.295 -11.577  -6.023  0.00  0.00    -0.205 F 
BRANCH  17  22
ATOM     22  C   UNL     1      -5.959 -11.923  -4.658  0.00  0.00    +0.418 C 
ATOM     23  F   UNL     1      -6.735 -11.586  -5.772  0.00  0.00    -0.166 F 
ATOM     24  F   UNL     1      -5.701 -13.298  -4.668  0.00  0.00    -0.166 F 
ATOM     25  F   UNL     1      -6.650 -11.587  -3.489  0.00  0.00    -0.166 F 
ENDBRANCH  17  22
ENDBRANCH  11  15
BRANCH   1  27
ATOM     26  N   UNL     1      -2.369  -6.990   1.786  0.00  0.00    -0.312 N 
ATOM     27  C   UNL     1      -2.554  -6.992   0.451  0.00  0.00    +0.218 C 
ATOM     28  O   UNL     1      -1.601  -7.082  -0.293  0.00  0.00    -0.275 OA
ATOM     29  H   UNL     1      -3.131  -6.918   2.382  0.00  0.00    +0.149 HD
BRANCH  26  30
ATOM     30  C   UNL     1      -1.015  -7.096   2.338  0.00  0.00    +0.148 C 
BRANCH  30  31
ATOM     31  C   UNL     1      -1.084  -7.069   3.866  0.00  0.00    +0.187 C 
ATOM     32  C   UNL     1       0.329  -7.180   4.442  0.00  0.00    +0.053 C 
BRANCH  31  33
ATOM     33  O   UNL     1      -1.679  -5.843   4.295  0.00  0.00    -0.488 OA
BRANCH  33  38
ATOM     34  C   UNL     1      -4.147  -5.832   9.357  0.00  0.00    +0.044 C 
ATOM     35  C   UNL     1      -3.487  -5.835   8.003  0.00  0.00    -0.050 A 
ATOM     36  C   UNL     1      -2.977  -7.012   7.487  0.00  0.00    +0.007 A 
ATOM     37  C   UNL     1      -2.370  -7.017   6.245  0.00  0.00    +0.046 A 
ATOM     38  C   UNL     1      -2.275  -5.840   5.516  0.00  0.00    +0.121 A 
ATOM     39  C   UNL     1      -2.788  -4.661   6.036  0.00  0.00    +0.046 A 
ATOM     40  C   UNL     1      -3.398  -4.662   7.276  0.00  0.00    +0.007 A 
ENDBRANCH  33  38
ENDBRANCH  31  33
ENDBRANCH  30  31
ENDBRANCH  26  30
ENDBRANCH   1  27
TORSDOF 7
