REMARK  Name = ZINC01570560
REMARK  10 active torsions:
REMARK  status: ('A' for Active; 'I' for Inactive)
REMARK    1  A    between atoms: C_1  and  C_2
REMARK    2  A    between atoms: C_2  and  C_21
REMARK    3  A    between atoms: C_5  and  C_17
REMARK    4  A    between atoms: C_7  and  C_13
REMARK    5  A    between atoms: C_13  and  C_14
REMARK    6  A    between atoms: C_13  and  C_15
REMARK    7  A    between atoms: C_13  and  O_16
REMARK    8  A    between atoms: C_17  and  C_18
REMARK    9  A    between atoms: C_17  and  C_19
REMARK   10  A    between atoms: C_17  and  C_20
REMARK                            x       y       z     vdW  Elec       q    Type
REMARK                         _______ _______ _______ _____ _____    ______ ____
ROOT
ATOM      1  C   UNL     1      -3.837   2.865   0.745  0.00  0.00    +0.049 C 
ATOM      2  C   UNL     1      -2.830   1.852   0.197  0.00  0.00    +0.120 C 
ATOM      3  C   UNL     1      -2.660   2.083  -1.281  0.00  0.00    +0.014 A 
ATOM      4  C   UNL     1      -3.573   2.397  -2.275  0.00  0.00    +0.012 A 
ATOM      5  C   UNL     1      -3.156   2.527  -3.585  0.00  0.00    -0.041 A 
ATOM      6  C   UNL     1      -1.827   2.347  -3.921  0.00  0.00    +0.012 A 
ATOM      7  C   UNL     1      -0.907   2.038  -2.932  0.00  0.00    +0.011 A 
ATOM      8  C   UNL     1      -1.327   1.914  -1.633  0.00  0.00    +0.129 A 
ATOM      9  S   UNL     1      -0.516   1.553  -0.100  0.00  0.00    +0.113 S 
ATOM     10  O   UNL     1      -0.386   0.141  -0.007  0.00  0.00    -0.142 OA
ATOM     11  O   UNL     1       0.581   2.448   0.025  0.00  0.00    -0.142 OA
ATOM     12  O   UNL     1      -1.590   1.990   0.917  0.00  0.00    -0.223 OA
ATOM     13  C   UNL     1      -3.376   0.440   0.419  0.00  0.00    +0.049 C 
ENDROOT
BRANCH   5  14
ATOM     14  C   UNL     1      -4.158   2.869  -4.657  0.00  0.00    -0.013 C 
ATOM     15  C   UNL     1      -3.448   2.954  -6.010  0.00  0.00    +0.015 C 
ATOM     16  C   UNL     1      -5.235   1.784  -4.713  0.00  0.00    +0.015 C 
ATOM     17  C   UNL     1      -4.808   4.216  -4.337  0.00  0.00    +0.015 C 
ENDBRANCH   5  14
BRANCH   7  18
ATOM     18  C   UNL     1       0.545   1.837  -3.282  0.00  0.00    +0.087 C 
ATOM     19  C   UNL     1       0.960   0.406  -2.938  0.00  0.00    +0.046 C 
ATOM     20  C   UNL     1       0.747   2.082  -4.779  0.00  0.00    +0.046 C 
BRANCH  18  21
ATOM     21  O   UNL     1       1.346   2.757  -2.537  0.00  0.00    -0.384 OA
ATOM     22  H   UNL     1       2.294   2.685  -2.713  0.00  0.00    +0.211 HD
ENDBRANCH  18  21
ENDBRANCH   7  18
TORSDOF 3
