REMARK  Name = ZINC13501097
REMARK  13 active torsions:
REMARK  status: ('A' for Active; 'I' for Inactive)
REMARK    1  A    between atoms: C_1  and  C_2
REMARK    2  A    between atoms: C_2  and  C_3
REMARK    3  A    between atoms: C_3  and  C_5
REMARK    4  A    between atoms: C_3  and  N_15
REMARK    5  A    between atoms: N_9  and  C_10
REMARK    6  A    between atoms: N_15  and  C_16
REMARK    7  A    between atoms: N_15  and  C_25
REMARK    8  A    between atoms: C_16  and  C_17
REMARK    9  A    between atoms: C_17  and  C_18
REMARK   10  A    between atoms: C_18  and  N_19
REMARK   11  A    between atoms: C_25  and  C_26
REMARK   12  A    between atoms: C_30  and  C_39
REMARK   13  A    between atoms: C_32  and  C_38
REMARK                            x       y       z     vdW  Elec       q    Type
REMARK                         _______ _______ _______ _____ _____    ______ ____
ROOT
ATOM      1  N   UNL     1      -1.223   7.771  -1.067  0.00  0.00    +0.389 N 
ATOM      2  H   UNL     1      -2.293   7.730  -1.318  0.00  0.00    -0.080 HD
ENDROOT
BRANCH   1   3
ATOM      3  C   UNL     1      -0.489   7.019  -2.095  0.00  0.00    +0.003 C 
BRANCH   3   4
ATOM      4  C   UNL     1       0.889   7.605  -2.257  0.00  0.00    +0.138 A 
ATOM      5  N   UNL     1       1.181   8.837  -2.598  0.00  0.00    -0.115 NA
ATOM      6  N   UNL     1       2.464   8.948  -2.628  0.00  0.00    -0.023 NA
ATOM      7  N   UNL     1       2.999   7.819  -2.316  0.00  0.00    -0.044 NA
ATOM      8  N   UNL     1       2.060   6.967  -2.074  0.00  0.00    -0.228 N 
BRANCH   8   9
ATOM      9  C   UNL     1       2.236   5.567  -1.679  0.00  0.00    +0.111 C 
ATOM     10  C   UNL     1       3.062   5.485  -0.378  0.00  0.00    +0.027 C 
ATOM     11  C   UNL     1       3.948   4.229  -0.570  0.00  0.00    +0.002 C 
ATOM     12  C   UNL     1       4.319   4.297  -2.072  0.00  0.00    +0.002 C 
ATOM     13  C   UNL     1       3.035   4.812  -2.756  0.00  0.00    +0.027 C 
ENDBRANCH   8   9
ENDBRANCH   3   4
BRANCH   3  15
ATOM     14  C   UNL     1      -2.565   6.349  -3.313  0.00  0.00    +0.002 C 
ATOM     15  C   UNL     1      -1.241   7.106  -3.425  0.00  0.00    -0.011 C 
ENDBRANCH   3  15
ENDBRANCH   1   3
BRANCH   1  16
ATOM     16  C   UNL     1      -0.816   9.182  -1.056  0.00  0.00    -0.076 C 
BRANCH  16  17
ATOM     17  C   UNL     1      -1.333   9.872  -2.320  0.00  0.00    -0.003 C 
BRANCH  17  18
ATOM     18  C   UNL     1      -1.052  11.373  -2.232  0.00  0.00    +0.083 C 
BRANCH  18  19
ATOM     19  N   UNL     1      -1.549  12.036  -3.446  0.00  0.00    -0.298 NA
ATOM     20  C   UNL     1      -0.784  11.613  -4.627  0.00  0.00    +0.112 C 
ATOM     21  C   UNL     1      -1.371  12.280  -5.874  0.00  0.00    +0.175 C 
ATOM     22  O   UNL     1      -1.358  13.699  -5.701  0.00  0.00    -0.377 OA
ATOM     23  C   UNL     1      -2.094  14.146  -4.559  0.00  0.00    +0.175 C 
ATOM     24  C   UNL     1      -1.514  13.498  -3.299  0.00  0.00    +0.112 C 
ENDBRANCH  18  19
ENDBRANCH  17  18
ENDBRANCH  16  17
ENDBRANCH   1  16
BRANCH   1  25
ATOM     25  C   UNL     1      -1.047   7.161   0.258  0.00  0.00    -0.037 C 
BRANCH  25  26
ATOM     26  C   UNL     1      -1.819   5.869   0.323  0.00  0.00    +0.001 A 
ATOM     27  C   UNL     1      -1.198   4.696   0.041  0.00  0.00    +0.017 A 
ATOM     28  C   UNL     1      -1.976   3.458   0.113  0.00  0.00    -0.001 A 
ATOM     29  C   UNL     1      -1.392   2.218  -0.166  0.00  0.00    +0.013 A 
ATOM     30  C   UNL     1      -2.145   1.081  -0.089  0.00  0.00    -0.050 A 
ATOM     31  C   UNL     1      -3.486   1.145   0.264  0.00  0.00    +0.008 A 
ATOM     32  C   UNL     1      -4.085   2.356   0.538  0.00  0.00    -0.026 A 
ATOM     33  C   UNL     1      -3.336   3.527   0.472  0.00  0.00    +0.052 A 
ATOM     34  N   UNL     1      -3.907   4.751   0.747  0.00  0.00    -0.322 N 
ATOM     35  H   UNL     1      -4.969   4.812   1.028  0.00  0.00    +0.169 HD
ATOM     36  C   UNL     1      -3.185   5.883   0.677  0.00  0.00    +0.251 A 
ATOM     37  O   UNL     1      -3.723   6.947   0.927  0.00  0.00    -0.268 OA
ATOM     38  C   UNL     1      -5.543   2.411   0.914  0.00  0.00    +0.046 C 
ATOM     39  C   UNL     1      -1.515  -0.254  -0.389  0.00  0.00    +0.044 C 
ENDBRANCH  25  26
ENDBRANCH   1  25
TORSDOF 10
