REMARK  Name = ZINC40218153
REMARK  7 active torsions:
REMARK  status: ('A' for Active; 'I' for Inactive)
REMARK    1  A    between atoms: C_3  and  S_18
REMARK    2  A    between atoms: C_5  and  C_6
REMARK    3  A    between atoms: C_6  and  C_7
REMARK    4  A    between atoms: C_7  and  N_8
REMARK    5  A    between atoms: N_8  and  S_9
REMARK    6  A    between atoms: S_9  and  C_12
REMARK    7  A    between atoms: S_18  and  N_21
REMARK                            x       y       z     vdW  Elec       q    Type
REMARK                         _______ _______ _______ _____ _____    ______ ____
ROOT
ATOM      1  C   UNL     1      -1.155  -0.969   0.008  0.00  0.00    +0.059 C 
ENDROOT
BRANCH   1   6
ATOM      2  C   UNL     1      -0.016   1.351   0.009  0.00  0.00    +0.013 A 
ATOM      3  C   UNL     1       1.183   2.038   0.002  0.00  0.00    +0.036 A 
ATOM      4  C   UNL     1       2.343   1.336  -0.013  0.00  0.00    +0.142 A 
ATOM      5  S   UNL     1       1.754  -0.349  -0.017  0.00  0.00    -0.073 S 
ATOM      6  C   UNL     1       0.002  -0.004   0.002  0.00  0.00    -0.007 A 
BRANCH   4   7
ATOM      7  S   UNL     1       4.001   1.932  -0.026  0.00  0.00    +0.062 S 
ATOM      8  O   UNL     1       4.799   0.900  -0.590  0.00  0.00    -0.153 OA
ATOM      9  O   UNL     1       3.957   3.244  -0.570  0.00  0.00    -0.153 OA
BRANCH   7  10
ATOM     10  N   UNL     1       4.477   2.089   1.552  0.00  0.00    -0.203 NA
ATOM     11  H   UNL     1       3.864   1.863   2.268  0.00  0.00    +0.144 HD
ATOM     12  H   UNL     1       5.369   2.408   1.760  0.00  0.00    +0.144 HD
ENDBRANCH   7  10
ENDBRANCH   4   7
ENDBRANCH   1   6
BRANCH   1  13
ATOM     13  C   UNL     1      -1.562  -1.288  -1.432  0.00  0.00    +0.111 C 
BRANCH  13  14
ATOM     14  N   UNL     1      -2.687  -2.226  -1.426  0.00  0.00    -0.189 NA
ATOM     15  H   UNL     1      -2.912  -2.708  -0.615  0.00  0.00    +0.148 HD
BRANCH  14  16
ATOM     16  S   UNL     1      -3.574  -2.463  -2.804  0.00  0.00    +0.065 S 
ATOM     17  O   UNL     1      -4.562  -3.435  -2.488  0.00  0.00    -0.153 OA
ATOM     18  O   UNL     1      -3.906  -1.174  -3.300  0.00  0.00    -0.153 OA
BRANCH  16  19
ATOM     19  C   UNL     1      -2.503  -3.201  -3.993  0.00  0.00    +0.143 A 
ATOM     20  C   UNL     1      -2.266  -4.514  -4.229  0.00  0.00    +0.037 A 
ATOM     21  C   UNL     1      -1.374  -4.866  -5.225  0.00  0.00    +0.025 A 
ATOM     22  C   UNL     1      -0.763  -3.886  -5.936  0.00  0.00    +0.057 A 
ATOM     23  S   UNL     1      -1.455  -2.412  -5.204  0.00  0.00    -0.062 S 
ATOM     24 BR   UNL     1       0.490  -4.040  -7.343  0.00  0.00    -0.043 Br
ENDBRANCH  16  19
ENDBRANCH  14  16
ENDBRANCH  13  14
ENDBRANCH   1  13
TORSDOF 7
