REMARK  Name = ZINC13778178
REMARK  7 active torsions:
REMARK  status: ('A' for Active; 'I' for Inactive)
REMARK    1  A    between atoms: C_1  and  O_2
REMARK    2  A    between atoms: O_2  and  C_3
REMARK    3  A    between atoms: C_7  and  N_9
REMARK    4  A    between atoms: N_9  and  C_10
REMARK    5  A    between atoms: C_10  and  C_11
REMARK    6  A    between atoms: C_22  and  C_24
REMARK    7  A    between atoms: C_27  and  N_30
REMARK                            x       y       z     vdW  Elec       q    Type
REMARK                         _______ _______ _______ _____ _____    ______ ____
ROOT
ATOM      1  N   UNL     1      -2.629   0.966   0.490  0.00  0.00    -0.263 N 
ATOM      2  C   UNL     1      -3.745   1.475  -0.068  0.00  0.00    +0.251 C 
ATOM      3  O   UNL     1      -4.618   0.731  -0.470  0.00  0.00    -0.270 OA
ENDROOT
BRANCH   1   8
ATOM      4  C   UNL     1      -1.127   3.582   2.596  0.00  0.00    +0.122 A 
ATOM      5  C   UNL     1       0.200   3.510   2.193  0.00  0.00    +0.046 A 
ATOM      6  C   UNL     1       0.583   2.596   1.231  0.00  0.00    +0.005 A 
ATOM      7  C   UNL     1      -0.352   1.749   0.668  0.00  0.00    +0.024 A 
ATOM      8  C   UNL     1      -1.682   1.819   1.063  0.00  0.00    +0.040 A 
ATOM      9  C   UNL     1      -2.068   2.734   2.033  0.00  0.00    +0.069 A 
BRANCH   4  11
ATOM     10  C   UNL     1      -0.479   5.323   4.079  0.00  0.00    +0.277 C 
ATOM     11  O   UNL     1      -1.502   4.482   3.542  0.00  0.00    -0.495 OA
ENDBRANCH   4  11
ENDBRANCH   1   8
BRANCH   2  12
ATOM     12  C   UNL     1      -3.907   2.939  -0.192  0.00  0.00    +0.037 A 
ATOM     13  C   UNL     1      -2.786   3.772  -0.186  0.00  0.00    +0.015 A 
ATOM     14  C   UNL     1      -2.944   5.137  -0.308  0.00  0.00    +0.033 A 
ATOM     15  C   UNL     1      -4.210   5.682  -0.424  0.00  0.00    +0.126 A 
ATOM     16  C   UNL     1      -5.326   4.863  -0.425  0.00  0.00    +0.033 A 
ATOM     17  C   UNL     1      -5.182   3.496  -0.310  0.00  0.00    +0.015 A 
BRANCH  15  18
ATOM     18  N   UNL     1      -4.373   7.148  -0.548  0.00  0.00    +0.056 N 
ATOM     19  O   UNL     1      -5.486   7.631  -0.650  0.00  0.00    -0.126 OA
ATOM     20  O   UNL     1      -3.393   7.871  -0.547  0.00  0.00    -0.126 OA
ENDBRANCH  15  18
ENDBRANCH   2  12
BRANCH   1  21
ATOM     21  C   UNL     1      -2.409  -0.483   0.496  0.00  0.00    +0.154 C 
BRANCH  21  22
ATOM     22  C   UNL     1      -3.113  -1.093   1.680  0.00  0.00    +0.035 A 
ATOM     23  C   UNL     1      -4.311  -1.721   1.513  0.00  0.00    +0.020 A 
ATOM     24  C   UNL     1      -4.936  -2.278   2.647  0.00  0.00    -0.001 A 
ATOM     25  C   UNL     1      -6.170  -2.939   2.548  0.00  0.00    +0.010 A 
ATOM     26  C   UNL     1      -6.744  -3.466   3.665  0.00  0.00    +0.001 A 
ATOM     27  C   UNL     1      -6.121  -3.357   4.907  0.00  0.00    +0.002 A 
ATOM     28  C   UNL     1      -4.924  -2.723   5.038  0.00  0.00    +0.026 A 
ATOM     29  C   UNL     1      -4.301  -2.167   3.908  0.00  0.00    +0.049 A 
ATOM     30  N   UNL     1      -3.124  -1.539   4.009  0.00  0.00    -0.322 N 
ATOM     31  C   UNL     1      -2.534  -1.021   2.953  0.00  0.00    +0.254 A 
ATOM     32  O   UNL     1      -1.339  -0.399   3.102  0.00  0.00    -0.268 OA
ATOM     33  H   UNL     1      -2.632  -1.448   4.988  0.00  0.00    +0.169 HD
ENDBRANCH  21  22
ENDBRANCH   1  21
TORSDOF 6
