REMARK  Name = ZINC13627009
REMARK  8 active torsions:
REMARK  status: ('A' for Active; 'I' for Inactive)
REMARK    1  A    between atoms: C_1  and  C_2
REMARK    2  A    between atoms: C_3  and  C_31
REMARK    3  A    between atoms: N_4  and  C_25
REMARK    4  A    between atoms: C_9  and  C_14
REMARK    5  A    between atoms: C_14  and  O_15
REMARK    6  A    between atoms: O_15  and  N_16
REMARK    7  A    between atoms: C_17  and  C_18
REMARK    8  A    between atoms: C_25  and  C_26
REMARK                            x       y       z     vdW  Elec       q    Type
REMARK                         _______ _______ _______ _____ _____    ______ ____
ROOT
ATOM      1  C   UNL     1       4.429   2.990  -0.025  0.00  0.00    +0.046 C 
ATOM      2  C   UNL     1       3.822   1.611  -0.026  0.00  0.00    -0.017 A 
ATOM      3  C   UNL     1       4.488   0.441  -0.039  0.00  0.00    +0.022 A 
ATOM      4  N   UNL     1       3.595  -0.596  -0.036  0.00  0.00    -0.322 N 
ATOM      5  C   UNL     1       2.315  -0.113  -0.021  0.00  0.00    +0.147 A 
ATOM      6  C   UNL     1       2.402   1.286  -0.014  0.00  0.00    +0.066 A 
ATOM      7  C   UNL     1       1.163   2.054   0.002  0.00  0.00    +0.169 A 
ATOM      8  N   UNL     1       0.864   3.339   0.011  0.00  0.00    -0.207 NA
ATOM      9  C   UNL     1      -0.456   3.492   0.024  0.00  0.00    +0.192 A 
ATOM     10  N   UNL     1      -1.035   2.315   0.019  0.00  0.00    -0.145 NA
ATOM     11  N   UNL     1      -0.016   1.354   0.009  0.00  0.00    -0.201 N 
ATOM     12  C   UNL     1       0.002  -0.004   0.002  0.00  0.00    +0.227 A 
ATOM     13  N   UNL     1       1.106  -0.693  -0.013  0.00  0.00    -0.218 NA
ATOM     14  C   UNL     1       5.988   0.295  -0.055  0.00  0.00    +0.064 C 
ENDROOT
BRANCH   9  15
ATOM     15  C   UNL     1      -1.178   4.815   0.038  0.00  0.00    +0.340 C 
BRANCH  15  16
ATOM     16  O   UNL     1      -1.418   5.240  -1.305  0.00  0.00    -0.386 OA
BRANCH  16  17
ATOM     17  N   UNL     1      -2.095   6.479  -1.404  0.00  0.00    -0.092 NA
ATOM     18  C   UNL     1      -2.372   6.974  -2.567  0.00  0.00    +0.160 C 
BRANCH  18  19
ATOM     19  C   UNL     1      -3.078   8.266  -2.671  0.00  0.00    -0.004 A 
ATOM     20  C   UNL     1      -3.453   8.955  -1.515  0.00  0.00    +0.011 A 
ATOM     21  C   UNL     1      -4.106  10.165  -1.618  0.00  0.00    +0.020 A 
ATOM     22  C   UNL     1      -4.402  10.691  -2.865  0.00  0.00    +0.041 A 
ATOM     23  C   UNL     1      -4.038  10.010  -4.014  0.00  0.00    +0.020 A 
ATOM     24  C   UNL     1      -3.379   8.802  -3.924  0.00  0.00    +0.011 A 
ATOM     25 CL   UNL     1      -5.232  12.211  -2.986  0.00  0.00    -0.084 Cl
ENDBRANCH  18  19
ENDBRANCH  16  17
ENDBRANCH  15  16
ENDBRANCH   9  15
BRANCH   4  26
ATOM     26  C   UNL     1       3.957  -2.015  -0.047  0.00  0.00    +0.197 C 
BRANCH  26  27
ATOM     27  C   UNL     1       4.067  -2.495  -1.471  0.00  0.00    +0.124 A 
ATOM     28  C   UNL     1       5.181  -2.471  -2.225  0.00  0.00    +0.046 A 
ATOM     29  C   UNL     1       4.835  -3.014  -3.484  0.00  0.00    +0.041 A 
ATOM     30  C   UNL     1       3.529  -3.330  -3.427  0.00  0.00    +0.195 A 
ATOM     31  O   UNL     1       3.069  -3.013  -2.205  0.00  0.00    -0.466 OA
ENDBRANCH  26  27
ENDBRANCH   4  26
TORSDOF 6
