REMARK  Name = ZINC35966510
REMARK  11 active torsions:
REMARK  status: ('A' for Active; 'I' for Inactive)
REMARK    1  A    between atoms: C_1  and  C_2
REMARK    2  A    between atoms: C_2  and  N_3
REMARK    3  A    between atoms: C_6  and  C_11
REMARK    4  A    between atoms: C_16  and  C_17
REMARK    5  A    between atoms: N_23  and  C_25
REMARK    6  A    between atoms: C_25  and  C_27
REMARK    7  A    between atoms: C_25  and  C_30
REMARK    8  A    between atoms: C_27  and  C_28
REMARK    9  A    between atoms: C_27  and  C_29
REMARK   10  A    between atoms: N_32  and  C_33
REMARK   11  A    between atoms: C_33  and  C_34
REMARK                            x       y       z     vdW  Elec       q    Type
REMARK                         _______ _______ _______ _____ _____    ______ ____
ROOT
ATOM      1  N   UNL     1       0.937  -0.710   0.152  0.00  0.00    -0.257 N 
ATOM      2  C   UNL     1       2.275  -0.825   0.403  0.00  0.00    +0.042 C 
ATOM      3  C   UNL     1       2.727  -1.432   1.518  0.00  0.00    +0.058 C 
ATOM      4  C   UNL     1       1.700  -1.984   2.486  0.00  0.00    +0.142 C 
ATOM      5  N   UNL     1       0.283  -1.809   2.125  0.00  0.00    -0.288 N 
ATOM      6  C   UNL     1      -0.013  -1.173   0.974  0.00  0.00    +0.307 C 
ATOM      7  O   UNL     1      -1.180  -1.021   0.669  0.00  0.00    -0.252 OA
ATOM      8  C   UNL     1       4.137  -1.423   1.545  0.00  0.00    +0.247 C 
ATOM      9  O   UNL     1       4.811  -1.903   2.437  0.00  0.00    -0.270 OA
ATOM     10  N   UNL     1       4.639  -0.813   0.456  0.00  0.00    -0.280 N 
ATOM     11  C   UNL     1       3.499  -0.380  -0.366  0.00  0.00    +0.160 C 
ATOM     12  H   UNL     1      -0.422  -2.141   2.704  0.00  0.00    +0.151 HD
ENDROOT
BRANCH   4  13
ATOM     13  C   UNL     1       1.959  -3.459   2.648  0.00  0.00    -0.011 A 
ATOM     14  C   UNL     1       1.683  -4.328   1.608  0.00  0.00    +0.006 A 
ATOM     15  C   UNL     1       1.921  -5.681   1.756  0.00  0.00    +0.000 A 
ATOM     16  C   UNL     1       2.435  -6.167   2.944  0.00  0.00    +0.001 A 
ATOM     17  C   UNL     1       2.711  -5.298   3.984  0.00  0.00    +0.013 A 
ATOM     18  C   UNL     1       2.477  -3.944   3.834  0.00  0.00    +0.060 A 
BRANCH  18  19
ATOM     19  C   UNL     1       2.784  -2.997   4.965  0.00  0.00    +0.418 C 
ATOM     20  F   UNL     1       3.379  -3.702   6.016  0.00  0.00    -0.166 F 
ATOM     21  F   UNL     1       3.659  -2.002   4.516  0.00  0.00    -0.166 F 
ATOM     22  F   UNL     1       1.597  -2.406   5.413  0.00  0.00    -0.166 F 
ENDBRANCH  18  19
ENDBRANCH   4  13
BRANCH   1  24
ATOM     23  C   UNL     1       0.358   1.461  -0.814  0.00  0.00    +0.025 C 
ATOM     24  C   UNL     1       0.519  -0.036  -1.080  0.00  0.00    +0.111 C 
ENDBRANCH   1  24
BRANCH  10  25
ATOM     25  C   UNL     1       6.058  -0.618   0.146  0.00  0.00    +0.165 C 
BRANCH  25  26
ATOM     26  C   UNL     1       6.740  -1.958   0.049  0.00  0.00    +0.234 C 
ATOM     27  O   UNL     1       6.208  -2.944   0.512  0.00  0.00    -0.274 OA
ATOM     28  N   UNL     1       7.941  -2.061  -0.553  0.00  0.00    -0.307 N 
ATOM     29  H   UNL     1       8.402  -1.262  -0.856  0.00  0.00    +0.149 HD
BRANCH  28  30
ATOM     30  C   UNL     1       8.552  -3.378  -0.751  0.00  0.00    +0.178 C 
BRANCH  30  31
ATOM     31  C   UNL     1       9.882  -3.216  -1.440  0.00  0.00    +0.122 A 
ATOM     32  C   UNL     1      11.070  -3.054  -0.831  0.00  0.00    +0.046 A 
ATOM     33  C   UNL     1      12.042  -2.944  -1.851  0.00  0.00    +0.041 A 
ATOM     34  C   UNL     1      11.390  -3.046  -3.023  0.00  0.00    +0.195 A 
ATOM     35  O   UNL     1      10.083  -3.216  -2.768  0.00  0.00    -0.466 OA
ENDBRANCH  30  31
ENDBRANCH  28  30
ENDBRANCH  25  26
BRANCH  25  36
ATOM     36  C   UNL     1       6.712   0.209   1.254  0.00  0.00    +0.012 C 
ATOM     37  C   UNL     1       8.168   0.500   0.881  0.00  0.00    +0.009 C 
ATOM     38  C   UNL     1       5.955   1.528   1.421  0.00  0.00    +0.009 C 
ENDBRANCH  25  36
ENDBRANCH  10  25
TORSDOF 8
