REMARK  Name = ZINC65408648
REMARK  9 active torsions:
REMARK  status: ('A' for Active; 'I' for Inactive)
REMARK    1  A    between atoms: C_1  and  C_2
REMARK    2  A    between atoms: N_5  and  C_8
REMARK    3  A    between atoms: C_8  and  C_9
REMARK    4  A    between atoms: C_8  and  C_10
REMARK    5  A    between atoms: C_10  and  N_11
REMARK    6  A    between atoms: N_14  and  C_15
REMARK    7  A    between atoms: C_20  and  S_21
REMARK    8  A    between atoms: S_21  and  C_22
REMARK    9  A    between atoms: C_22  and  C_23
REMARK                            x       y       z     vdW  Elec       q    Type
REMARK                         _______ _______ _______ _____ _____    ______ ____
ROOT
ATOM      1  N   UNL     1       1.975  -3.891   2.400  0.00  0.00    -0.301 N 
ATOM      2  C   UNL     1       2.617  -4.075   3.571  0.00  0.00    +0.304 C 
ATOM      3  O   UNL     1       3.731  -4.562   3.583  0.00  0.00    -0.253 OA
ATOM      4  N   UNL     1       2.024  -3.719   4.728  0.00  0.00    -0.268 N 
ATOM      5  H   UNL     1       1.086  -3.502   2.390  0.00  0.00    +0.150 HD
ATOM      6  H   UNL     1       1.167  -3.265   4.714  0.00  0.00    +0.156 HD
ENDROOT
BRANCH   4   7
ATOM      7  C   UNL     1       2.647  -4.003   5.951  0.00  0.00    +0.048 A 
ATOM      8  C   UNL     1       4.030  -3.986   6.048  0.00  0.00    +0.024 A 
ATOM      9  C   UNL     1       4.642  -4.267   7.255  0.00  0.00    +0.002 A 
ATOM     10  C   UNL     1       3.879  -4.567   8.369  0.00  0.00    +0.001 A 
ATOM     11  C   UNL     1       2.500  -4.586   8.282  0.00  0.00    +0.016 A 
ATOM     12  C   UNL     1       1.877  -4.300   7.076  0.00  0.00    +0.030 A 
BRANCH  12  13
ATOM     13  S   UNL     1       0.118  -4.316   6.964  0.00  0.00    -0.114 S 
BRANCH  13  14
ATOM     14  C   UNL     1      -0.424  -4.743   8.641  0.00  0.00    +0.169 C 
BRANCH  14  15
ATOM     15  C   UNL     1      -1.930  -4.792   8.685  0.00  0.00    +0.221 C 
ATOM     16  O   UNL     1      -2.573  -4.561   7.683  0.00  0.00    -0.275 OA
ATOM     17  N   UNL     1      -2.561  -5.091   9.837  0.00  0.00    -0.329 N 
ATOM     18  H   UNL     1      -2.047  -5.275  10.639  0.00  0.00    +0.145 HD
ATOM     19  H   UNL     1      -3.530  -5.122   9.865  0.00  0.00    +0.145 HD
ENDBRANCH  14  15
ENDBRANCH  13  14
ENDBRANCH  12  13
ENDBRANCH   4   7
BRANCH   1  20
ATOM     20  C   UNL     1       2.619  -4.278   1.143  0.00  0.00    +0.090 C 
BRANCH  20  21
ATOM     21  C   UNL     1       1.740  -3.849  -0.034  0.00  0.00    -0.054 C 
ATOM     22  C   UNL     1       2.469  -4.140  -1.347  0.00  0.00    -0.012 C 
BRANCH  21  27
ATOM     23  C   UNL     1       1.125   1.777  -0.730  0.00  0.00    +0.007 C 
ATOM     24  C   UNL     1       1.466   0.303  -0.953  0.00  0.00    -0.018 C 
ATOM     25  C   UNL     1       2.442  -0.166   0.130  0.00  0.00    -0.016 C 
ATOM     26  C   UNL     1       2.717  -1.661  -0.051  0.00  0.00    -0.078 C 
ATOM     27  N   UNL     1       1.460  -2.410   0.063  0.00  0.00    +0.382 N 
ATOM     28  C   UNL     1       0.546  -2.017  -1.016  0.00  0.00    -0.078 C 
ATOM     29  C   UNL     1       0.188  -0.537  -0.872  0.00  0.00    -0.016 C 
ATOM     30  H   UNL     1       1.031  -2.212   0.955  0.00  0.00    -0.081 HD
ENDBRANCH  21  27
ENDBRANCH  20  21
ENDBRANCH   1  20
TORSDOF 7
