REMARK  Name = ZINC08719249
REMARK  7 active torsions:
REMARK  status: ('A' for Active; 'I' for Inactive)
REMARK    1  A    between atoms: C_6  and  N_7
REMARK    2  A    between atoms: C_8  and  C_25
REMARK    3  A    between atoms: C_11  and  S_12
REMARK    4  A    between atoms: S_12  and  C_13
REMARK    5  A    between atoms: C_13  and  C_14
REMARK    6  A    between atoms: N_16  and  C_17
REMARK    7  A    between atoms: C_25  and  N_57
REMARK                            x       y       z     vdW  Elec       q    Type
REMARK                         _______ _______ _______ _____ _____    ______ ____
ROOT
ATOM      1  N   UNL     1       0.002  -0.004   0.002  0.00  0.00    -0.276 N 
ATOM      2  C   UNL     1       1.326  -0.355  -0.013  0.00  0.00    +0.122 A 
ATOM      3  N   UNL     1       2.019   0.748  -0.013  0.00  0.00    -0.135 NA
ATOM      4  N   UNL     1       1.234   1.765  -0.000  0.00  0.00    -0.122 NA
ATOM      5  C   UNL     1      -0.017   1.364   0.009  0.00  0.00    +0.197 A 
ENDROOT
BRANCH   1  11
ATOM      6  C   UNL     1      -1.327  -1.704   1.092  0.00  0.00    +0.028 A 
ATOM      7  C   UNL     1      -2.419  -2.550   1.098  0.00  0.00    +0.022 A 
ATOM      8  C   UNL     1      -3.285  -2.570   0.019  0.00  0.00    +0.041 A 
ATOM      9  C   UNL     1      -3.063  -1.739  -1.065  0.00  0.00    +0.022 A 
ATOM     10  C   UNL     1      -1.974  -0.889  -1.073  0.00  0.00    +0.028 A 
ATOM     11  C   UNL     1      -1.104  -0.867   0.008  0.00  0.00    +0.050 A 
ATOM     12 CL   UNL     1      -4.653  -3.639   0.026  0.00  0.00    -0.084 Cl
ENDBRANCH   1  11
BRANCH   5  13
ATOM     13  S   UNL     1      -1.447   2.392   0.022  0.00  0.00    -0.076 S 
BRANCH  13  14
ATOM     14  C   UNL     1      -0.661   4.023   0.027  0.00  0.00    +0.173 C 
BRANCH  14  15
ATOM     15  C   UNL     1      -1.723   5.092   0.038  0.00  0.00    +0.224 C 
ATOM     16  O   UNL     1      -2.896   4.782   0.042  0.00  0.00    -0.275 OA
ATOM     17  N   UNL     1      -1.370   6.393   0.043  0.00  0.00    -0.310 N 
ATOM     18  H   UNL     1      -0.432   6.641   0.040  0.00  0.00    +0.149 HD
BRANCH  17  19
ATOM     19  C   UNL     1      -2.402   7.432   0.054  0.00  0.00    +0.095 C 
ATOM     20  C   UNL     1      -2.853   7.689   1.502  0.00  0.00    +0.046 C 
ATOM     21  C   UNL     1      -3.702   8.992   1.521  0.00  0.00    +0.168 C 
ATOM     22  S   UNL     1      -2.730  10.045   0.362  0.00  0.00    -0.029 S 
ATOM     23  O   UNL     1      -1.795  10.812   1.109  0.00  0.00    -0.174 OA
ATOM     24  O   UNL     1      -3.624  10.702  -0.526  0.00  0.00    -0.174 OA
ATOM     25  C   UNL     1      -1.829   8.733  -0.558  0.00  0.00    +0.188 C 
ENDBRANCH  17  19
ENDBRANCH  14  15
ENDBRANCH  13  14
ENDBRANCH   5  13
BRANCH   2  26
ATOM     26  C   UNL     1       1.878  -1.758  -0.026  0.00  0.00    -0.001 C 
BRANCH  26  32
ATOM     27  C   UNL     1       0.744  -2.329  -2.087  0.00  0.00    -0.078 C 
ATOM     28  C   UNL     1       0.963  -2.654  -3.567  0.00  0.00    -0.019 C 
ATOM     29  C   UNL     1       1.747  -3.964  -3.687  0.00  0.00    -0.004 C 
ATOM     30  C   UNL     1       3.075  -3.824  -2.937  0.00  0.00    -0.019 C 
ATOM     31  C   UNL     1       2.796  -3.465  -1.476  0.00  0.00    -0.078 C 
ATOM     32  N   UNL     1       2.060  -2.184  -1.429  0.00  0.00    +0.384 N 
ATOM     33  H   UNL     1       2.604  -1.469  -1.926  0.00  0.00    -0.081 HD
ENDBRANCH  26  32
ENDBRANCH   2  26
TORSDOF 7
