REMARK  Name = ZINC35226768
REMARK  11 active torsions:
REMARK  status: ('A' for Active; 'I' for Inactive)
REMARK    1  A    between atoms: C_4  and  C_7
REMARK    2  A    between atoms: C_7  and  C_8
REMARK    3  A    between atoms: C_8  and  C_10
REMARK    4  A    between atoms: C_8  and  N_16
REMARK    5  A    between atoms: C_17  and  C_19
REMARK    6  A    between atoms: C_22  and  C_24
REMARK    7  A    between atoms: C_24  and  N_25
REMARK    8  A    between atoms: N_25  and  C_26
REMARK    9  A    between atoms: N_25  and  C_33
REMARK   10  A    between atoms: C_26  and  C_27
REMARK   11  A    between atoms: C_33  and  C_34
REMARK                            x       y       z     vdW  Elec       q    Type
REMARK                         _______ _______ _______ _____ _____    ______ ____
ROOT
ATOM      1  C   UNL     1       5.465   0.894   3.262  0.00  0.00    +0.189 A 
ATOM      2  C   UNL     1       5.395   0.824   4.624  0.00  0.00    +0.055 A 
ATOM      3  C   UNL     1       5.377   2.146   5.095  0.00  0.00    +0.043 A 
ATOM      4  C   UNL     1       5.436   2.955   4.014  0.00  0.00    +0.090 A 
ATOM      5  O   UNL     1       5.494   2.196   2.912  0.00  0.00    -0.457 OA
ENDROOT
BRANCH   1   7
ATOM      6  N   UNL     1       5.583  -0.038   1.013  0.00  0.00    -0.302 N 
ATOM      7  C   UNL     1       5.508  -0.247   2.342  0.00  0.00    +0.280 C 
ATOM      8  O   UNL     1       5.477  -1.383   2.779  0.00  0.00    -0.267 OA
ATOM      9  H   UNL     1       5.609   0.867   0.664  0.00  0.00    +0.150 HD
BRANCH   6  10
ATOM     10  C   UNL     1       5.626  -1.178   0.093  0.00  0.00    +0.108 C 
BRANCH  10  11
ATOM     11  C   UNL     1       7.048  -1.657  -0.048  0.00  0.00    -0.027 A 
ATOM     12  C   UNL     1       8.082  -0.741  -0.118  0.00  0.00    +0.005 A 
ATOM     13  C   UNL     1       9.386  -1.179  -0.248  0.00  0.00    +0.000 A 
ATOM     14  C   UNL     1       9.658  -2.534  -0.306  0.00  0.00    +0.000 A 
ATOM     15  C   UNL     1       8.624  -3.449  -0.234  0.00  0.00    +0.000 A 
ATOM     16  C   UNL     1       7.320  -3.011  -0.101  0.00  0.00    +0.005 A 
ENDBRANCH  10  11
BRANCH  10  17
ATOM     17  C   UNL     1       5.094  -0.750  -1.276  0.00  0.00    +0.062 C 
BRANCH  17  21
ATOM     18  C   UNL     1       0.961   0.276  -0.942  0.00  0.00    +0.000 A 
ATOM     19  C   UNL     1       1.930   1.244  -0.757  0.00  0.00    +0.000 A 
ATOM     20  C   UNL     1       3.268   0.912  -0.865  0.00  0.00    +0.004 A 
ATOM     21  C   UNL     1       3.636  -0.388  -1.157  0.00  0.00    -0.045 A 
ATOM     22  C   UNL     1       2.667  -1.356  -1.341  0.00  0.00    +0.004 A 
ATOM     23  C   UNL     1       1.329  -1.024  -1.235  0.00  0.00    +0.000 A 
ENDBRANCH  17  21
ENDBRANCH  10  17
ENDBRANCH   6  10
ENDBRANCH   1   7
BRANCH   4  24
ATOM     24  C   UNL     1       5.440   4.462   4.044  0.00  0.00    -0.002 C 
BRANCH  24  25
ATOM     25  N   UNL     1       6.824   4.946   4.125  0.00  0.00    +0.390 N 
ATOM     26  H   UNL     1       7.281   4.527   4.921  0.00  0.00    -0.080 HD
BRANCH  25  27
ATOM     27  C   UNL     1       7.544   4.580   2.898  0.00  0.00    -0.042 C 
BRANCH  27  28
ATOM     28  C   UNL     1       8.999   4.945   3.041  0.00  0.00    -0.064 A 
ATOM     29  C   UNL     1       9.462   6.147   2.540  0.00  0.00    +0.002 A 
ATOM     30  C   UNL     1      10.796   6.483   2.671  0.00  0.00    +0.000 A 
ATOM     31  C   UNL     1      11.668   5.616   3.304  0.00  0.00    +0.000 A 
ATOM     32  C   UNL     1      11.205   4.414   3.805  0.00  0.00    +0.000 A 
ATOM     33  C   UNL     1       9.869   4.081   3.678  0.00  0.00    +0.002 A 
ENDBRANCH  27  28
ENDBRANCH  25  27
BRANCH  25  34
ATOM     34  C   UNL     1       6.824   6.407   4.275  0.00  0.00    -0.042 C 
BRANCH  34  35
ATOM     35  C   UNL     1       6.200   6.777   5.596  0.00  0.00    -0.064 A 
ATOM     36  C   UNL     1       4.856   7.093   5.662  0.00  0.00    +0.002 A 
ATOM     37  C   UNL     1       4.285   7.432   6.875  0.00  0.00    +0.000 A 
ATOM     38  C   UNL     1       5.057   7.454   8.021  0.00  0.00    +0.000 A 
ATOM     39  C   UNL     1       6.401   7.136   7.955  0.00  0.00    +0.000 A 
ATOM     40  C   UNL     1       6.971   6.793   6.744  0.00  0.00    +0.002 A 
ENDBRANCH  34  35
ENDBRANCH  25  34
ENDBRANCH  24  25
ENDBRANCH   4  24
TORSDOF 11
