REMARK  Name = ZINC39946696
REMARK  10 active torsions:
REMARK  status: ('A' for Active; 'I' for Inactive)
REMARK    1  A    between atoms: C_4  and  C_7
REMARK    2  A    between atoms: C_7  and  C_9
REMARK    3  A    between atoms: C_7  and  O_20
REMARK    4  A    between atoms: C_9  and  C_11
REMARK    5  A    between atoms: O_20  and  C_21
REMARK    6  A    between atoms: C_21  and  C_23
REMARK    7  A    between atoms: C_26  and  S_29
REMARK    8  A    between atoms: S_29  and  N_32
REMARK    9  A    between atoms: N_32  and  C_33
REMARK   10  A    between atoms: C_33  and  C_34
REMARK                            x       y       z     vdW  Elec       q    Type
REMARK                         _______ _______ _______ _____ _____    ______ ____
ROOT
ATOM      1  O   UNL     1       3.614  -1.836  -0.908  0.00  0.00    -0.445 OA
ENDROOT
BRANCH   1   2
ATOM      2  C   UNL     1       3.939  -1.641  -2.201  0.00  0.00    +0.340 C 
ATOM      3  O   UNL     1       4.296  -0.543  -2.579  0.00  0.00    -0.245 OA
BRANCH   2   4
ATOM      4  C   UNL     1       3.863  -2.763  -3.159  0.00  0.00    +0.059 A 
ATOM      5  C   UNL     1       3.448  -4.025  -2.729  0.00  0.00    +0.017 A 
ATOM      6  C   UNL     1       3.378  -5.068  -3.629  0.00  0.00    +0.029 A 
ATOM      7  C   UNL     1       3.719  -4.866  -4.955  0.00  0.00    +0.105 A 
ATOM      8  C   UNL     1       4.131  -3.618  -5.388  0.00  0.00    +0.029 A 
ATOM      9  C   UNL     1       4.199  -2.565  -4.500  0.00  0.00    +0.017 A 
BRANCH   7  10
ATOM     10  S   UNL     1       3.627  -6.204  -6.098  0.00  0.00    +0.059 S 
ATOM     11  O   UNL     1       4.519  -5.893  -7.160  0.00  0.00    -0.153 OA
ATOM     12  O   UNL     1       3.738  -7.398  -5.335  0.00  0.00    -0.153 OA
BRANCH  10  13
ATOM     13  N   UNL     1       2.102  -6.194  -6.742  0.00  0.00    -0.183 NA
ATOM     14  H   UNL     1       1.498  -6.934  -6.572  0.00  0.00    +0.148 HD
BRANCH  13  15
ATOM     15  C   UNL     1       1.664  -5.068  -7.570  0.00  0.00    +0.180 C 
BRANCH  15  16
ATOM     16  C   UNL     1       0.417  -5.453  -8.323  0.00  0.00    +0.120 A 
ATOM     17  C   UNL     1      -0.846  -5.280  -7.894  0.00  0.00    +0.046 A 
ATOM     18  C   UNL     1      -1.696  -5.779  -8.908  0.00  0.00    +0.041 A 
ATOM     19  C   UNL     1      -0.901  -6.227  -9.896  0.00  0.00    +0.195 A 
ATOM     20  O   UNL     1       0.377  -6.021  -9.540  0.00  0.00    -0.466 OA
ENDBRANCH  15  16
ENDBRANCH  13  15
ENDBRANCH  10  13
ENDBRANCH   7  10
ENDBRANCH   2   4
ENDBRANCH   1   2
BRANCH   1  21
ATOM     21  C   UNL     1       3.711  -0.707  -0.038  0.00  0.00    +0.277 C 
BRANCH  21  25
ATOM     22  C   UNL     1      -0.017   1.378   0.010  0.00  0.00    +0.000 A 
ATOM     23  C   UNL     1       1.171   2.086   0.002  0.00  0.00    +0.000 A 
ATOM     24  C   UNL     1       2.377   1.411  -0.013  0.00  0.00    +0.008 A 
ATOM     25  C   UNL     1       2.396   0.029  -0.020  0.00  0.00    +0.000 A 
ATOM     26  C   UNL     1       1.208  -0.679  -0.012  0.00  0.00    +0.008 A 
ATOM     27  C   UNL     1       0.002  -0.004   0.002  0.00  0.00    +0.000 A 
ENDBRANCH  21  25
BRANCH  21  28
ATOM     28  C   UNL     1       4.044  -1.175   1.356  0.00  0.00    +0.206 C 
ATOM     29  O   UNL     1       3.918  -2.346   1.649  0.00  0.00    -0.288 OA
BRANCH  28  30
ATOM     30  C   UNL     1       4.501  -0.251   2.320  0.00  0.00    +0.027 C 
ATOM     31  C   UNL     1       4.852  -0.515   3.631  0.00  0.00    +0.006 A 
ATOM     32  C   UNL     1       4.873  -1.702   4.401  0.00  0.00    +0.010 A 
ATOM     33  C   UNL     1       5.271  -1.669   5.693  0.00  0.00    +0.001 A 
ATOM     34  C   UNL     1       5.675  -0.483   6.327  0.00  0.00    +0.002 A 
ATOM     35  C   UNL     1       5.691   0.703   5.682  0.00  0.00    +0.026 A 
ATOM     36  C   UNL     1       5.273   0.755   4.271  0.00  0.00    +0.043 A 
ATOM     37  N   UNL     1       5.192   1.742   3.424  0.00  0.00    -0.380 N 
ATOM     38  C   UNL     1       4.716   1.235   2.133  0.00  0.00    +0.152 C 
ATOM     39  H   UNL     1       5.416   2.666   3.616  0.00  0.00    +0.160 HD
ENDBRANCH  28  30
ENDBRANCH  21  28
ENDBRANCH   1  21
TORSDOF 10
