REMARK  Name = ZINC09376016
REMARK  7 active torsions:
REMARK  status: ('A' for Active; 'I' for Inactive)
REMARK    1  A    between atoms: C_1  and  C_2
REMARK    2  A    between atoms: C_2  and  C_25
REMARK    3  A    between atoms: N_5  and  C_9
REMARK    4  A    between atoms: C_9  and  N_60
REMARK    5  A    between atoms: N_12  and  S_15
REMARK    6  A    between atoms: S_15  and  C_18
REMARK    7  A    between atoms: C_18  and  C_19
REMARK                            x       y       z     vdW  Elec       q    Type
REMARK                         _______ _______ _______ _____ _____    ______ ____
ROOT
ATOM      1  C   UNL     1       2.897   4.226  -1.437  0.00  0.00    +0.047 C 
ATOM      2  C   UNL     1       2.458   3.931  -0.001  0.00  0.00    +0.135 C 
ATOM      3  C   UNL     1       3.535   3.164   0.739  0.00  0.00    +0.249 C 
ATOM      4  O   UNL     1       3.978   2.070   0.461  0.00  0.00    -0.272 OA
ATOM      5  N   UNL     1       3.900   3.951   1.770  0.00  0.00    -0.241 N 
ATOM      6  C   UNL     1       3.210   5.097   1.784  0.00  0.00    +0.308 C 
ATOM      7  O   UNL     1       3.363   5.967   2.619  0.00  0.00    -0.252 OA
ATOM      8  N   UNL     1       2.328   5.181   0.768  0.00  0.00    -0.281 N 
ATOM      9  H   UNL     1       1.725   5.917   0.579  0.00  0.00    +0.152 HD
ENDROOT
BRANCH   2  10
ATOM     10  C   UNL     1       1.160   3.165   0.007  0.00  0.00    -0.012 A 
ATOM     11  C   UNL     1       1.175   1.783   0.000  0.00  0.00    +0.010 A 
ATOM     12  C   UNL     1      -0.013   1.076   0.008  0.00  0.00    +0.050 A 
ATOM     13  C   UNL     1      -1.222   1.752   0.017  0.00  0.00    +0.166 A 
ATOM     14  C   UNL     1      -1.237   3.144   0.031  0.00  0.00    +0.167 A 
ATOM     15  C   UNL     1      -0.043   3.846   0.022  0.00  0.00    +0.055 A 
ATOM     16  O   UNL     1      -2.535   3.567   0.046  0.00  0.00    -0.453 OA
ATOM     17  C   UNL     1      -3.306   2.424   0.460  0.00  0.00    +0.466 C 
ATOM     18  O   UNL     1      -2.510   1.302   0.035  0.00  0.00    -0.453 OA
ENDBRANCH   2  10
BRANCH   5  19
ATOM     19  C   UNL     1       4.926   3.596   2.754  0.00  0.00    +0.043 C 
BRANCH  19  25
ATOM     20  C   UNL     1       6.812   3.144   1.304  0.00  0.00    -0.059 C 
ATOM     21  C   UNL     1       8.084   3.759   0.711  0.00  0.00    +0.090 C 
ATOM     22  N   UNL     1       8.982   4.130   1.815  0.00  0.00    -0.184 NA
ATOM     23  C   UNL     1       8.437   4.945   2.912  0.00  0.00    +0.090 C 
ATOM     24  C   UNL     1       7.151   4.283   3.418  0.00  0.00    -0.059 C 
ATOM     25  N   UNL     1       6.231   4.097   2.275  0.00  0.00    +0.392 N 
ATOM     26  H   UNL     1       6.090   5.001   1.810  0.00  0.00    -0.079 HD
BRANCH  22  27
ATOM     27  S   UNL     1      10.564   3.643   1.824  0.00  0.00    +0.036 S 
ATOM     28  O   UNL     1      10.894   3.458   0.454  0.00  0.00    -0.158 OA
ATOM     29  O   UNL     1      11.240   4.617   2.607  0.00  0.00    -0.158 OA
BRANCH  27  30
ATOM     30  C   UNL     1      10.555   2.046   2.685  0.00  0.00    +0.220 C 
BRANCH  30  31
ATOM     31  C   UNL     1      11.960   1.504   2.752  0.00  0.00    -0.025 A 
ATOM     32  C   UNL     1      12.434   0.688   1.742  0.00  0.00    +0.005 A 
ATOM     33  C   UNL     1      13.725   0.195   1.800  0.00  0.00    +0.000 A 
ATOM     34  C   UNL     1      14.536   0.508   2.875  0.00  0.00    +0.000 A 
ATOM     35  C   UNL     1      14.059   1.319   3.888  0.00  0.00    +0.000 A 
ATOM     36  C   UNL     1      12.771   1.817   3.826  0.00  0.00    +0.005 A 
ENDBRANCH  30  31
ENDBRANCH  27  30
ENDBRANCH  22  27
ENDBRANCH  19  25
ENDBRANCH   5  19
TORSDOF 6
