REMARK  Name = ZINC54647110
REMARK  14 active torsions:
REMARK  status: ('A' for Active; 'I' for Inactive)
REMARK    1  A    between atoms: C_1  and  C_2
REMARK    2  A    between atoms: C_2  and  O_3
REMARK    3  A    between atoms: O_3  and  C_4
REMARK    4  A    between atoms: C_4  and  C_6
REMARK    5  A    between atoms: C_7  and  C_32
REMARK    6  A    between atoms: C_8  and  C_31
REMARK    7  A    between atoms: C_10  and  N_11
REMARK    8  A    between atoms: C_12  and  C_14
REMARK    9  A    between atoms: C_14  and  C_15
REMARK   10  A    between atoms: C_15  and  C_16
REMARK   11  A    between atoms: C_16  and  N_17
REMARK   12  A    between atoms: C_24  and  C_30
REMARK   13  A    between atoms: C_27  and  C_28
REMARK   14  A    between atoms: C_27  and  C_29
REMARK                            x       y       z     vdW  Elec       q    Type
REMARK                         _______ _______ _______ _____ _____    ______ ____
ROOT
ATOM      1  N   UNL     1      -0.597  -2.458  -3.929  0.00  0.00    -0.279 N 
ATOM      2  C   UNL     1      -1.108  -2.787  -5.133  0.00  0.00    +0.218 C 
ATOM      3  O   UNL     1      -0.384  -3.229  -5.999  0.00  0.00    -0.275 OA
ATOM      4  H   UNL     1      -1.176  -2.104  -3.237  0.00  0.00    +0.155 HD
ENDROOT
BRANCH   1   9
ATOM      5  C   UNL     1       1.448  -2.344  -2.515  0.00  0.00    +0.095 A 
ATOM      6  C   UNL     1       2.874  -2.621  -2.522  0.00  0.00    +0.008 A 
ATOM      7  C   UNL     1       3.364  -3.124  -3.684  0.00  0.00    -0.003 A 
ATOM      8  S   UNL     1       1.927  -3.213  -4.730  0.00  0.00    -0.077 S 
ATOM      9  C   UNL     1       0.757  -2.626  -3.683  0.00  0.00    +0.087 A 
ATOM     10  C   UNL     1       4.784  -3.511  -4.011  0.00  0.00    +0.052 C 
BRANCH   6  11
ATOM     11  C   UNL     1       3.735  -2.373  -1.341  0.00  0.00    -0.016 A 
ATOM     12  C   UNL     1       3.928  -1.073  -0.876  0.00  0.00    +0.008 A 
ATOM     13  C   UNL     1       4.729  -0.848   0.224  0.00  0.00    +0.001 A 
ATOM     14  C   UNL     1       5.342  -1.909   0.865  0.00  0.00    +0.000 A 
ATOM     15  C   UNL     1       5.154  -3.202   0.409  0.00  0.00    +0.001 A 
ATOM     16  C   UNL     1       4.350  -3.440  -0.687  0.00  0.00    +0.008 A 
ENDBRANCH   6  11
BRANCH   5  17
ATOM     17  C   UNL     1       0.776  -1.800  -1.335  0.00  0.00    +0.342 C 
ATOM     18  O   UNL     1       0.312  -2.552  -0.499  0.00  0.00    -0.245 OA
BRANCH  17  19
ATOM     19  O   UNL     1       0.671  -0.465  -1.174  0.00  0.00    -0.461 OA
BRANCH  19  21
ATOM     20  C   UNL     1      -0.019   1.526   0.010  0.00  0.00    +0.048 C 
ATOM     21  C   UNL     1       0.002  -0.004   0.002  0.00  0.00    +0.229 C 
ENDBRANCH  19  21
ENDBRANCH  17  19
ENDBRANCH   5  17
ENDBRANCH   1   9
BRANCH   2  22
ATOM     22  C   UNL     1      -2.579  -2.604  -5.401  0.00  0.00    +0.097 C 
BRANCH  22  23
ATOM     23  C   UNL     1      -2.896  -3.049  -6.830  0.00  0.00    +0.029 C 
BRANCH  23  24
ATOM     24  C   UNL     1      -4.390  -2.864  -7.103  0.00  0.00    +0.117 C 
BRANCH  24  25
ATOM     25  N   UNL     1      -4.693  -3.290  -8.472  0.00  0.00    -0.241 N 
ATOM     26  C   UNL     1      -4.616  -2.387  -9.466  0.00  0.00    +0.225 C 
ATOM     27  O   UNL     1      -4.259  -1.252  -9.233  0.00  0.00    -0.275 OA
ATOM     28  C   UNL     1      -4.980  -2.798 -10.882  0.00  0.00    +0.082 C 
ATOM     29  C   UNL     1      -3.804  -3.651 -11.418  0.00  0.00    +0.014 C 
ATOM     30  C   UNL     1      -4.058  -5.085 -10.916  0.00  0.00    +0.017 C 
ATOM     31  C   UNL     1      -5.373  -5.026 -10.102  0.00  0.00    +0.051 C 
ATOM     32  C   UNL     1      -5.034  -4.573  -8.693  0.00  0.00    +0.228 C 
ATOM     33  O   UNL     1      -5.045  -5.368  -7.777  0.00  0.00    -0.275 OA
ATOM     34  C   UNL     1      -6.149  -3.814 -10.745  0.00  0.00    -0.010 C 
ATOM     35  C   UNL     1      -6.718  -4.189 -12.114  0.00  0.00    +0.012 C 
ATOM     36  C   UNL     1      -7.244  -3.275  -9.822  0.00  0.00    +0.012 C 
ATOM     37  C   UNL     1      -6.154  -6.342 -10.126  0.00  0.00    +0.021 C 
ENDBRANCH  24  25
ENDBRANCH  23  24
ENDBRANCH  22  23
ENDBRANCH   2  22
TORSDOF 9
