REMARK  Name = ZINC21300492
REMARK  9 active torsions:
REMARK  status: ('A' for Active; 'I' for Inactive)
REMARK    1  A    between atoms: C_1  and  C_2
REMARK    2  A    between atoms: C_4  and  O_5
REMARK    3  A    between atoms: C_14  and  C_16
REMARK    4  A    between atoms: C_19  and  S_22
REMARK    5  A    between atoms: S_22  and  N_25
REMARK    6  A    between atoms: N_25  and  C_26
REMARK    7  A    between atoms: C_26  and  C_27
REMARK    8  A    between atoms: C_26  and  C_28
REMARK    9  A    between atoms: C_26  and  C_29
REMARK                            x       y       z     vdW  Elec       q    Type
REMARK                         _______ _______ _______ _____ _____    ______ ____
ROOT
ATOM      1  C   UNL     1       4.073   4.725  -2.837  0.00  0.00    +0.045 C 
ATOM      2  C   UNL     1       3.315   4.330  -1.597  0.00  0.00    -0.033 A 
ATOM      3  C   UNL     1       3.934   3.677  -0.578  0.00  0.00    +0.091 A 
ATOM      4  C   UNL     1       3.202   3.318   0.572  0.00  0.00    +0.285 A 
ATOM      5  O   UNL     1       1.897   3.604   0.695  0.00  0.00    -0.425 OA
ATOM      6  C   UNL     1       1.222   4.250  -0.280  0.00  0.00    +0.141 A 
ATOM      7  C   UNL     1       1.890   4.638  -1.456  0.00  0.00    +0.021 A 
ATOM      8  C   UNL     1       1.195   5.309  -2.469  0.00  0.00    +0.013 A 
ATOM      9  C   UNL     1      -0.131   5.590  -2.311  0.00  0.00    +0.024 A 
ATOM     10  C   UNL     1      -0.801   5.202  -1.150  0.00  0.00    +0.037 A 
ATOM     11  C   UNL     1      -0.127   4.537  -0.136  0.00  0.00    +0.070 A 
ATOM     12  N   UNL     1      -2.157   5.492  -1.006  0.00  0.00    -0.281 N 
ATOM     13  C   UNL     1      -2.969   4.617  -0.379  0.00  0.00    +0.248 C 
ATOM     14  O   UNL     1      -2.506   3.619   0.137  0.00  0.00    -0.270 OA
ATOM     15  H   UNL     1      -2.564   6.433  -1.403  0.00  0.00    +0.155 HD
ENDROOT
BRANCH  13  16
ATOM     16  C   UNL     1      -4.424   4.873  -0.319  0.00  0.00    +0.037 A 
ATOM     17  C   UNL     1      -4.959   6.021  -0.905  0.00  0.00    +0.015 A 
ATOM     18  C   UNL     1      -6.318   6.250  -0.851  0.00  0.00    +0.029 A 
ATOM     19  C   UNL     1      -7.149   5.351  -0.207  0.00  0.00    +0.105 A 
ATOM     20  C   UNL     1      -6.625   4.214   0.382  0.00  0.00    +0.029 A 
ATOM     21  C   UNL     1      -5.268   3.969   0.329  0.00  0.00    +0.015 A 
BRANCH  19  22
ATOM     22  S   UNL     1      -8.884   5.654  -0.136  0.00  0.00    +0.059 S 
ATOM     23  O   UNL     1      -9.143   6.733  -1.024  0.00  0.00    -0.153 OA
ATOM     24  O   UNL     1      -9.523   4.392  -0.264  0.00  0.00    -0.153 OA
BRANCH  22  25
ATOM     25  N   UNL     1      -9.223   6.205   1.389  0.00  0.00    -0.185 NA
ATOM     26  H   UNL     1      -9.580   5.495   2.149  0.00  0.00    +0.149 HD
BRANCH  25  27
ATOM     27  C   UNL     1      -8.844   7.566   1.777  0.00  0.00    +0.032 C 
ATOM     28  C   UNL     1      -9.671   8.573   0.976  0.00  0.00    +0.029 C 
ATOM     29  C   UNL     1      -9.109   7.762   3.271  0.00  0.00    +0.029 C 
ATOM     30  C   UNL     1      -7.357   7.783   1.490  0.00  0.00    +0.029 C 
ENDBRANCH  25  27
ENDBRANCH  22  25
ENDBRANCH  19  22
ENDBRANCH  13  16
BRANCH   4  31
ATOM     31  O   UNL     1       3.770   2.733   1.478  0.00  0.00    -0.480 OA
ATOM     32  H   UNL     1       3.212   2.447   2.381  0.00  0.00    +0.295 HD
ENDBRANCH   4  31
TORSDOF 5
