REMARK  Name = ZINC14142358
REMARK  8 active torsions:
REMARK  status: ('A' for Active; 'I' for Inactive)
REMARK    1  A    between atoms: C_1  and  C_2
REMARK    2  A    between atoms: C_6  and  C_8
REMARK    3  A    between atoms: C_11  and  S_13
REMARK    4  A    between atoms: S_13  and  C_14
REMARK    5  A    between atoms: C_16  and  C_29
REMARK    6  A    between atoms: C_17  and  C_28
REMARK    7  A    between atoms: C_21  and  C_23
REMARK    8  A    between atoms: C_23  and  N_53
REMARK                            x       y       z     vdW  Elec       q    Type
REMARK                         _______ _______ _______ _____ _____    ______ ____
ROOT
ATOM      1  C   UNL     1      -0.502  10.111  -0.459  0.00  0.00    +0.118 A 
ATOM      2  C   UNL     1      -0.832  11.468  -0.191  0.00  0.00    +0.043 A 
ATOM      3  C   UNL     1      -2.124  12.075   0.077  0.00  0.00    -0.029 A 
ATOM      4  C   UNL     1      -2.192  13.394   0.313  0.00  0.00    -0.008 A 
ATOM      5  S   UNL     1      -0.494  13.926   0.197  0.00  0.00    -0.074 S 
ATOM      6  C   UNL     1       0.261  12.363  -0.165  0.00  0.00    +0.113 A 
ATOM      7  N   UNL     1       1.493  11.949  -0.387  0.00  0.00    -0.227 NA
ATOM      8  C   UNL     1       1.736  10.677  -0.635  0.00  0.00    +0.115 A 
ATOM      9  N   UNL     1       0.763   9.784  -0.669  0.00  0.00    -0.227 NA
ATOM     10  C   UNL     1      -3.413  14.227   0.606  0.00  0.00    +0.052 C 
ATOM     11  C   UNL     1      -3.374  11.233   0.086  0.00  0.00    +0.045 C 
ENDROOT
BRANCH   1  12
ATOM     12  S   UNL     1      -1.762   8.881  -0.516  0.00  0.00    -0.009 S 
BRANCH  12  16
ATOM     13  C   UNL     1      -0.157   5.439  -1.304  0.00  0.00    +0.249 A 
ATOM     14  N   UNL     1       0.890   6.227  -1.291  0.00  0.00    -0.106 NA
ATOM     15  N   UNL     1       0.515   7.432  -1.044  0.00  0.00    -0.100 NA
ATOM     16  C   UNL     1      -0.787   7.459  -0.879  0.00  0.00    +0.284 A 
ATOM     17  O   UNL     1      -1.240   6.202  -1.040  0.00  0.00    -0.411 OA
BRANCH  13  23
ATOM     18  C   UNL     1       2.339   1.242  -2.332  0.00  0.00    +0.044 C 
ATOM     19  C   UNL     1       1.044   1.960  -2.050  0.00  0.00    -0.050 A 
ATOM     20  C   UNL     1      -0.146   1.254  -2.027  0.00  0.00    +0.003 A 
ATOM     21  C   UNL     1      -1.339   1.905  -1.774  0.00  0.00    +0.001 A 
ATOM     22  C   UNL     1      -1.350   3.264  -1.532  0.00  0.00    +0.013 A 
ATOM     23  C   UNL     1      -0.153   3.982  -1.555  0.00  0.00    +0.039 A 
ATOM     24  C   UNL     1       1.048   3.319  -1.816  0.00  0.00    +0.016 A 
ENDBRANCH  13  23
ENDBRANCH  12  16
ENDBRANCH   1  12
BRANCH   8  25
ATOM     25  C   UNL     1       3.154  10.232  -0.885  0.00  0.00    -0.001 C 
BRANCH  25  30
ATOM     26  C   UNL     1       3.123  11.671  -2.849  0.00  0.00    -0.078 C 
ATOM     27  C   UNL     1       3.954  11.751  -4.154  0.00  0.00    -0.020 C 
ATOM     28  C   UNL     1       5.263  11.018  -3.777  0.00  0.00    -0.020 C 
ATOM     29  C   UNL     1       4.891  10.124  -2.579  0.00  0.00    -0.078 C 
ATOM     30  N   UNL     1       3.462  10.331  -2.343  0.00  0.00    +0.384 N 
ATOM     31  H   UNL     1       2.920   9.622  -2.851  0.00  0.00    -0.081 HD
ENDBRANCH  25  30
ENDBRANCH   8  25
TORSDOF 5
