REMARK  Name = ZINC35191923
REMARK  9 active torsions:
REMARK  status: ('A' for Active; 'I' for Inactive)
REMARK    1  A    between atoms: N_9  and  C_30
REMARK    2  A    between atoms: C_10  and  S_12
REMARK    3  A    between atoms: S_12  and  C_13
REMARK    4  A    between atoms: C_13  and  C_14
REMARK    5  A    between atoms: C_14  and  C_15
REMARK    6  A    between atoms: C_15  and  C_16
REMARK    7  A    between atoms: C_16  and  C_17
REMARK    8  A    between atoms: C_17  and  C_18
REMARK    9  A    between atoms: N_20  and  C_21
REMARK                            x       y       z     vdW  Elec       q    Type
REMARK                         _______ _______ _______ _____ _____    ______ ____
ROOT
ATOM      1  S   UNL     1       4.740  -2.729  -1.593  0.00  0.00    -0.087 S 
ENDROOT
BRANCH   1  11
ATOM      2  C   UNL     1       0.382   1.393   1.241  0.00  0.00    +0.001 A 
ATOM      3  C   UNL     1       1.336   2.102   0.522  0.00  0.00    +0.002 A 
ATOM      4  C   UNL     1       2.336   1.455  -0.147  0.00  0.00    +0.028 A 
ATOM      5  C   UNL     1       2.403   0.059  -0.109  0.00  0.00    +0.079 A 
ATOM      6  C   UNL     1       1.430  -0.659   0.623  0.00  0.00    +0.065 A 
ATOM      7  C   UNL     1       0.420   0.028   1.296  0.00  0.00    +0.015 A 
ATOM      8  C   UNL     1       1.522  -2.125   0.648  0.00  0.00    +0.267 A 
ATOM      9  O   UNL     1       0.713  -2.797   1.261  0.00  0.00    -0.267 OA
ATOM     10  N   UNL     1       2.538  -2.699  -0.037  0.00  0.00    -0.255 N 
ATOM     11  C   UNL     1       3.437  -1.927  -0.720  0.00  0.00    +0.177 A 
ATOM     12  N   UNL     1       3.374  -0.619  -0.754  0.00  0.00    -0.223 NA
BRANCH  10  13
ATOM     13  C   UNL     1       2.670  -4.095  -0.045  0.00  0.00    +0.052 A 
ATOM     14  C   UNL     1       2.045  -4.846  -1.031  0.00  0.00    +0.029 A 
ATOM     15  C   UNL     1       2.177  -6.221  -1.039  0.00  0.00    +0.040 A 
ATOM     16  C   UNL     1       2.932  -6.850  -0.063  0.00  0.00    +0.124 A 
ATOM     17  C   UNL     1       3.556  -6.102   0.921  0.00  0.00    +0.040 A 
ATOM     18  C   UNL     1       3.432  -4.727   0.928  0.00  0.00    +0.029 A 
ATOM     19  F   UNL     1       3.059  -8.195  -0.071  0.00  0.00    -0.205 F 
ENDBRANCH  10  13
ENDBRANCH   1  11
BRANCH   1  20
ATOM     20  C   UNL     1       5.675  -1.364  -2.337  0.00  0.00    +0.077 C 
BRANCH  20  21
ATOM     21  C   UNL     1       6.852  -1.927  -3.135  0.00  0.00    +0.011 C 
BRANCH  21  22
ATOM     22  C   UNL     1       7.640  -0.776  -3.763  0.00  0.00    +0.001 C 
BRANCH  22  23
ATOM     23  C   UNL     1       8.818  -1.339  -4.561  0.00  0.00    +0.009 C 
BRANCH  23  24
ATOM     24  C   UNL     1       9.606  -0.188  -5.189  0.00  0.00    +0.096 C 
BRANCH  24  25
ATOM     25  C   UNL     1      10.765  -0.743  -5.976  0.00  0.00    +0.214 C 
ATOM     26  O   UNL     1      10.944  -1.941  -6.029  0.00  0.00    -0.276 OA
ATOM     27  N   UNL     1      11.604   0.092  -6.620  0.00  0.00    -0.304 N 
ATOM     28  H   UNL     1      11.461   1.051  -6.577  0.00  0.00    +0.149 HD
BRANCH  27  29
ATOM     29  C   UNL     1      12.731  -0.447  -7.384  0.00  0.00    +0.159 C 
ATOM     30  C   UNL     1      13.140   0.551  -8.470  0.00  0.00    +0.032 C 
ATOM     31  C   UNL     1      13.838  -0.159  -9.617  0.00  0.00    +0.004 C 
ATOM     32  C   UNL     1      15.183  -0.754  -9.242  0.00  0.00    +0.019 C 
ATOM     33  C   UNL     1      15.012  -1.905  -8.249  0.00  0.00    +0.104 C 
ATOM     34  N   UNL     1      14.977  -1.350  -6.886  0.00  0.00    -0.314 N 
ATOM     35  C   UNL     1      13.911  -0.670  -6.462  0.00  0.00    +0.233 C 
ATOM     36  O   UNL     1      13.890  -0.224  -5.334  0.00  0.00    -0.274 OA
ATOM     37  H   UNL     1      15.732  -1.482  -6.292  0.00  0.00    +0.149 HD
ENDBRANCH  27  29
ENDBRANCH  24  25
ENDBRANCH  23  24
ENDBRANCH  22  23
ENDBRANCH  21  22
ENDBRANCH  20  21
ENDBRANCH   1  20
TORSDOF 9
