REMARK  Name = ZINC53114990
REMARK  6 active torsions:
REMARK  status: ('A' for Active; 'I' for Inactive)
REMARK    1  A    between atoms: C_1  and  C_2
REMARK    2  A    between atoms: C_7  and  C_9
REMARK    3  A    between atoms: C_7  and  N_11
REMARK    4  A    between atoms: C_9  and  O_10
REMARK    5  A    between atoms: N_11  and  C_12
REMARK    6  A    between atoms: C_15  and  N_22
REMARK                            x       y       z     vdW  Elec       q    Type
REMARK                         _______ _______ _______ _____ _____    ______ ____
ROOT
ATOM      1  C   UNL     1       1.435   2.178   2.031  0.00  0.00    +0.037 A 
ATOM      2  C   UNL     1       1.033   1.481   3.150  0.00  0.00    +0.025 A 
ATOM      3  C   UNL     1       0.459   2.143   4.231  0.00  0.00    +0.027 A 
ATOM      4  C   UNL     1       0.279   3.508   4.211  0.00  0.00    +0.051 A 
ATOM      5  C   UNL     1       0.680   4.251   3.082  0.00  0.00    +0.093 A 
ATOM      6  C   UNL     1       1.269   3.577   1.984  0.00  0.00    +0.023 A 
ATOM      7  C   UNL     1       1.672   4.322   0.862  0.00  0.00    +0.013 A 
ATOM      8  C   UNL     1       1.481   5.675   0.884  0.00  0.00    +0.020 A 
ATOM      9  C   UNL     1       0.901   6.277   1.998  0.00  0.00    +0.111 A 
ATOM     10  N   UNL     1       0.516   5.577   3.037  0.00  0.00    -0.253 NA
ENDROOT
BRANCH   4  11
ATOM     11  N   UNL     1      -0.300   4.155   5.308  0.00  0.00    -0.356 N 
ATOM     12  H   UNL     1      -0.576   3.643   6.084  0.00  0.00    +0.142 HD
ATOM     13  H   UNL     1      -0.426   5.117   5.292  0.00  0.00    +0.142 HD
ENDBRANCH   4  11
BRANCH   1  14
ATOM     14  N   UNL     1       2.010   1.502   0.952  0.00  0.00    -0.336 N 
ATOM     15  H   UNL     1       2.212   1.980   0.133  0.00  0.00    +0.147 HD
BRANCH  14  21
ATOM     16  C   UNL     1      -0.180   1.030  -0.155  0.00  0.00    +0.007 C 
ATOM     17  C   UNL     1       0.131  -0.463  -0.044  0.00  0.00    -0.012 C 
ATOM     18  C   UNL     1       0.878  -0.923  -1.298  0.00  0.00    +0.003 C 
ATOM     19  C   UNL     1       2.185  -0.138  -1.428  0.00  0.00    +0.002 C 
ATOM     20  C   UNL     1       3.055  -0.388  -0.195  0.00  0.00    +0.028 C 
ATOM     21  C   UNL     1       2.308   0.072   1.058  0.00  0.00    +0.055 C 
ATOM     22  C   UNL     1       1.001  -0.713   1.189  0.00  0.00    +0.031 C 
BRANCH  21  23
ATOM     23  C   UNL     1       3.178  -0.178   2.292  0.00  0.00    +0.181 C 
BRANCH  23  24
ATOM     24  O   UNL     1       4.364   0.614   2.206  0.00  0.00    -0.393 OA
ATOM     25  H   UNL     1       4.965   0.506   2.956  0.00  0.00    +0.209 HD
ENDBRANCH  23  24
ENDBRANCH  21  23
ENDBRANCH  14  21
ENDBRANCH   1  14
TORSDOF 5
