REMARK  Name = ZINC10066816
REMARK  9 active torsions:
REMARK  status: ('A' for Active; 'I' for Inactive)
REMARK    1  A    between atoms: C_1  and  C_2
REMARK    2  A    between atoms: C_2  and  N_55
REMARK    3  A    between atoms: C_3  and  C_4
REMARK    4  A    between atoms: C_3  and  N_55
REMARK    5  A    between atoms: C_5  and  C_6
REMARK    6  A    between atoms: C_5  and  N_55
REMARK    7  A    between atoms: C_6  and  N_7
REMARK    8  A    between atoms: C_18  and  C_20
REMARK    9  A    between atoms: C_20  and  N_21
REMARK                            x       y       z     vdW  Elec       q    Type
REMARK                         _______ _______ _______ _____ _____    ______ ____
ROOT
ATOM      1  N   UNL     1      -0.425  -4.024  -0.016  0.00  0.00    -0.251 N 
ATOM      2  C   UNL     1      -0.134  -2.670   0.006  0.00  0.00    +0.168 A 
ATOM      3  N   UNL     1       1.039  -2.081  -0.001  0.00  0.00    -0.223 NA
ATOM      4  C   UNL     1       1.176  -0.737   0.023  0.00  0.00    +0.099 A 
ATOM      5  C   UNL     1      -0.029   0.001   0.058  0.00  0.00    +0.042 A 
ATOM      6  S   UNL     1      -1.258  -1.282   0.052  0.00  0.00    -0.052 S 
ATOM      7  C   UNL     1      -0.057   1.373   0.086  0.00  0.00    +0.017 A 
ATOM      8  C   UNL     1       1.131   2.081   0.081  0.00  0.00    +0.003 A 
ATOM      9  C   UNL     1       2.334   1.390   0.048  0.00  0.00    +0.022 A 
ATOM     10  C   UNL     1       2.372   0.019   0.019  0.00  0.00    +0.067 A 
ATOM     11 CL   UNL     1       3.904  -0.796  -0.023  0.00  0.00    -0.081 Cl
ATOM     12  C   UNL     1       0.573  -4.929  -0.050  0.00  0.00    +0.239 C 
ATOM     13  O   UNL     1       0.318  -6.114  -0.070  0.00  0.00    -0.273 OA
ENDROOT
BRANCH   1  14
ATOM     14  C   UNL     1      -1.820  -4.474  -0.002  0.00  0.00    +0.097 C 
BRANCH  14  15
ATOM     15  C   UNL     1      -2.329  -4.601  -1.439  0.00  0.00    -0.059 C 
BRANCH  15  16
ATOM     16  N   UNL     1      -3.685  -5.190  -1.411  0.00  0.00    +0.380 N 
ATOM     17  H   UNL     1      -3.703  -5.952  -0.723  0.00  0.00    -0.082 HD
BRANCH  16  19
ATOM     18  C   UNL     1      -6.022  -4.843  -0.778  0.00  0.00    -0.017 C 
ATOM     19  C   UNL     1      -4.673  -4.163  -1.017  0.00  0.00    -0.082 C 
ENDBRANCH  16  19
BRANCH  16  20
ATOM     20  C   UNL     1      -4.027  -5.736  -2.741  0.00  0.00    -0.082 C 
ATOM     21  C   UNL     1      -3.304  -7.072  -2.923  0.00  0.00    -0.017 C 
ENDBRANCH  16  20
ENDBRANCH  15  16
ENDBRANCH  14  15
ENDBRANCH   1  14
BRANCH  12  22
ATOM     22  C   UNL     1       2.008  -4.467  -0.065  0.00  0.00    +0.213 C 
BRANCH  22  23
ATOM     23  N   UNL     1       2.896  -5.631  -0.103  0.00  0.00    -0.225 N 
ATOM     24  C   UNL     1       3.380  -6.255   0.987  0.00  0.00    +0.254 C 
ATOM     25  O   UNL     1       3.153  -5.947   2.139  0.00  0.00    -0.270 OA
ATOM     26  C   UNL     1       4.231  -7.380   0.545  0.00  0.00    +0.049 A 
ATOM     27  C   UNL     1       4.972  -8.349   1.203  0.00  0.00    +0.014 A 
ATOM     28  C   UNL     1       5.685  -9.285   0.470  0.00  0.00    +0.001 A 
ATOM     29  C   UNL     1       5.662  -9.257  -0.912  0.00  0.00    +0.001 A 
ATOM     30  C   UNL     1       4.925  -8.294  -1.583  0.00  0.00    +0.014 A 
ATOM     31  C   UNL     1       4.208  -7.352  -0.864  0.00  0.00    +0.049 A 
ATOM     32  C   UNL     1       3.339  -6.214  -1.231  0.00  0.00    +0.254 C 
ATOM     33  O   UNL     1       3.070  -5.864  -2.363  0.00  0.00    -0.270 OA
ENDBRANCH  22  23
ENDBRANCH  12  22
TORSDOF 7
