REMARK  Name = ZINC02071609
REMARK  7 active torsions:
REMARK  status: ('A' for Active; 'I' for Inactive)
REMARK    1  A    between atoms: C_3  and  N_28
REMARK    2  A    between atoms: C_6  and  C_7
REMARK    3  A    between atoms: N_9  and  C_10
REMARK    4  A    between atoms: C_10  and  C_12
REMARK    5  A    between atoms: C_10  and  N_16
REMARK    6  A    between atoms: N_16  and  C_17
REMARK    7  A    between atoms: C_18  and  C_26
REMARK                            x       y       z     vdW  Elec       q    Type
REMARK                         _______ _______ _______ _____ _____    ______ ____
ROOT
ATOM      1  C   UNL     1      -2.306   7.241  -3.036  0.00  0.00    +0.211 C 
ENDROOT
BRANCH   1   4
ATOM      2  C   UNL     1      -4.505   6.445  -3.719  0.00  0.00    +0.246 C 
ATOM      3  O   UNL     1      -3.979   5.427  -4.123  0.00  0.00    -0.270 OA
ATOM      4  N   UNL     1      -3.755   7.415  -3.159  0.00  0.00    -0.290 N 
ATOM      5  H   UNL     1      -4.175   8.227  -2.836  0.00  0.00    +0.151 HD
BRANCH   2  11
ATOM      6  C   UNL     1      -6.576   7.786  -3.374  0.00  0.00    +0.015 A 
ATOM      7  C   UNL     1      -7.941   7.946  -3.498  0.00  0.00    +0.033 A 
ATOM      8  C   UNL     1      -8.708   6.948  -4.073  0.00  0.00    +0.126 A 
ATOM      9  C   UNL     1      -8.112   5.788  -4.534  0.00  0.00    +0.033 A 
ATOM     10  C   UNL     1      -6.748   5.618  -4.422  0.00  0.00    +0.015 A 
ATOM     11  C   UNL     1      -5.968   6.620  -3.842  0.00  0.00    +0.037 A 
BRANCH   8  12
ATOM     12  N   UNL     1     -10.173   7.123  -4.196  0.00  0.00    +0.056 N 
ATOM     13  O   UNL     1     -10.850   6.247  -4.703  0.00  0.00    -0.126 OA
ATOM     14  O   UNL     1     -10.700   8.144  -3.792  0.00  0.00    -0.126 OA
ENDBRANCH   8  12
ENDBRANCH   2  11
ENDBRANCH   1   4
BRANCH   1  15
ATOM     15  C   UNL     1      -1.600   8.528  -3.469  0.00  0.00    +0.225 C 
ATOM     16 CL   UNL     1       0.184   8.314  -3.319  0.00  0.00    -0.080 Cl
ATOM     17 CL   UNL     1      -2.019   8.895  -5.184  0.00  0.00    -0.080 Cl
ATOM     18 CL   UNL     1      -2.133   9.889  -2.415  0.00  0.00    -0.080 Cl
ENDBRANCH   1  15
BRANCH   1  19
ATOM     19  N   UNL     1      -1.965   6.942  -1.643  0.00  0.00    -0.316 N 
ATOM     20  H   UNL     1      -1.981   7.648  -0.978  0.00  0.00    +0.148 HD
BRANCH  19  21
ATOM     21  C   UNL     1      -1.622   5.653  -1.276  0.00  0.00    +0.085 A 
ATOM     22  C   UNL     1      -1.272   5.178  -0.020  0.00  0.00    +0.083 A 
ATOM     23  C   UNL     1      -0.952   3.765   0.099  0.00  0.00    -0.018 A 
ATOM     24  C   UNL     1      -1.032   3.059  -1.049  0.00  0.00    -0.004 A 
ATOM     25  S   UNL     1      -1.524   4.239  -2.273  0.00  0.00    -0.077 S 
ATOM     26  C   UNL     1      -0.761   1.597  -1.232  0.00  0.00    +0.043 C 
ATOM     27  C   UNL     1      -0.013   1.086   0.008  0.00  0.00    +0.005 C 
ATOM     28  C   UNL     1      -0.735   1.583   1.264  0.00  0.00    +0.005 C 
ATOM     29  C   UNL     1      -0.551   3.094   1.407  0.00  0.00    +0.037 C 
BRANCH  22  30
ATOM     30  C   UNL     1      -1.228   6.048   1.117  0.00  0.00    +0.102 C 
ATOM     31  N   UNL     1      -1.194   6.737   2.019  0.00  0.00    -0.191 NA
ENDBRANCH  22  30
ENDBRANCH  19  21
ENDBRANCH   1  19
TORSDOF 7
