REMARK  Name = ZINC17245651
REMARK  9 active torsions:
REMARK  status: ('A' for Active; 'I' for Inactive)
REMARK    1  A    between atoms: C_1  and  C_2
REMARK    2  A    between atoms: C_2  and  C_3
REMARK    3  A    between atoms: N_10  and  N_13
REMARK    4  A    between atoms: C_14  and  C_16
REMARK    5  A    between atoms: C_19  and  S_22
REMARK    6  A    between atoms: S_22  and  N_25
REMARK    7  A    between atoms: N_25  and  C_26
REMARK    8  A    between atoms: C_30  and  C_33
REMARK    9  A    between atoms: C_31  and  C_32
REMARK                            x       y       z     vdW  Elec       q    Type
REMARK                         _______ _______ _______ _____ _____    ______ ____
ROOT
ATOM      1  C   UNL     1       0.579  -4.334  -0.860  0.00  0.00    +0.038 A 
ATOM      2  C   UNL     1       0.953  -5.092   0.251  0.00  0.00    +0.015 A 
ATOM      3  C   UNL     1       0.982  -6.468   0.164  0.00  0.00    +0.029 A 
ATOM      4  C   UNL     1       0.653  -7.097  -1.024  0.00  0.00    +0.109 A 
ATOM      5  C   UNL     1       0.286  -6.351  -2.130  0.00  0.00    +0.029 A 
ATOM      6  C   UNL     1       0.247  -4.974  -2.055  0.00  0.00    +0.015 A 
ENDROOT
BRANCH   1   8
ATOM      7  N   UNL     1       0.860  -2.243   0.383  0.00  0.00    -0.215 N 
ATOM      8  C   UNL     1       0.539  -2.858  -0.773  0.00  0.00    +0.262 C 
ATOM      9  O   UNL     1       0.218  -2.201  -1.743  0.00  0.00    -0.268 OA
ATOM     10  H   UNL     1       1.117  -2.768   1.157  0.00  0.00    +0.176 HD
BRANCH   7  18
ATOM     11  C   UNL     1       2.739   3.545   0.655  0.00  0.00    -0.008 A 
ATOM     12  C   UNL     1       3.020   2.234   0.571  0.00  0.00    +0.026 A 
ATOM     13  C   UNL     1       1.930   1.276   0.551  0.00  0.00    +0.074 A 
ATOM     14  C   UNL     1       0.643   1.838   0.626  0.00  0.00    +0.115 A 
ATOM     15  S   UNL     1       0.958   3.582   0.716  0.00  0.00    -0.073 S 
ATOM     16  N   UNL     1      -0.454   1.087   0.619  0.00  0.00    -0.228 NA
ATOM     17  C   UNL     1      -0.378  -0.215   0.541  0.00  0.00    +0.223 A 
ATOM     18  N   UNL     1       0.823  -0.845   0.465  0.00  0.00    -0.212 N 
ATOM     19  C   UNL     1       1.978  -0.153   0.467  0.00  0.00    +0.279 A 
ATOM     20  O   UNL     1       3.047  -0.734   0.398  0.00  0.00    -0.265 OA
BRANCH  11  22
ATOM     21  C   UNL     1       3.977   5.181  -0.737  0.00  0.00    +0.009 C 
ATOM     22  C   UNL     1       3.699   4.705   0.691  0.00  0.00    +0.039 C 
ENDBRANCH  11  22
ENDBRANCH   7  18
ENDBRANCH   1   8
BRANCH   4  23
ATOM     23  S   UNL     1       0.700  -8.855  -1.127  0.00  0.00    +0.072 S 
ATOM     24  O   UNL     1       0.545  -9.345   0.198  0.00  0.00    -0.150 OA
ATOM     25  O   UNL     1      -0.177  -9.224  -2.183  0.00  0.00    -0.150 OA
BRANCH  23  26
ATOM     26  N   UNL     1       2.226  -9.277  -1.612  0.00  0.00    -0.216 N 
ATOM     27  H   UNL     1       2.355  -9.764  -2.441  0.00  0.00    +0.174 HD
BRANCH  26  28
ATOM     28  C   UNL     1       3.329  -8.930  -0.828  0.00  0.00    +0.051 A 
ATOM     29  C   UNL     1       3.226  -8.935   0.558  0.00  0.00    +0.025 A 
ATOM     30  C   UNL     1       4.318  -8.593   1.330  0.00  0.00    +0.002 A 
ATOM     31  C   UNL     1       5.513  -8.245   0.727  0.00  0.00    +0.004 A 
ATOM     32  C   UNL     1       5.618  -8.239  -0.652  0.00  0.00    -0.046 A 
ATOM     33  C   UNL     1       4.532  -8.586  -1.431  0.00  0.00    -0.025 A 
ATOM     34  C   UNL     1       4.649  -8.585  -2.933  0.00  0.00    +0.046 C 
ATOM     35  C   UNL     1       6.922  -7.859  -1.306  0.00  0.00    +0.044 C 
ENDBRANCH  26  28
ENDBRANCH  23  26
ENDBRANCH   4  23
TORSDOF 6
