REMARK  Name = ZINC45254353
REMARK  10 active torsions:
REMARK  status: ('A' for Active; 'I' for Inactive)
REMARK    1  A    between atoms: C_1  and  C_2
REMARK    2  A    between atoms: C_2  and  O_3
REMARK    3  A    between atoms: O_3  and  C_4
REMARK    4  A    between atoms: C_7  and  N_10
REMARK    5  A    between atoms: N_10  and  C_11
REMARK    6  A    between atoms: C_12  and  C_32
REMARK    7  A    between atoms: C_13  and  N_22
REMARK    8  A    between atoms: C_14  and  C_20
REMARK    9  A    between atoms: N_22  and  C_23
REMARK   10  A    between atoms: C_28  and  N_31
REMARK                            x       y       z     vdW  Elec       q    Type
REMARK                         _______ _______ _______ _____ _____    ______ ____
ROOT
ATOM      1  C   UNL     1       1.789  -6.465  -2.665  0.00  0.00    +0.130 A 
ATOM      2  C   UNL     1       2.070  -7.761  -2.965  0.00  0.00    +0.012 A 
ATOM      3  C   UNL     1       2.528  -8.126  -4.236  0.00  0.00    +0.053 A 
ATOM      4  C   UNL     1       2.697  -7.130  -5.212  0.00  0.00    +0.098 A 
ATOM      5  C   UNL     1       2.383  -5.745  -4.850  0.00  0.00    +0.088 A 
ATOM      6  N   UNL     1       1.934  -5.463  -3.587  0.00  0.00    -0.217 N 
ATOM      7  N   UNL     1       1.709  -4.081  -3.522  0.00  0.00    -0.173 NA
ATOM      8  C   UNL     1       2.000  -3.548  -4.685  0.00  0.00    +0.135 A 
ATOM      9  C   UNL     1       2.434  -4.551  -5.545  0.00  0.00    +0.050 A 
ATOM     10  C   UNL     1       1.885  -8.822  -1.912  0.00  0.00    +0.049 C 
ENDROOT
BRANCH   1  11
ATOM     11  N   UNL     1       1.340  -6.152  -1.399  0.00  0.00    -0.299 N 
ATOM     12  H   UNL     1       0.526  -6.556  -1.059  0.00  0.00    +0.154 HD
BRANCH  11  16
ATOM     13  C   UNL     1       3.482  -3.470   0.967  0.00  0.00    +0.121 A 
ATOM     14  C   UNL     1       2.253  -3.947   1.399  0.00  0.00    +0.047 A 
ATOM     15  C   UNL     1       1.543  -4.836   0.616  0.00  0.00    +0.027 A 
ATOM     16  C   UNL     1       2.059  -5.251  -0.604  0.00  0.00    +0.033 A 
ATOM     17  C   UNL     1       3.289  -4.772  -1.036  0.00  0.00    +0.027 A 
ATOM     18  C   UNL     1       3.995  -3.880  -0.254  0.00  0.00    +0.047 A 
BRANCH  13  19
ATOM     19  O   UNL     1       4.180  -2.595   1.739  0.00  0.00    -0.492 OA
BRANCH  19  21
ATOM     20  C   UNL     1       4.516  -1.234   3.708  0.00  0.00    +0.048 C 
ATOM     21  C   UNL     1       3.591  -2.216   2.985  0.00  0.00    +0.225 C 
ENDBRANCH  19  21
ENDBRANCH  13  19
ENDBRANCH  11  16
ENDBRANCH   1  11
BRANCH   4  22
ATOM     22  C   UNL     1       3.164  -7.459  -6.525  0.00  0.00    +0.103 C 
ATOM     23  N   UNL     1       3.534  -7.720  -7.567  0.00  0.00    -0.191 NA
ENDBRANCH   4  22
BRANCH   3  24
ATOM     24  N   UNL     1       2.811  -9.450  -4.528  0.00  0.00    -0.340 N 
ATOM     25  H   UNL     1       3.713  -9.711  -4.768  0.00  0.00    +0.146 HD
BRANCH  24  26
ATOM     26  C   UNL     1       1.747 -10.455  -4.473  0.00  0.00    +0.069 C 
ATOM     27  C   UNL     1       1.156 -10.650  -5.870  0.00  0.00    +0.022 C 
ATOM     28  C   UNL     1       0.045 -11.701  -5.813  0.00  0.00    +0.000 C 
ATOM     29  C   UNL     1       0.622 -13.027  -5.313  0.00  0.00    -0.016 C 
ATOM     30  C   UNL     1       1.213 -12.832  -3.915  0.00  0.00    -0.073 C 
ATOM     31  C   UNL     1       2.324 -11.781  -3.973  0.00  0.00    +0.006 C 
BRANCH  30  32
ATOM     32  N   UNL     1       1.767 -14.105  -3.436  0.00  0.00    +0.380 N 
ATOM     33  H   UNL     1       2.491 -14.415  -4.067  0.00  0.00    -0.090 HD
ATOM     34  H   UNL     1       2.156 -13.976  -2.514  0.00  0.00    -0.090 HD
ATOM     35  H   UNL     1       1.034 -14.797  -3.398  0.00  0.00    -0.090 HD
ENDBRANCH  30  32
ENDBRANCH  24  26
ENDBRANCH   3  24
TORSDOF 8
