REMARK  Name = ZINC40014671
REMARK  16 active torsions:
REMARK  status: ('A' for Active; 'I' for Inactive)
REMARK    1  A    between atoms: C_1  and  C_2
REMARK    2  A    between atoms: C_2  and  C_3
REMARK    3  A    between atoms: C_3  and  C_4
REMARK    4  A    between atoms: C_4  and  O_5
REMARK    5  A    between atoms: O_5  and  C_6
REMARK    6  A    between atoms: C_9  and  C_14
REMARK    7  A    between atoms: C_11  and  O_12
REMARK    8  A    between atoms: O_12  and  C_13
REMARK    9  A    between atoms: N_29  and  C_30
REMARK   10  A    between atoms: C_30  and  C_31
REMARK   11  A    between atoms: C_31  and  C_32
REMARK   12  A    between atoms: C_32  and  N_33
REMARK   13  A    between atoms: N_33  and  C_34
REMARK   14  A    between atoms: N_33  and  C_36
REMARK   15  A    between atoms: C_34  and  C_35
REMARK   16  A    between atoms: C_36  and  C_37
REMARK                            x       y       z     vdW  Elec       q    Type
REMARK                         _______ _______ _______ _____ _____    ______ ____
ROOT
ATOM      1  C   UNL     1       1.910  -8.327   3.165  0.00  0.00    +0.145 C 
ATOM      2  C   UNL     1       0.601  -8.930   3.558  0.00  0.00    +0.072 A 
ATOM      3  C   UNL     1      -0.170  -8.839   4.802  0.00  0.00    +0.199 A 
ATOM      4  O   UNL     1       0.102  -8.062   5.700  0.00  0.00    -0.287 OA
ATOM      5  C   UNL     1      -1.314  -9.783   4.863  0.00  0.00    +0.066 A 
ATOM      6  C   UNL     1      -2.021  -9.960   6.052  0.00  0.00    +0.035 A 
ATOM      7  C   UNL     1      -3.077 -10.844   6.092  0.00  0.00    +0.042 A 
ATOM      8  C   UNL     1      -3.433 -11.555   4.952  0.00  0.00    +0.023 A 
ATOM      9  C   UNL     1      -2.743 -11.387   3.773  0.00  0.00    +0.048 A 
ATOM     10  C   UNL     1      -1.672 -10.495   3.707  0.00  0.00    +0.140 A 
ATOM     11  O   UNL     1      -1.018 -10.342   2.533  0.00  0.00    -0.450 OA
ATOM     12  C   UNL     1       0.149  -9.670   2.503  0.00  0.00    +0.199 A 
ATOM     13  C   UNL     1       1.139  -9.576   1.415  0.00  0.00    +0.283 C 
ATOM     14  O   UNL     1       1.041 -10.123   0.335  0.00  0.00    -0.267 OA
ATOM     15  N   UNL     1       2.172  -8.793   1.793  0.00  0.00    -0.284 N 
ATOM     16 CL   UNL     1      -3.964 -11.071   7.567  0.00  0.00    -0.084 Cl
ENDROOT
BRANCH   1  20
ATOM     17  C   UNL     1       1.650  -4.059   3.247  0.00  0.00    +0.162 A 
ATOM     18  C   UNL     1       1.108  -4.769   2.188  0.00  0.00    +0.050 A 
ATOM     19  C   UNL     1       1.194  -6.149   2.164  0.00  0.00    +0.009 A 
ATOM     20  C   UNL     1       1.819  -6.823   3.196  0.00  0.00    -0.019 A 
ATOM     21  C   UNL     1       2.362  -6.121   4.256  0.00  0.00    +0.055 A 
ATOM     22  C   UNL     1       2.285  -4.738   4.282  0.00  0.00    +0.162 A 
BRANCH  22  23
ATOM     23  O   UNL     1       2.824  -4.045   5.321  0.00  0.00    -0.491 OA
ATOM     24  C   UNL     1       3.460  -4.808   6.349  0.00  0.00    +0.277 C 
ENDBRANCH  22  23
BRANCH  17  25
ATOM     25  O   UNL     1       1.567  -2.702   3.271  0.00  0.00    -0.488 OA
BRANCH  25  26
ATOM     26  C   UNL     1       0.901  -2.073   2.175  0.00  0.00    +0.229 C 
BRANCH  26  27
ATOM     27  C   UNL     1       0.907  -0.556   2.376  0.00  0.00    +0.041 C 
BRANCH  27  29
ATOM     28  C   UNL     1       0.200   1.634   1.404  0.00  0.00    +0.004 C 
ATOM     29  C   UNL     1       0.194   0.117   1.202  0.00  0.00    -0.000 C 
ENDBRANCH  27  29
ENDBRANCH  26  27
ENDBRANCH  25  26
ENDBRANCH  17  25
ENDBRANCH   1  20
BRANCH  15  30
ATOM     30  C   UNL     1       3.346  -8.462   0.982  0.00  0.00    +0.107 C 
BRANCH  30  31
ATOM     31  C   UNL     1       4.442  -9.503   1.223  0.00  0.00    +0.000 C 
BRANCH  31  32
ATOM     32  C   UNL     1       5.668  -9.158   0.376  0.00  0.00    -0.077 C 
BRANCH  32  33
ATOM     33  N   UNL     1       6.765 -10.079   0.704  0.00  0.00    +0.379 N 
ATOM     34  H   UNL     1       6.932 -10.061   1.699  0.00  0.00    -0.082 HD
BRANCH  33  35
ATOM     35  C   UNL     1       6.400 -11.441   0.293  0.00  0.00    -0.082 C 
ATOM     36  C   UNL     1       7.486 -12.418   0.746  0.00  0.00    -0.017 C 
ENDBRANCH  33  35
BRANCH  33  37
ATOM     37  C   UNL     1       7.982  -9.663  -0.005  0.00  0.00    -0.082 C 
ATOM     38  C   UNL     1       8.443  -8.304   0.526  0.00  0.00    -0.017 C 
ENDBRANCH  33  37
ENDBRANCH  32  33
ENDBRANCH  31  32
ENDBRANCH  30  31
ENDBRANCH  15  30
TORSDOF 12
