REMARK  Name = ZINC23353921
REMARK  6 active torsions:
REMARK  status: ('A' for Active; 'I' for Inactive)
REMARK    1  A    between atoms: C_1  and  N_2
REMARK    2  A    between atoms: C_5  and  C_7
REMARK    3  A    between atoms: C_17  and  N_21
REMARK    4  A    between atoms: N_21  and  C_22
REMARK    5  A    between atoms: C_22  and  C_23
REMARK    6  A    between atoms: C_23  and  N_29
REMARK                            x       y       z     vdW  Elec       q    Type
REMARK                         _______ _______ _______ _____ _____    ______ ____
ROOT
ATOM      1  C   UNL     1      -0.226   1.393   0.145  0.00  0.00    +0.172 C 
ATOM      2  N   UNL     1      -0.237  -0.072   0.102  0.00  0.00    -0.270 N 
ATOM      3  C   UNL     1      -0.196  -0.809  -1.020  0.00  0.00    +0.043 A 
ATOM      4  C   UNL     1      -0.221  -2.112  -0.645  0.00  0.00    +0.004 A 
ATOM      5  C   UNL     1      -0.283  -2.108   0.759  0.00  0.00    +0.151 A 
ATOM      6  N   UNL     1      -0.284  -0.841   1.135  0.00  0.00    -0.166 NA
ATOM      7  C   UNL     1      -0.185  -3.276  -1.596  0.00  0.00    +0.023 C 
ATOM      8  C   UNL     1       0.287  -2.765  -2.964  0.00  0.00    -0.067 C 
ATOM      9  C   UNL     1      -0.523  -1.527  -3.356  0.00  0.00    -0.009 C 
ATOM     10  C   UNL     1      -0.134  -0.349  -2.453  0.00  0.00    +0.054 C 
ENDROOT
BRANCH   5  11
ATOM     11  C   UNL     1      -0.333  -3.291   1.643  0.00  0.00    +0.267 C 
ATOM     12  O   UNL     1      -0.409  -4.405   1.163  0.00  0.00    -0.268 OA
ATOM     13  N   UNL     1      -0.294  -3.134   2.981  0.00  0.00    -0.296 N 
ATOM     14  C   UNL     1      -0.341  -1.794   3.523  0.00  0.00    +0.108 C 
ATOM     15  C   UNL     1       1.097  -1.235   3.650  0.00  0.00    +0.019 C 
ATOM     16  C   UNL     1       1.816  -1.916   4.738  0.00  0.00    +0.002 C 
ATOM     17  C   UNL     1       2.011  -3.413   4.522  0.00  0.00    +0.002 C 
ATOM     18  C   UNL     1       0.784  -4.152   4.997  0.00  0.00    +0.019 C 
ATOM     19  C   UNL     1      -0.211  -4.337   3.832  0.00  0.00    +0.108 C 
ENDBRANCH   5  11
BRANCH   8  20
ATOM     20  N   UNL     1       0.094  -3.816  -3.972  0.00  0.00    +0.382 N 
ATOM     21  H   UNL     1       0.561  -4.659  -3.674  0.00  0.00    -0.085 HD
ATOM     22  H   UNL     1      -0.892  -3.999  -4.082  0.00  0.00    -0.085 HD
BRANCH  20  23
ATOM     23  C   UNL     1       0.655  -3.372  -5.255  0.00  0.00    -0.060 C 
BRANCH  23  24
ATOM     24  C   UNL     1       0.349  -4.414  -6.333  0.00  0.00    +0.007 C 
ATOM     25  C   UNL     1       0.940  -3.956  -7.668  0.00  0.00    +0.020 C 
ATOM     26  C   UNL     1       0.322  -2.614  -8.066  0.00  0.00    +0.002 C 
ATOM     27  C   UNL     1      -1.193  -2.772  -8.206  0.00  0.00    +0.000 C 
ATOM     28  C   UNL     1      -1.784  -3.230  -6.871  0.00  0.00    +0.002 C 
ATOM     29  C   UNL     1      -1.166  -4.572  -6.474  0.00  0.00    +0.020 C 
BRANCH  24  30
ATOM     30  N   UNL     1       0.943  -5.702  -5.952  0.00  0.00    -0.294 NA
ATOM     31  C   UNL     1       2.365  -5.548  -5.614  0.00  0.00    +0.113 C 
ATOM     32  C   UNL     1       2.927  -6.900  -5.166  0.00  0.00    +0.175 C 
ATOM     33  O   UNL     1       2.719  -7.864  -6.201  0.00  0.00    -0.377 OA
ATOM     34  C   UNL     1       1.344  -8.040  -6.555  0.00  0.00    +0.175 C 
ATOM     35  C   UNL     1       0.766  -6.700  -7.017  0.00  0.00    +0.113 C 
ENDBRANCH  24  30
ENDBRANCH  23  24
ENDBRANCH  20  23
ENDBRANCH   8  20
TORSDOF 5
