REMARK  Name = ZINC40317458
REMARK  10 active torsions:
REMARK  status: ('A' for Active; 'I' for Inactive)
REMARK    1  A    between atoms: C_1  and  C_2
REMARK    2  A    between atoms: C_4  and  O_9
REMARK    3  A    between atoms: O_9  and  C_10
REMARK    4  A    between atoms: C_10  and  C_11
REMARK    5  A    between atoms: C_11  and  C_13
REMARK    6  A    between atoms: C_11  and  O_30
REMARK    7  A    between atoms: C_13  and  N_14
REMARK    8  A    between atoms: N_14  and  C_15
REMARK    9  A    between atoms: N_14  and  C_22
REMARK   10  A    between atoms: C_15  and  C_16
REMARK                            x       y       z     vdW  Elec       q    Type
REMARK                         _______ _______ _______ _____ _____    ______ ____
ROOT
ATOM      1  N   UNL     1      -0.464  -6.850  -4.970  0.00  0.00    +0.389 N 
ATOM      2  H   UNL     1      -1.371  -6.674  -5.375  0.00  0.00    -0.081 HD
ENDROOT
BRANCH   1   3
ATOM      3  C   UNL     1       0.583  -6.421  -5.907  0.00  0.00    -0.045 C 
ATOM      4  C   UNL     1       0.158  -6.753  -7.347  0.00  0.00    +0.009 C 
ATOM      5  C   UNL     1       1.368  -6.605  -8.301  0.00  0.00    +0.164 C 
ATOM      6  S   UNL     1       2.797  -6.958  -7.199  0.00  0.00    -0.033 S 
ATOM      7  O   UNL     1       3.613  -5.798  -7.113  0.00  0.00    -0.174 OA
ATOM      8  O   UNL     1       3.381  -8.196  -7.582  0.00  0.00    -0.174 OA
ATOM      9  C   UNL     1       1.904  -7.184  -5.604  0.00  0.00    +0.151 C 
ENDBRANCH   1   3
BRANCH   1  10
ATOM     10  C   UNL     1      -0.336  -6.097  -3.715  0.00  0.00    -0.043 C 
BRANCH  10  11
ATOM     11  C   UNL     1      -0.770  -4.648  -3.942  0.00  0.00    +0.135 C 
BRANCH  11  12
ATOM     12  O   UNL     1       0.171  -3.997  -4.797  0.00  0.00    -0.390 OA
ATOM     13  H   UNL     1       1.083  -4.035  -4.479  0.00  0.00    +0.210 HD
ENDBRANCH  11  12
BRANCH  11  14
ATOM     14  C   UNL     1      -0.830  -3.917  -2.599  0.00  0.00    +0.258 C 
BRANCH  14  15
ATOM     15  O   UNL     1      -1.348  -2.600  -2.796  0.00  0.00    -0.489 OA
BRANCH  15  19
ATOM     16  C   UNL     1      -2.619   1.679  -0.822  0.00  0.00    +0.045 C 
ATOM     17  C   UNL     1      -2.081   0.277  -0.693  0.00  0.00    -0.029 A 
ATOM     18  C   UNL     1      -1.961  -0.522  -1.814  0.00  0.00    +0.050 A 
ATOM     19  C   UNL     1      -1.466  -1.812  -1.695  0.00  0.00    +0.121 A 
ATOM     20  C   UNL     1      -1.093  -2.298  -0.450  0.00  0.00    +0.047 A 
ATOM     21  C   UNL     1      -1.215  -1.496   0.668  0.00  0.00    +0.024 A 
ATOM     22  C   UNL     1      -1.703  -0.207   0.546  0.00  0.00    +0.044 A 
ATOM     23 CL   UNL     1      -1.849   0.801   1.952  0.00  0.00    -0.083 Cl
ENDBRANCH  15  19
ENDBRANCH  14  15
ENDBRANCH  11  14
ENDBRANCH  10  11
ENDBRANCH   1  10
BRANCH   1  24
ATOM     24  C   UNL     1      -0.319  -8.286  -4.697  0.00  0.00    -0.003 C 
BRANCH  24  25
ATOM     25  C   UNL     1      -0.578  -9.066  -5.960  0.00  0.00    +0.090 A 
ATOM     26  C   UNL     1       0.359  -9.643  -6.734  0.00  0.00    +0.044 A 
ATOM     27  C   UNL     1      -0.322 -10.264  -7.807  0.00  0.00    +0.057 A 
ATOM     28  C   UNL     1      -1.635 -10.028  -7.625  0.00  0.00    +0.170 A 
ATOM     29  O   UNL     1      -1.784  -9.306  -6.502  0.00  0.00    -0.455 OA
ATOM     30 BR   UNL     1      -3.032 -10.617  -8.754  0.00  0.00    -0.008 Br
ENDBRANCH  24  25
ENDBRANCH   1  24
TORSDOF 9
