REMARK  Name = ZINC39714696
REMARK  12 active torsions:
REMARK  status: ('A' for Active; 'I' for Inactive)
REMARK    1  A    between atoms: C_1  and  C_2
REMARK    2  A    between atoms: C_2  and  N_3
REMARK    3  A    between atoms: N_3  and  C_4
REMARK    4  A    between atoms: N_3  and  C_6
REMARK    5  A    between atoms: C_4  and  C_5
REMARK    6  A    between atoms: C_6  and  C_7
REMARK    7  A    between atoms: C_7  and  N_8
REMARK    8  A    between atoms: C_17  and  S_18
REMARK    9  A    between atoms: S_18  and  C_19
REMARK   10  A    between atoms: C_20  and  C_22
REMARK   11  A    between atoms: C_25  and  C_28
REMARK   12  A    between atoms: C_28  and  C_30
REMARK                            x       y       z     vdW  Elec       q    Type
REMARK                         _______ _______ _______ _____ _____    ______ ____
ROOT
ATOM      1  N   UNL     1      -3.148  -3.579   0.649  0.00  0.00    -0.248 N 
ATOM      2  C   UNL     1      -3.373  -4.269   1.829  0.00  0.00    +0.168 A 
ATOM      3  N   UNL     1      -3.300  -5.559   2.055  0.00  0.00    -0.223 NA
ATOM      4  C   UNL     1      -3.548  -6.099   3.269  0.00  0.00    +0.094 A 
ATOM      5  C   UNL     1      -3.892  -5.184   4.287  0.00  0.00    +0.042 A 
ATOM      6  S   UNL     1      -3.827  -3.626   3.434  0.00  0.00    -0.052 S 
ATOM      7  C   UNL     1      -4.173  -5.575   5.574  0.00  0.00    +0.017 A 
ATOM      8  C   UNL     1      -4.123  -6.916   5.909  0.00  0.00    +0.002 A 
ATOM      9  C   UNL     1      -3.789  -7.848   4.939  0.00  0.00    +0.017 A 
ATOM     10  C   UNL     1      -3.505  -7.467   3.645  0.00  0.00    +0.034 A 
ATOM     11  C   UNL     1      -2.810  -4.250  -0.470  0.00  0.00    +0.252 C 
ATOM     12  O   UNL     1      -2.778  -5.465  -0.463  0.00  0.00    -0.270 OA
ENDROOT
BRANCH  11  13
ATOM     13  C   UNL     1      -2.477  -3.508  -1.706  0.00  0.00    +0.037 A 
ATOM     14  C   UNL     1      -1.911  -2.235  -1.624  0.00  0.00    +0.014 A 
ATOM     15  C   UNL     1      -1.601  -1.544  -2.775  0.00  0.00    +0.012 A 
ATOM     16  C   UNL     1      -1.853  -2.117  -4.023  0.00  0.00    +0.022 A 
ATOM     17  C   UNL     1      -2.420  -3.391  -4.105  0.00  0.00    +0.012 A 
ATOM     18  C   UNL     1      -2.724  -4.084  -2.954  0.00  0.00    +0.014 A 
BRANCH  16  19
ATOM     19  C   UNL     1      -1.521  -1.375  -5.259  0.00  0.00    +0.193 C 
ATOM     20  O   UNL     1      -0.672  -0.505  -5.236  0.00  0.00    -0.287 OA
BRANCH  19  21
ATOM     21  C   UNL     1      -2.221  -1.690  -6.521  0.00  0.00    +0.022 A 
ATOM     22  C   UNL     1      -3.485  -2.283  -6.492  0.00  0.00    +0.012 A 
ATOM     23  C   UNL     1      -4.133  -2.575  -7.674  0.00  0.00    +0.001 A 
ATOM     24  C   UNL     1      -3.533  -2.282  -8.887  0.00  0.00    +0.000 A 
ATOM     25  C   UNL     1      -2.280  -1.695  -8.922  0.00  0.00    +0.001 A 
ATOM     26  C   UNL     1      -1.624  -1.392  -7.748  0.00  0.00    +0.012 A 
ENDBRANCH  19  21
ENDBRANCH  16  19
ENDBRANCH  11  13
BRANCH  10  27
ATOM     27  S   UNL     1      -3.087  -8.690   2.447  0.00  0.00    -0.126 S 
ATOM     28  C   UNL     1      -3.159 -10.250   3.369  0.00  0.00    +0.090 C 
ENDBRANCH  10  27
BRANCH   1  29
ATOM     29  C   UNL     1      -3.278  -2.120   0.617  0.00  0.00    +0.097 C 
BRANCH  29  30
ATOM     30  C   UNL     1      -2.055  -1.484   1.281  0.00  0.00    -0.059 C 
BRANCH  30  31
ATOM     31  N   UNL     1      -2.151  -0.022   1.184  0.00  0.00    +0.380 N 
ATOM     32  H   UNL     1      -2.295   0.243   0.221  0.00  0.00    -0.082 HD
BRANCH  31  34
ATOM     33  C   UNL     1      -3.458   1.956   1.797  0.00  0.00    -0.017 C 
ATOM     34  C   UNL     1      -3.281   0.450   1.995  0.00  0.00    -0.082 C 
ENDBRANCH  31  34
BRANCH  31  35
ATOM     35  C   UNL     1      -0.907   0.584   1.678  0.00  0.00    -0.082 C 
ATOM     36  C   UNL     1       0.243   0.229   0.733  0.00  0.00    -0.017 C 
ENDBRANCH  31  35
ENDBRANCH  30  31
ENDBRANCH  29  30
ENDBRANCH   1  29
TORSDOF 9
