REMARK  Name = ZINC64870811
REMARK  7 active torsions:
REMARK  status: ('A' for Active; 'I' for Inactive)
REMARK    1  A    between atoms: C_1  and  C_2
REMARK    2  A    between atoms: C_6  and  C_8
REMARK    3  A    between atoms: C_11  and  C_15
REMARK    4  A    between atoms: N_25  and  C_28
REMARK    5  A    between atoms: C_28  and  C_29
REMARK    6  A    between atoms: C_29  and  C_30
REMARK    7  A    between atoms: C_30  and  C_31
REMARK                            x       y       z     vdW  Elec       q    Type
REMARK                         _______ _______ _______ _____ _____    ______ ____
ROOT
ATOM      1  C   UNL     1      -2.554  -5.234   3.442  0.00  0.00    -0.000 A 
ATOM      2  C   UNL     1      -3.264  -5.221   2.251  0.00  0.00    +0.008 A 
ATOM      3  C   UNL     1      -4.346  -6.058   2.074  0.00  0.00    +0.016 A 
ATOM      4  C   UNL     1      -4.722  -6.920   3.102  0.00  0.00    +0.063 A 
ATOM      5  C   UNL     1      -4.002  -6.932   4.309  0.00  0.00    +0.056 A 
ATOM      6  C   UNL     1      -2.913  -6.088   4.466  0.00  0.00    +0.034 A 
ATOM      7  N   UNL     1      -4.399  -7.801   5.314  0.00  0.00    -0.307 N 
ATOM      8  H   UNL     1      -3.911  -7.820   6.153  0.00  0.00    +0.170 HD
ATOM      9  C   UNL     1      -5.454  -8.616   5.139  0.00  0.00    +0.330 A 
ATOM     10  O   UNL     1      -5.770  -9.361   6.045  0.00  0.00    -0.246 OA
ATOM     11  N   UNL     1      -6.173  -8.640   4.006  0.00  0.00    -0.261 N 
ATOM     12  C   UNL     1      -5.870  -7.835   2.965  0.00  0.00    +0.264 A 
ATOM     13  O   UNL     1      -6.526  -7.864   1.942  0.00  0.00    -0.267 OA
ENDROOT
BRANCH   1  16
ATOM     14  C   UNL     1       0.935  -4.257   3.983  0.00  0.00    +0.180 C 
ATOM     15  N   UNL     1      -0.292  -4.987   4.381  0.00  0.00    -0.265 NA
ATOM     16  C   UNL     1      -1.374  -4.313   3.617  0.00  0.00    +0.242 C 
ATOM     17  O   UNL     1      -0.754  -4.025   2.344  0.00  0.00    -0.274 OA
ATOM     18  N   UNL     1       0.631  -3.637   2.676  0.00  0.00    -0.177 NA
ATOM     19  H   UNL     1      -0.229  -5.963   4.134  0.00  0.00    +0.127 HD
ATOM     20  H   UNL     1       1.275  -3.953   1.967  0.00  0.00    +0.156 HD
BRANCH  14  26
ATOM     21  C   UNL     1       5.243  -5.573   1.802  0.00  0.00    +0.044 C 
ATOM     22  C   UNL     1       4.150  -5.847   2.802  0.00  0.00    -0.050 A 
ATOM     23  C   UNL     1       4.206  -6.978   3.595  0.00  0.00    +0.003 A 
ATOM     24  C   UNL     1       3.203  -7.229   4.513  0.00  0.00    +0.001 A 
ATOM     25  C   UNL     1       2.144  -6.348   4.638  0.00  0.00    +0.006 A 
ATOM     26  C   UNL     1       2.089  -5.217   3.846  0.00  0.00    -0.014 A 
ATOM     27  C   UNL     1       3.094  -4.964   2.931  0.00  0.00    +0.010 A 
ENDBRANCH  14  26
ENDBRANCH   1  16
BRANCH  11  28
ATOM     28  C   UNL     1      -7.308  -9.559   3.896  0.00  0.00    +0.130 C 
BRANCH  28  29
ATOM     29  C   UNL     1      -8.578  -8.863   4.390  0.00  0.00    +0.026 C 
BRANCH  29  30
ATOM     30  C   UNL     1      -9.764  -9.822   4.275  0.00  0.00    +0.037 C 
BRANCH  30  31
ATOM     31  C   UNL     1     -11.014  -9.136   4.762  0.00  0.00    -0.047 A 
ATOM     32  C   UNL     1     -11.371  -9.214   6.095  0.00  0.00    +0.003 A 
ATOM     33  C   UNL     1     -12.518  -8.584   6.542  0.00  0.00    +0.000 A 
ATOM     34  C   UNL     1     -13.308  -7.877   5.655  0.00  0.00    +0.000 A 
ATOM     35  C   UNL     1     -12.951  -7.798   4.322  0.00  0.00    +0.000 A 
ATOM     36  C   UNL     1     -11.802  -8.424   3.876  0.00  0.00    +0.003 A 
ENDBRANCH  30  31
ENDBRANCH  29  30
ENDBRANCH  28  29
ENDBRANCH  11  28
TORSDOF 6
