REMARK  Name = ZINC26218949
REMARK  10 active torsions:
REMARK  status: ('A' for Active; 'I' for Inactive)
REMARK    1  A    between atoms: C_1  and  C_2
REMARK    2  A    between atoms: C_2  and  C_3
REMARK    3  A    between atoms: C_3  and  N_4
REMARK    4  A    between atoms: C_5  and  C_7
REMARK    5  A    between atoms: C_7  and  S_8
REMARK    6  A    between atoms: S_8  and  C_9
REMARK    7  A    between atoms: C_12  and  S_14
REMARK    8  A    between atoms: S_14  and  C_15
REMARK    9  A    between atoms: C_15  and  C_16
REMARK   10  A    between atoms: C_22  and  C_27
REMARK                            x       y       z     vdW  Elec       q    Type
REMARK                         _______ _______ _______ _____ _____    ______ ____
ROOT
ATOM      1  C   UNL     1       1.826 -13.204  -2.993  0.00  0.00    +0.121 A 
ATOM      2  N   UNL     1       1.297 -14.042  -2.065  0.00  0.00    -0.310 N 
ATOM      3  H   UNL     1       0.846 -13.670  -1.291  0.00  0.00    +0.170 HD
ATOM      4  C   UNL     1       1.386 -15.378  -2.198  0.00  0.00    +0.260 A 
ATOM      5  O   UNL     1       0.905 -16.117  -1.356  0.00  0.00    -0.267 OA
ATOM      6  C   UNL     1       2.054 -15.918  -3.343  0.00  0.00    +0.080 A 
ATOM      7  C   UNL     1       2.278 -17.312  -3.709  0.00  0.00    +0.004 A 
ATOM      8  C   UNL     1       2.944 -17.585  -4.856  0.00  0.00    +0.056 A 
ATOM      9  S   UNL     1       3.311 -15.970  -5.516  0.00  0.00    -0.076 S 
ATOM     10  C   UNL     1       2.569 -14.975  -4.248  0.00  0.00    +0.116 A 
ATOM     11  N   UNL     1       2.436 -13.666  -4.051  0.00  0.00    -0.226 NA
ENDROOT
BRANCH   7  12
ATOM     12  C   UNL     1       1.786 -18.409  -2.841  0.00  0.00    -0.017 A 
ATOM     13  C   UNL     1       2.058 -18.395  -1.474  0.00  0.00    +0.008 A 
ATOM     14  C   UNL     1       1.598 -19.418  -0.671  0.00  0.00    +0.001 A 
ATOM     15  C   UNL     1       0.867 -20.456  -1.221  0.00  0.00    +0.000 A 
ATOM     16  C   UNL     1       0.594 -20.476  -2.577  0.00  0.00    +0.001 A 
ATOM     17  C   UNL     1       1.045 -19.455  -3.389  0.00  0.00    +0.008 A 
ENDBRANCH   7  12
BRANCH   1  18
ATOM     18  C   UNL     1       1.701 -11.714  -2.802  0.00  0.00    +0.150 C 
BRANCH  18  19
ATOM     19  S   UNL     1       2.489 -10.858  -4.194  0.00  0.00    -0.089 S 
BRANCH  19  23
ATOM     20  C   UNL     1       2.132  -6.470  -3.649  0.00  0.00    +0.160 A 
ATOM     21  N   UNL     1       1.598  -7.218  -2.702  0.00  0.00    -0.134 NA
ATOM     22  N   UNL     1       1.664  -8.589  -2.793  0.00  0.00    -0.134 NA
ATOM     23  C   UNL     1       2.262  -9.150  -3.827  0.00  0.00    +0.160 A 
ATOM     24  S   UNL     1       2.772  -7.714  -4.760  0.00  0.00    -0.033 S 
BRANCH  20  25
ATOM     25  S   UNL     1       2.191  -4.715  -3.786  0.00  0.00    -0.088 S 
BRANCH  25  26
ATOM     26  C   UNL     1       1.341  -4.130  -2.293  0.00  0.00    +0.172 C 
BRANCH  26  28
ATOM     27  N   UNL     1       0.738  -1.962  -1.265  0.00  0.00    -0.315 N 
ATOM     28  C   UNL     1       1.321  -2.623  -2.285  0.00  0.00    +0.223 C 
ATOM     29  O   UNL     1       1.829  -2.004  -3.196  0.00  0.00    -0.275 OA
ATOM     30  H   UNL     1       0.332  -2.457  -0.536  0.00  0.00    +0.149 HD
BRANCH  27  31
ATOM     31  C   UNL     1       0.718  -0.497  -1.257  0.00  0.00    +0.104 C 
BRANCH  31  33
ATOM     32  C   UNL     1      -0.019   1.526   0.010  0.00  0.00    +0.005 C 
ATOM     33  C   UNL     1       0.002  -0.004   0.002  0.00  0.00    +0.015 C 
ENDBRANCH  31  33
ENDBRANCH  27  31
ENDBRANCH  26  28
ENDBRANCH  25  26
ENDBRANCH  20  25
ENDBRANCH  19  23
ENDBRANCH  18  19
ENDBRANCH   1  18
TORSDOF 9
