REMARK  Name = ZINC37322762
REMARK  7 active torsions:
REMARK  status: ('A' for Active; 'I' for Inactive)
REMARK    1  A    between atoms: C_1  and  C_2
REMARK    2  A    between atoms: C_7  and  C_22
REMARK    3  A    between atoms: N_9  and  C_10
REMARK    4  A    between atoms: C_10  and  C_11
REMARK    5  A    between atoms: C_11  and  C_12
REMARK    6  A    between atoms: C_12  and  C_13
REMARK    7  A    between atoms: C_13  and  C_15
REMARK                            x       y       z     vdW  Elec       q    Type
REMARK                         _______ _______ _______ _____ _____    ______ ____
ROOT
ATOM      1  C   UNL     1       2.584   0.009  -0.298  0.00  0.00    -0.011 C 
ENDROOT
BRANCH   1   2
ATOM      2  C   UNL     1       1.947   0.300   1.062  0.00  0.00    -0.078 C 
BRANCH   2   9
ATOM      3  C   UNL     1      -0.362   1.538   0.052  0.00  0.00    -0.013 C 
ATOM      4  C   UNL     1      -0.202   0.016   0.039  0.00  0.00    -0.071 C 
ATOM      5  C   UNL     1      -1.577  -0.642   0.179  0.00  0.00    -0.016 C 
ATOM      6  C   UNL     1      -1.411  -2.164   0.165  0.00  0.00    -0.003 C 
ATOM      7  C   UNL     1      -0.455  -2.574   1.289  0.00  0.00    -0.016 C 
ATOM      8  C   UNL     1       0.878  -1.844   1.108  0.00  0.00    -0.071 C 
ATOM      9  N   UNL     1       0.656  -0.394   1.157  0.00  0.00    +0.383 N 
ATOM     10  C   UNL     1       1.837  -2.250   2.229  0.00  0.00    -0.013 C 
ATOM     11  H   UNL     1       0.209  -0.152   2.029  0.00  0.00    -0.081 HD
ENDBRANCH   2   9
ENDBRANCH   1   2
BRANCH   1  12
ATOM     12  C   UNL     1       3.984   0.624  -0.347  0.00  0.00    +0.078 C 
BRANCH  12  13
ATOM     13  C   UNL     1       4.612   0.336  -1.687  0.00  0.00    +0.163 C 
ATOM     14  O   UNL     1       4.000  -0.298  -2.520  0.00  0.00    -0.292 OA
BRANCH  13  15
ATOM     15  C   UNL     1       5.967   0.825  -1.984  0.00  0.00    +0.017 A 
ATOM     16  C   UNL     1       6.678   1.552  -1.024  0.00  0.00    +0.012 A 
ATOM     17  C   UNL     1       7.948   2.007  -1.310  0.00  0.00    +0.016 A 
ATOM     18  C   UNL     1       8.520   1.745  -2.544  0.00  0.00    +0.018 A 
ATOM     19  C   UNL     1       7.821   1.026  -3.500  0.00  0.00    +0.016 A 
ATOM     20  C   UNL     1       6.553   0.560  -3.227  0.00  0.00    +0.012 A 
ATOM     21 BR   UNL     1      10.261   2.374  -2.926  0.00  0.00    -0.050 Br
ENDBRANCH  13  15
ENDBRANCH  12  13
ENDBRANCH   1  12
TORSDOF 5
