REMARK  Name = ZINC06764251
REMARK  9 active torsions:
REMARK  status: ('A' for Active; 'I' for Inactive)
REMARK    1  A    between atoms: C_1  and  C_2
REMARK    2  A    between atoms: C_2  and  O_3
REMARK    3  A    between atoms: O_3  and  C_4
REMARK    4  A    between atoms: C_4  and  C_6
REMARK    5  A    between atoms: C_6  and  C_7
REMARK    6  A    between atoms: C_7  and  C_8
REMARK    7  A    between atoms: C_9  and  C_28
REMARK    8  A    between atoms: C_22  and  C_23
REMARK    9  A    between atoms: C_22  and  N_52
REMARK                            x       y       z     vdW  Elec       q    Type
REMARK                         _______ _______ _______ _____ _____    ______ ____
ROOT
ATOM      1  C   UNL     1       3.855  -3.517  -6.114  0.00  0.00    +0.041 A 
ATOM      2  C   UNL     1       4.196  -2.329  -6.679  0.00  0.00    -0.030 A 
ATOM      3  C   UNL     1       4.230  -1.148  -5.812  0.00  0.00    +0.021 A 
ATOM      4  C   UNL     1       4.572   0.108  -6.325  0.00  0.00    +0.015 A 
ATOM      5  C   UNL     1       4.598   1.193  -5.499  0.00  0.00    +0.046 A 
ATOM      6  C   UNL     1       4.283   1.061  -4.145  0.00  0.00    +0.123 A 
ATOM      7  C   UNL     1       3.940  -0.173  -3.624  0.00  0.00    +0.021 A 
ATOM      8  C   UNL     1       3.912  -1.291  -4.450  0.00  0.00    +0.144 A 
ATOM      9  O   UNL     1       3.581  -2.497  -3.946  0.00  0.00    -0.422 OA
ATOM     10  C   UNL     1       3.552  -3.573  -4.739  0.00  0.00    +0.341 A 
ATOM     11  O   UNL     1       3.250  -4.648  -4.252  0.00  0.00    -0.245 OA
ATOM     12  C   UNL     1       3.591  -0.328  -2.166  0.00  0.00    -0.030 C 
ATOM     13  C   UNL     1       3.653   2.082  -2.090  0.00  0.00    +0.158 C 
ATOM     14  O   UNL     1       4.321   2.164  -3.351  0.00  0.00    -0.509 OA
ATOM     15  C   UNL     1       4.528  -2.230  -8.145  0.00  0.00    +0.045 C 
ATOM     16  N   UNL     1       4.096   0.842  -1.421  0.00  0.00    +0.410 N 
ATOM     17  H   UNL     1       5.122   0.815  -1.409  0.00  0.00    -0.076 HD
ENDROOT
BRANCH   1  18
ATOM     18  C   UNL     1       3.802  -4.768  -6.953  0.00  0.00    +0.054 C 
BRANCH  18  19
ATOM     19  C   UNL     1       5.172  -5.449  -6.941  0.00  0.00    +0.125 C 
BRANCH  19  20
ATOM     20  C   UNL     1       5.119  -6.699  -7.780  0.00  0.00    +0.307 C 
ATOM     21  O   UNL     1       4.091  -7.014  -8.331  0.00  0.00    -0.251 OA
BRANCH  20  22
ATOM     22  O   UNL     1       6.214  -7.464  -7.915  0.00  0.00    -0.465 OA
BRANCH  22  24
ATOM     23  C   UNL     1       7.430  -9.391  -8.774  0.00  0.00    +0.048 C 
ATOM     24  C   UNL     1       6.090  -8.654  -8.738  0.00  0.00    +0.229 C 
ENDBRANCH  22  24
ENDBRANCH  20  22
ENDBRANCH  19  20
ENDBRANCH  18  19
ENDBRANCH   1  18
BRANCH  16  25
ATOM     25  C   UNL     1       3.596   0.810  -0.028  0.00  0.00    +0.002 C 
BRANCH  25  26
ATOM     26  C   UNL     1       2.091   0.734  -0.014  0.00  0.00    +0.089 A 
ATOM     27  C   UNL     1       1.361  -0.395  -0.013  0.00  0.00    +0.042 A 
ATOM     28  C   UNL     1       0.002  -0.004   0.002  0.00  0.00    +0.041 A 
ATOM     29  C   UNL     1      -0.016   1.341   0.009  0.00  0.00    +0.195 A 
ATOM     30  O   UNL     1       1.252   1.783  -0.000  0.00  0.00    -0.470 OA
ENDBRANCH  25  26
ENDBRANCH  16  25
TORSDOF 7
