REMARK  Name = ZINC14361406
REMARK  9 active torsions:
REMARK  status: ('A' for Active; 'I' for Inactive)
REMARK    1  A    between atoms: C_1  and  C_2
REMARK    2  A    between atoms: C_5  and  N_9
REMARK    3  A    between atoms: C_6  and  C_8
REMARK    4  A    between atoms: C_13  and  N_17
REMARK    5  A    between atoms: N_17  and  C_18
REMARK    6  A    between atoms: C_22  and  S_24
REMARK    7  A    between atoms: S_24  and  N_27
REMARK    8  A    between atoms: N_27  and  C_28
REMARK    9  A    between atoms: C_32  and  C_34
REMARK                            x       y       z     vdW  Elec       q    Type
REMARK                         _______ _______ _______ _____ _____    ______ ____
ROOT
ATOM      1  C   UNL     1       0.622  -9.814  -1.800  0.00  0.00    +0.030 A 
ATOM      2  C   UNL     1       0.888  -9.597  -0.453  0.00  0.00    +0.023 A 
ATOM      3  C   UNL     1       2.184  -9.366  -0.036  0.00  0.00    +0.004 A 
ATOM      4  C   UNL     1       3.216  -9.350  -0.957  0.00  0.00    +0.029 A 
ATOM      5  C   UNL     1       2.955  -9.565  -2.297  0.00  0.00    +0.110 A 
ATOM      6  C   UNL     1       1.661  -9.803  -2.720  0.00  0.00    +0.051 A 
ENDROOT
BRANCH   5   7
ATOM      7  S   UNL     1       4.273  -9.543  -3.466  0.00  0.00    +0.072 S 
ATOM      8  O   UNL     1       3.716  -9.106  -4.698  0.00  0.00    -0.150 OA
ATOM      9  O   UNL     1       5.359  -8.872  -2.841  0.00  0.00    -0.150 OA
BRANCH   7  10
ATOM     10  N   UNL     1       4.753 -11.111  -3.693  0.00  0.00    -0.216 N 
ATOM     11  H   UNL     1       4.669 -11.523  -4.567  0.00  0.00    +0.174 HD
BRANCH  10  12
ATOM     12  C   UNL     1       5.279 -11.842  -2.625  0.00  0.00    +0.049 A 
ATOM     13  C   UNL     1       6.572 -11.593  -2.182  0.00  0.00    +0.024 A 
ATOM     14  C   UNL     1       7.089 -12.317  -1.125  0.00  0.00    +0.002 A 
ATOM     15  C   UNL     1       6.322 -13.289  -0.510  0.00  0.00    +0.012 A 
ATOM     16  C   UNL     1       5.035 -13.539  -0.949  0.00  0.00    +0.057 A 
ATOM     17  C   UNL     1       4.509 -12.815  -2.001  0.00  0.00    +0.036 A 
BRANCH  16  18
ATOM     18  C   UNL     1       4.203 -14.600  -0.275  0.00  0.00    +0.417 C 
ATOM     19  F   UNL     1       4.942 -15.188   0.756  0.00  0.00    -0.166 F 
ATOM     20  F   UNL     1       3.045 -14.019   0.253  0.00  0.00    -0.166 F 
ATOM     21  F   UNL     1       3.848 -15.578  -1.211  0.00  0.00    -0.166 F 
ENDBRANCH  16  18
ENDBRANCH  10  12
ENDBRANCH   7  10
ENDBRANCH   5   7
BRANCH   1  22
ATOM     22  N   UNL     1      -0.688 -10.049  -2.225  0.00  0.00    -0.332 N 
ATOM     23  H   UNL     1      -0.872 -10.205  -3.164  0.00  0.00    +0.147 HD
BRANCH  22  28
ATOM     24  N   UNL     1      -3.670  -8.716  -1.468  0.00  0.00    -0.209 N 
ATOM     25  C   UNL     1      -4.101  -9.922  -1.860  0.00  0.00    +0.228 C 
ATOM     26  O   UNL     1      -5.226 -10.179  -2.229  0.00  0.00    -0.275 OA
ATOM     27  C   UNL     1      -2.960 -10.912  -1.770  0.00  0.00    +0.128 C 
ATOM     28  C   UNL     1      -1.783 -10.060  -1.252  0.00  0.00    +0.166 C 
ATOM     29  C   UNL     1      -2.381  -8.678  -1.109  0.00  0.00    +0.247 C 
ATOM     30  O   UNL     1      -1.787  -7.692  -0.728  0.00  0.00    -0.273 OA
BRANCH  24  35
ATOM     31  C   UNL     1      -7.029  -4.143  -1.357  0.00  0.00    +0.044 C 
ATOM     32  C   UNL     1      -6.137  -5.357  -1.386  0.00  0.00    -0.050 A 
ATOM     33  C   UNL     1      -5.422  -5.660  -2.530  0.00  0.00    +0.005 A 
ATOM     34  C   UNL     1      -4.604  -6.772  -2.560  0.00  0.00    +0.024 A 
ATOM     35  C   UNL     1      -4.500  -7.586  -1.440  0.00  0.00    +0.047 A 
ATOM     36  C   UNL     1      -5.219  -7.279  -0.293  0.00  0.00    -0.028 A 
ATOM     37  C   UNL     1      -6.032  -6.163  -0.268  0.00  0.00    +0.008 A 
ATOM     38  C   UNL     1      -5.109  -8.161   0.924  0.00  0.00    +0.046 C 
ENDBRANCH  24  35
ENDBRANCH  22  28
ENDBRANCH   1  22
TORSDOF 7
