REMARK  Name = ZINC49487543
REMARK  7 active torsions:
REMARK  status: ('A' for Active; 'I' for Inactive)
REMARK    1  A    between atoms: C_5  and  N_7
REMARK    2  A    between atoms: N_10  and  C_13
REMARK    3  A    between atoms: C_13  and  C_15
REMARK    4  A    between atoms: C_13  and  C_28
REMARK    5  A    between atoms: C_15  and  N_16
REMARK    6  A    between atoms: N_16  and  S_17
REMARK    7  A    between atoms: S_17  and  C_20
REMARK                            x       y       z     vdW  Elec       q    Type
REMARK                         _______ _______ _______ _____ _____    ______ ____
ROOT
ATOM      1  C   UNL     1       3.250  -5.761  -0.052  0.00  0.00    +0.102 C 
ENDROOT
BRANCH   1   2
ATOM      2  C   UNL     1       4.633  -5.196  -0.250  0.00  0.00    -0.025 A 
ATOM      3  C   UNL     1       5.435  -4.937   0.846  0.00  0.00    +0.009 A 
ATOM      4  C   UNL     1       6.704  -4.419   0.670  0.00  0.00    +0.050 A 
ATOM      5  C   UNL     1       7.176  -4.158  -0.606  0.00  0.00    +0.166 A 
ATOM      6  C   UNL     1       6.367  -4.418  -1.710  0.00  0.00    +0.167 A 
ATOM      7  C   UNL     1       5.098  -4.943  -1.526  0.00  0.00    +0.054 A 
ATOM      8  O   UNL     1       7.052  -4.080  -2.842  0.00  0.00    -0.453 OA
ATOM      9  C   UNL     1       8.127  -3.230  -2.401  0.00  0.00    +0.466 C 
ATOM     10  O   UNL     1       8.366  -3.656  -1.046  0.00  0.00    -0.453 OA
ENDBRANCH   1   2
BRANCH   1  14
ATOM     11  N   UNL     1       1.168  -2.311  -1.226  0.00  0.00    -0.325 N 
ATOM     12  C   UNL     1       1.174  -2.632   0.209  0.00  0.00    +0.120 C 
ATOM     13  C   UNL     1       2.342  -3.583   0.491  0.00  0.00    +0.104 C 
ATOM     14  N   UNL     1       2.250  -4.744  -0.405  0.00  0.00    -0.291 NA
ATOM     15  C   UNL     1       2.381  -4.343  -1.812  0.00  0.00    +0.104 C 
ATOM     16  C   UNL     1       1.208  -3.424  -2.188  0.00  0.00    +0.120 C 
BRANCH  11  21
ATOM     17  C   UNL     1      -0.149   0.943  -2.318  0.00  0.00    +0.002 A 
ATOM     18  C   UNL     1       1.024   1.642  -2.535  0.00  0.00    +0.003 A 
ATOM     19  C   UNL     1       2.246   1.032  -2.318  0.00  0.00    +0.040 A 
ATOM     20  C   UNL     1       2.299  -0.279  -1.884  0.00  0.00    +0.144 A 
ATOM     21  C   UNL     1       1.120  -0.984  -1.665  0.00  0.00    +0.065 A 
ATOM     22  C   UNL     1      -0.105  -0.368  -1.884  0.00  0.00    +0.026 A 
ATOM     23  F   UNL     1       3.493  -0.875  -1.673  0.00  0.00    -0.204 F 
ENDBRANCH  11  21
ENDBRANCH   1  14
BRANCH   1  24
ATOM     24  C   UNL     1       3.067  -6.988  -0.948  0.00  0.00    +0.129 C 
BRANCH  24  25
ATOM     25  N   UNL     1       1.686  -7.466  -0.846  0.00  0.00    -0.188 NA
ATOM     26  H   UNL     1       1.118  -7.157  -0.123  0.00  0.00    +0.148 HD
BRANCH  25  27
ATOM     27  S   UNL     1       1.095  -8.534  -1.965  0.00  0.00    +0.059 S 
ATOM     28  O   UNL     1      -0.243  -8.823  -1.584  0.00  0.00    -0.153 OA
ATOM     29  O   UNL     1       1.426  -8.008  -3.243  0.00  0.00    -0.153 OA
BRANCH  27  30
ATOM     30  C   UNL     1       2.004 -10.033  -1.787  0.00  0.00    +0.108 A 
ATOM     31  C   UNL     1       3.166 -10.226  -2.510  0.00  0.00    +0.031 A 
ATOM     32  C   UNL     1       3.881 -11.400  -2.372  0.00  0.00    +0.043 A 
ATOM     33  C   UNL     1       3.434 -12.385  -1.508  0.00  0.00    +0.159 A 
ATOM     34  C   UNL     1       2.269 -12.191  -0.782  0.00  0.00    +0.160 A 
ATOM     35  C   UNL     1       1.558 -11.012  -0.919  0.00  0.00    +0.069 A 
ATOM     36  F   UNL     1       1.831 -13.151   0.062  0.00  0.00    -0.202 F 
ATOM     37  F   UNL     1       4.133 -13.534  -1.373  0.00  0.00    -0.202 F 
ENDBRANCH  27  30
ENDBRANCH  25  27
ENDBRANCH  24  25
ENDBRANCH   1  24
TORSDOF 7
