REMARK  Name = ZINC10048008
REMARK  11 active torsions:
REMARK  status: ('A' for Active; 'I' for Inactive)
REMARK    1  A    between atoms: C_1  and  C_2
REMARK    2  A    between atoms: C_2  and  C_4
REMARK    3  A    between atoms: C_4  and  N_5
REMARK    4  A    between atoms: C_12  and  C_14
REMARK    5  A    between atoms: C_14  and  C_15
REMARK    6  A    between atoms: C_14  and  C_16
REMARK    7  A    between atoms: C_14  and  C_17
REMARK    8  A    between atoms: N_20  and  C_25
REMARK    9  A    between atoms: N_23  and  C_24
REMARK   10  A    between atoms: C_25  and  C_26
REMARK   11  A    between atoms: C_26  and  N_67
REMARK                            x       y       z     vdW  Elec       q    Type
REMARK                         _______ _______ _______ _____ _____    ______ ____
ROOT
ATOM      1  N   UNL     1      -2.070   3.093  -0.005  0.00  0.00    -0.189 N 
ATOM      2  C   UNL     1      -1.671   2.519   1.186  0.00  0.00    +0.221 A 
ATOM      3  N   UNL     1      -2.098   2.749   2.405  0.00  0.00    -0.195 NA
ATOM      4  C   UNL     1      -1.448   1.973   3.257  0.00  0.00    +0.170 A 
ATOM      5  C   UNL     1      -0.539   1.193   2.522  0.00  0.00    +0.153 A 
ATOM      6  N   UNL     1      -0.695   1.556   1.213  0.00  0.00    -0.299 N 
ATOM      7  C   UNL     1      -0.013   1.086   0.008  0.00  0.00    +0.178 C 
ATOM      8  C   UNL     1      -0.738   1.583  -1.212  0.00  0.00    +0.062 C 
ATOM      9  N   UNL     1      -1.641   2.474  -1.191  0.00  0.00    -0.184 NA
ATOM     10  C   UNL     1       0.297   0.266   3.176  0.00  0.00    +0.282 A 
ATOM     11  O   UNL     1       1.094  -0.422   2.563  0.00  0.00    -0.265 OA
ATOM     12  N   UNL     1       0.168   0.180   4.523  0.00  0.00    -0.261 N 
ATOM     13  C   UNL     1      -0.704   0.929   5.215  0.00  0.00    +0.333 A 
ATOM     14  O   UNL     1      -0.756   0.789   6.422  0.00  0.00    -0.246 OA
ATOM     15  N   UNL     1      -1.527   1.833   4.636  0.00  0.00    -0.280 N 
ATOM     16  C   UNL     1      -2.465   2.630   5.431  0.00  0.00    +0.155 C 
ENDROOT
BRANCH   8  17
ATOM     17  C   UNL     1      -0.368   0.985  -2.545  0.00  0.00    +0.004 C 
ATOM     18  C   UNL     1      -1.218   1.625  -3.644  0.00  0.00    +0.017 C 
ATOM     19  C   UNL     1       1.113   1.245  -2.827  0.00  0.00    +0.017 C 
ATOM     20  C   UNL     1      -0.624  -0.524  -2.515  0.00  0.00    +0.017 C 
ENDBRANCH   8  17
BRANCH   1  21
ATOM     21  C   UNL     1      -2.905   4.297  -0.031  0.00  0.00    +0.165 C 
BRANCH  21  23
ATOM     22  C   UNL     1      -1.504   6.083   1.257  0.00  0.00    +0.040 C 
ATOM     23  C   UNL     1      -2.024   5.519  -0.040  0.00  0.00    -0.061 C 
ATOM     24  C   UNL     1      -1.710   6.092  -1.176  0.00  0.00    +0.009 C 
ENDBRANCH  21  23
ENDBRANCH   1  21
BRANCH  12  25
ATOM     25  C   UNL     1       1.013  -0.769   5.252  0.00  0.00    +0.111 C 
BRANCH  25  26
ATOM     26  C   UNL     1       0.302  -2.120   5.343  0.00  0.00    -0.057 C 
BRANCH  26  32
ATOM     27  C   UNL     1       2.377  -3.367   5.323  0.00  0.00    -0.079 C 
ATOM     28  C   UNL     1       3.299  -4.243   6.174  0.00  0.00    -0.019 C 
ATOM     29  C   UNL     1       2.573  -5.542   6.533  0.00  0.00    -0.004 C 
ATOM     30  C   UNL     1       1.275  -5.205   7.272  0.00  0.00    -0.019 C 
ATOM     31  C   UNL     1       0.411  -4.301   6.389  0.00  0.00    -0.079 C 
ATOM     32  N   UNL     1       1.157  -3.058   6.100  0.00  0.00    +0.381 N 
ATOM     33  H   UNL     1       1.430  -2.619   6.987  0.00  0.00    -0.082 HD
ENDBRANCH  26  32
ENDBRANCH  25  26
ENDBRANCH  12  25
TORSDOF 6
