REMARK  Name = ZINC39676607
REMARK  12 active torsions:
REMARK  status: ('A' for Active; 'I' for Inactive)
REMARK    1  A    between atoms: C_1  and  O_2
REMARK    2  A    between atoms: O_2  and  C_3
REMARK    3  A    between atoms: C_3  and  C_4
REMARK    4  A    between atoms: C_4  and  C_5
REMARK    5  A    between atoms: C_9  and  C_18
REMARK    6  A    between atoms: N_20  and  C_21
REMARK    7  A    between atoms: C_21  and  C_22
REMARK    8  A    between atoms: C_21  and  C_30
REMARK    9  A    between atoms: C_25  and  O_28
REMARK   10  A    between atoms: O_28  and  C_29
REMARK   11  A    between atoms: C_33  and  O_36
REMARK   12  A    between atoms: O_36  and  C_37
REMARK                            x       y       z     vdW  Elec       q    Type
REMARK                         _______ _______ _______ _____ _____    ______ ____
ROOT
ATOM      1  C   UNL     1      -1.512  -6.026   2.329  0.00  0.00    +0.219 C 
ATOM      2  O   UNL     1      -1.188  -4.917   2.697  0.00  0.00    -0.275 OA
ATOM      3  N   UNL     1      -1.381  -7.078   3.161  0.00  0.00    -0.304 N 
ATOM      4  H   UNL     1      -1.641  -7.965   2.866  0.00  0.00    +0.150 HD
ENDROOT
BRANCH   1   9
ATOM      5  C   UNL     1      -2.228  -2.764  -0.104  0.00  0.00    +0.218 C 
ATOM      6  O   UNL     1      -3.158  -1.987  -0.126  0.00  0.00    -0.276 OA
ATOM      7  N   UNL     1      -2.459  -4.091  -0.069  0.00  0.00    -0.300 N 
ATOM      8  C   UNL     1      -1.462  -5.187  -0.032  0.00  0.00    +0.121 C 
ATOM      9  C   UNL     1      -2.061  -6.228   0.940  0.00  0.00    +0.100 C 
ATOM     10  C   UNL     1      -3.576  -5.960   0.916  0.00  0.00    -0.004 C 
ATOM     11  C   UNL     1      -3.770  -4.785  -0.053  0.00  0.00    +0.115 C 
ATOM     12  C   UNL     1      -4.066  -5.575   2.309  0.00  0.00    -0.010 C 
ATOM     13  C   UNL     1      -5.583  -5.369   2.272  0.00  0.00    -0.082 C 
ATOM     14  N   UNL     1      -6.235  -6.607   1.827  0.00  0.00    +0.379 N 
ATOM     15  C   UNL     1      -5.829  -6.921   0.452  0.00  0.00    -0.082 C 
ATOM     16  C   UNL     1      -4.322  -7.191   0.411  0.00  0.00    -0.010 C 
ATOM     17  H   UNL     1      -5.967  -7.365   2.437  0.00  0.00    -0.086 HD
ATOM     18  H   UNL     1      -7.237  -6.489   1.862  0.00  0.00    -0.086 HD
BRANCH   5  19
ATOM     19  C   UNL     1      -0.813  -2.247  -0.116  0.00  0.00    +0.124 C 
BRANCH  19  20
ATOM     20  C   UNL     1      -0.830  -0.717  -0.157  0.00  0.00    +0.168 C 
BRANCH  20  22
ATOM     21  C   UNL     1       0.610   1.199  -0.205  0.00  0.00    +0.194 C 
ATOM     22  O   UNL     1       0.512  -0.226  -0.168  0.00  0.00    -0.382 OA
ENDBRANCH  20  22
ENDBRANCH  19  20
ENDBRANCH   5  19
ENDBRANCH   1   9
BRANCH   3  23
ATOM     23  C   UNL     1      -0.848  -6.882   4.511  0.00  0.00    +0.134 C 
BRANCH  23  24
ATOM     24  C   UNL     1      -1.347  -7.981   5.413  0.00  0.00    -0.023 A 
ATOM     25  C   UNL     1      -1.419  -9.280   4.944  0.00  0.00    +0.009 A 
ATOM     26  C   UNL     1      -1.877 -10.289   5.769  0.00  0.00    +0.046 A 
ATOM     27  C   UNL     1      -2.265  -9.998   7.069  0.00  0.00    +0.120 A 
ATOM     28  C   UNL     1      -2.192  -8.694   7.537  0.00  0.00    +0.046 A 
ATOM     29  C   UNL     1      -1.728  -7.689   6.710  0.00  0.00    +0.009 A 
BRANCH  27  30
ATOM     30  O   UNL     1      -2.717 -10.989   7.883  0.00  0.00    -0.495 OA
ATOM     31  C   UNL     1      -3.099 -10.616   9.208  0.00  0.00    +0.277 C 
ENDBRANCH  27  30
ENDBRANCH  23  24
BRANCH  23  32
ATOM     32  C   UNL     1       0.658  -6.916   4.465  0.00  0.00    -0.023 A 
ATOM     33  C   UNL     1       1.304  -7.826   3.649  0.00  0.00    +0.009 A 
ATOM     34  C   UNL     1       2.684  -7.859   3.606  0.00  0.00    +0.046 A 
ATOM     35  C   UNL     1       3.423  -6.978   4.382  0.00  0.00    +0.120 A 
ATOM     36  C   UNL     1       2.773  -6.065   5.199  0.00  0.00    +0.046 A 
ATOM     37  C   UNL     1       1.392  -6.033   5.235  0.00  0.00    +0.009 A 
BRANCH  35  38
ATOM     38  O   UNL     1       4.781  -7.009   4.341  0.00  0.00    -0.495 OA
ATOM     39  C   UNL     1       5.476  -6.072   5.167  0.00  0.00    +0.277 C 
ENDBRANCH  35  38
ENDBRANCH  23  32
ENDBRANCH   3  23
TORSDOF 9
