REMARK  Name = ZINC08718646
REMARK  2 active torsions:
REMARK  status: ('A' for Active; 'I' for Inactive)
REMARK    1  A    between atoms: N_9  and  N_12
REMARK    2  A    between atoms: C_13  and  C_15
REMARK                            x       y       z     vdW  Elec       q    Type
REMARK                         _______ _______ _______ _____ _____    ______ ____
ROOT
ATOM      1  N   UNL     1       2.715   3.961  -0.003  0.00  0.00    -0.220 N 
ATOM      2  C   UNL     1       1.448   3.502   0.006  0.00  0.00    +0.267 C 
ATOM      3  O   UNL     1       0.517   4.287   0.019  0.00  0.00    -0.268 OA
ATOM      4  H   UNL     1       3.457   3.335  -0.013  0.00  0.00    +0.174 HD
ENDROOT
BRANCH   1  13
ATOM      5  C   UNL     1       3.951   9.813   0.681  0.00  0.00    +0.001 A 
ATOM      6  C   UNL     1       3.587   9.882  -0.651  0.00  0.00    +0.001 A 
ATOM      7  C   UNL     1       3.191   8.742  -1.331  0.00  0.00    +0.014 A 
ATOM      8  C   UNL     1       3.161   7.524  -0.671  0.00  0.00    +0.051 A 
ATOM      9  C   UNL     1       3.532   7.453   0.687  0.00  0.00    +0.051 A 
ATOM     10  C   UNL     1       3.925   8.602   1.354  0.00  0.00    +0.014 A 
ATOM     11  C   UNL     1       3.388   6.033   1.072  0.00  0.00    +0.271 C 
ATOM     12  O   UNL     1       3.616   5.570   2.171  0.00  0.00    -0.268 OA
ATOM     13  N   UNL     1       2.961   5.340   0.001  0.00  0.00    -0.147 N 
ATOM     14  C   UNL     1       2.808   6.144  -1.066  0.00  0.00    +0.271 C 
ATOM     15  O   UNL     1       2.440   5.794  -2.170  0.00  0.00    -0.268 OA
ENDBRANCH   1  13
BRANCH   2  16
ATOM     16  C   UNL     1       1.190   2.059   0.002  0.00  0.00    +0.076 A 
ATOM     17  C   UNL     1      -0.017   1.391   0.010  0.00  0.00    +0.024 A 
ATOM     18  C   UNL     1       0.002  -0.004   0.002  0.00  0.00    -0.036 A 
ATOM     19  C   UNL     1       1.225  -0.599  -0.011  0.00  0.00    -0.006 A 
ATOM     20  S   UNL     1       2.354   0.709  -0.016  0.00  0.00    -0.088 S 
ATOM     21  C   UNL     1       1.119  -2.099  -0.013  0.00  0.00    +0.043 C 
ATOM     22  C   UNL     1      -0.329  -2.389   0.438  0.00  0.00    +0.010 C 
ATOM     23  C   UNL     1      -1.062  -1.105   0.002  0.00  0.00    +0.036 C 
ENDBRANCH   2  16
TORSDOF 2
