REMARK  Name = ZINC17145938
REMARK  12 active torsions:
REMARK  status: ('A' for Active; 'I' for Inactive)
REMARK    1  A    between atoms: C_1  and  C_2
REMARK    2  A    between atoms: N_4  and  C_23
REMARK    3  A    between atoms: C_8  and  C_9
REMARK    4  A    between atoms: C_11  and  O_21
REMARK    5  A    between atoms: C_12  and  O_16
REMARK    6  A    between atoms: O_16  and  C_17
REMARK    7  A    between atoms: C_17  and  C_18
REMARK    8  A    between atoms: C_18  and  C_19
REMARK    9  A    between atoms: C_18  and  C_20
REMARK   10  A    between atoms: O_21  and  C_22
REMARK   11  A    between atoms: C_26  and  S_29
REMARK   12  A    between atoms: S_29  and  N_32
REMARK                            x       y       z     vdW  Elec       q    Type
REMARK                         _______ _______ _______ _____ _____    ______ ____
ROOT
ATOM      1  C   UNL     1       1.100   8.247  -2.572  0.00  0.00    +0.068 C 
ATOM      2  C   UNL     1       0.385   8.457  -1.262  0.00  0.00    +0.069 C 
ATOM      3  N   UNL     1       0.007   9.596  -0.769  0.00  0.00    -0.177 NA
ATOM      4  N   UNL     1      -0.623   9.434   0.464  0.00  0.00    -0.156 N 
ATOM      5  C   UNL     1      -0.665   8.127   0.795  0.00  0.00    +0.272 C 
ATOM      6  O   UNL     1      -1.144   7.641   1.804  0.00  0.00    -0.268 OA
ATOM      7  C   UNL     1      -0.013   7.407  -0.312  0.00  0.00    +0.062 C 
ATOM      8  C   UNL     1       0.186   6.043  -0.430  0.00  0.00    +0.023 C 
ENDROOT
BRANCH   8   9
ATOM      9  C   UNL     1      -0.431   5.128   0.529  0.00  0.00    -0.020 A 
ATOM     10  C   UNL     1       0.267   3.992   0.969  0.00  0.00    +0.057 A 
ATOM     11  C   UNL     1      -0.324   3.131   1.870  0.00  0.00    +0.163 A 
ATOM     12  C   UNL     1      -1.607   3.395   2.351  0.00  0.00    +0.176 A 
ATOM     13  C   UNL     1      -2.298   4.522   1.921  0.00  0.00    +0.064 A 
ATOM     14  C   UNL     1      -1.721   5.386   1.018  0.00  0.00    +0.027 A 
ATOM     15 BR   UNL     1      -4.037   4.870   2.579  0.00  0.00    -0.046 Br
BRANCH  11  16
ATOM     16  O   UNL     1       0.348   2.028   2.295  0.00  0.00    -0.491 OA
ATOM     17  C   UNL     1       1.657   1.819   1.761  0.00  0.00    +0.277 C 
ENDBRANCH  11  16
BRANCH  12  18
ATOM     18  O   UNL     1      -2.182   2.548   3.242  0.00  0.00    -0.487 OA
BRANCH  18  19
ATOM     19  C   UNL     1      -1.959   2.814   4.628  0.00  0.00    +0.232 C 
BRANCH  19  20
ATOM     20  C   UNL     1      -2.681   1.762   5.473  0.00  0.00    +0.020 C 
ATOM     21  C   UNL     1      -2.056   0.389   5.219  0.00  0.00    +0.010 C 
ATOM     22  C   UNL     1      -2.546   2.117   6.955  0.00  0.00    +0.010 C 
ENDBRANCH  19  20
ENDBRANCH  18  19
ENDBRANCH  12  18
ENDBRANCH   8   9
BRANCH   4  23
ATOM     23  C   UNL     1      -1.136  10.476   1.246  0.00  0.00    +0.060 A 
ATOM     24  C   UNL     1      -1.749  10.198   2.461  0.00  0.00    +0.027 A 
ATOM     25  C   UNL     1      -2.249  11.228   3.232  0.00  0.00    +0.030 A 
ATOM     26  C   UNL     1      -2.150  12.535   2.791  0.00  0.00    +0.105 A 
ATOM     27  C   UNL     1      -1.544  12.815   1.580  0.00  0.00    +0.030 A 
ATOM     28  C   UNL     1      -1.037  11.790   0.806  0.00  0.00    +0.027 A 
BRANCH  26  29
ATOM     29  S   UNL     1      -2.795  13.847   3.776  0.00  0.00    +0.056 S 
ATOM     30  O   UNL     1      -2.824  13.373   5.115  0.00  0.00    -0.153 OA
ATOM     31  O   UNL     1      -2.091  15.022   3.398  0.00  0.00    -0.153 OA
BRANCH  29  32
ATOM     32  N   UNL     1      -4.371  14.072   3.319  0.00  0.00    -0.204 NA
ATOM     33  H   UNL     1      -4.758  13.518   2.622  0.00  0.00    +0.144 HD
ATOM     34  H   UNL     1      -4.907  14.757   3.748  0.00  0.00    +0.144 HD
ENDBRANCH  29  32
ENDBRANCH  26  29
ENDBRANCH   4  23
TORSDOF 8
