REMARK  Name = ZINC08766218
REMARK  8 active torsions:
REMARK  status: ('A' for Active; 'I' for Inactive)
REMARK    1  A    between atoms: C_1  and  C_2
REMARK    2  A    between atoms: C_2  and  C_3
REMARK    3  A    between atoms: C_3  and  C_4
REMARK    4  A    between atoms: C_4  and  C_5
REMARK    5  A    between atoms: C_8  and  N_10
REMARK    6  A    between atoms: N_12  and  C_24
REMARK    7  A    between atoms: C_16  and  C_17
REMARK    8  A    between atoms: C_24  and  C_25
REMARK                            x       y       z     vdW  Elec       q    Type
REMARK                         _______ _______ _______ _____ _____    ______ ____
ROOT
ATOM      1  N   UNL     1       3.018  -0.069   0.398  0.00  0.00    -0.198 NA
ATOM      2  C   UNL     1       1.739   0.239   0.328  0.00  0.00    +0.171 C 
ATOM      3  N   UNL     1       0.654  -0.608   0.305  0.00  0.00    -0.242 N 
ATOM      4  C   UNL     1      -0.575  -0.126   0.233  0.00  0.00    +0.259 C 
ATOM      5  O   UNL     1      -1.545  -0.862   0.211  0.00  0.00    -0.269 OA
ATOM      6  C   UNL     1      -0.719   1.336   0.179  0.00  0.00    +0.081 C 
ATOM      7  C   UNL     1      -1.852   2.092   0.097  0.00  0.00    +0.066 C 
ATOM      8  S   UNL     1       0.989   1.857   0.240  0.00  0.00    -0.049 S 
ENDROOT
BRANCH   7   9
ATOM      9  C   UNL     1      -3.105   1.468  -0.099  0.00  0.00    +0.131 A 
ATOM     10  C   UNL     1      -4.311   2.110  -0.300  0.00  0.00    +0.050 A 
ATOM     11  C   UNL     1      -5.279   1.105  -0.449  0.00  0.00    +0.057 A 
ATOM     12  C   UNL     1      -4.643  -0.083  -0.327  0.00  0.00    +0.171 A 
ATOM     13  O   UNL     1      -3.337   0.138  -0.117  0.00  0.00    -0.449 OA
ATOM     14 BR   UNL     1      -5.465  -1.783  -0.435  0.00  0.00    -0.008 Br
ENDBRANCH   7   9
BRANCH   1  18
ATOM     15  C   UNL     1       4.196  -3.858  -0.204  0.00  0.00    +0.104 A 
ATOM     16  N   UNL     1       3.957  -3.448   1.026  0.00  0.00    -0.144 NA
ATOM     17  N   UNL     1       3.584  -2.271   1.283  0.00  0.00    -0.121 NA
ATOM     18  C   UNL     1       3.410  -1.367   0.319  0.00  0.00    +0.217 A 
ATOM     19  S   UNL     1       3.832  -2.358  -1.112  0.00  0.00    -0.031 S 
BRANCH  15  20
ATOM     20  C   UNL     1       4.642  -5.207  -0.704  0.00  0.00    +0.065 C 
BRANCH  20  21
ATOM     21  C   UNL     1       3.416  -6.071  -1.006  0.00  0.00    +0.006 C 
BRANCH  21  23
ATOM     22  C   UNL     1       2.642  -8.304  -1.815  0.00  0.00    +0.004 C 
ATOM     23  C   UNL     1       3.869  -7.441  -1.514  0.00  0.00    -0.003 C 
ENDBRANCH  21  23
ENDBRANCH  20  21
ENDBRANCH  15  20
ENDBRANCH   1  18
BRANCH   3  24
ATOM     24  C   UNL     1       0.864  -2.057   0.361  0.00  0.00    +0.142 C 
BRANCH  24  25
ATOM     25  C   UNL     1       1.014  -2.487   1.798  0.00  0.00    -0.015 C 
ATOM     26  C   UNL     1       0.209  -3.391   2.298  0.00  0.00    +0.005 C 
ENDBRANCH  24  25
ENDBRANCH   3  24
TORSDOF 7
