REMARK  Name = ZINC64507931
REMARK  15 active torsions:
REMARK  status: ('A' for Active; 'I' for Inactive)
REMARK    1  A    between atoms: C_1  and  C_2
REMARK    2  A    between atoms: C_2  and  O_3
REMARK    3  A    between atoms: O_3  and  C_4
REMARK    4  A    between atoms: C_4  and  C_6
REMARK    5  A    between atoms: C_8  and  C_37
REMARK    6  A    between atoms: C_9  and  C_13
REMARK    7  A    between atoms: C_10  and  C_12
REMARK    8  A    between atoms: C_13  and  C_14
REMARK    9  A    between atoms: C_14  and  C_15
REMARK   10  A    between atoms: C_21  and  C_24
REMARK   11  A    between atoms: N_26  and  C_27
REMARK   12  A    between atoms: C_27  and  C_28
REMARK   13  A    between atoms: C_28  and  N_29
REMARK   14  A    between atoms: N_29  and  C_30
REMARK   15  A    between atoms: N_29  and  C_31
REMARK                            x       y       z     vdW  Elec       q    Type
REMARK                         _______ _______ _______ _____ _____    ______ ____
ROOT
ATOM      1  C   UNL     1       6.465  -4.978  -0.695  0.00  0.00    +0.216 C 
ATOM      2  O   UNL     1       7.199  -4.987  -1.661  0.00  0.00    -0.276 OA
ATOM      3  N   UNL     1       6.921  -5.397   0.502  0.00  0.00    -0.301 N 
ATOM      4  C   UNL     1       6.042  -5.398   1.679  0.00  0.00    +0.108 C 
ATOM      5  C   UNL     1       6.054  -6.798   2.302  0.00  0.00    +0.020 C 
ATOM      6  C   UNL     1       7.498  -7.210   2.595  0.00  0.00    +0.016 C 
ATOM      7  C   UNL     1       8.293  -7.256   1.288  0.00  0.00    +0.092 C 
ATOM      8  C   UNL     1       8.305  -5.867   0.653  0.00  0.00    +0.120 C 
ENDROOT
BRANCH   7   9
ATOM      9  C   UNL     1       9.707  -7.693   1.574  0.00  0.00    +0.218 C 
ATOM     10  O   UNL     1      10.046  -7.943   2.712  0.00  0.00    -0.275 OA
ATOM     11  N   UNL     1      10.594  -7.806   0.566  0.00  0.00    -0.317 N 
ATOM     12  H   UNL     1      10.323  -7.606  -0.343  0.00  0.00    +0.149 HD
BRANCH  11  13
ATOM     13  C   UNL     1      11.968  -8.231   0.844  0.00  0.00    +0.085 C 
BRANCH  13  14
ATOM     14  C   UNL     1      12.762  -8.277  -0.463  0.00  0.00    -0.060 C 
BRANCH  14  15
ATOM     15  N   UNL     1      14.140  -8.703  -0.184  0.00  0.00    +0.381 N 
ATOM     16  C   UNL     1      14.134 -10.085   0.316  0.00  0.00    -0.096 C 
ATOM     17  H   UNL     1      14.546  -8.096   0.512  0.00  0.00    -0.082 HD
BRANCH  15  18
ATOM     18  C   UNL     1      14.934  -8.632  -1.418  0.00  0.00    -0.069 C 
ATOM     19  C   UNL     1      16.369  -9.076  -1.128  0.00  0.00    -0.015 C 
ATOM     20  C   UNL     1      17.195  -9.002  -2.413  0.00  0.00    -0.002 C 
ATOM     21  C   UNL     1      17.202  -7.564  -2.933  0.00  0.00    -0.000 C 
ATOM     22  C   UNL     1      15.767  -7.120  -3.224  0.00  0.00    -0.002 C 
ATOM     23  C   UNL     1      14.940  -7.193  -1.938  0.00  0.00    -0.015 C 
ENDBRANCH  15  18
ENDBRANCH  14  15
ENDBRANCH  13  14
ENDBRANCH  11  13
ENDBRANCH   7   9
BRANCH   1  24
ATOM     24  C   UNL     1       5.043  -4.499  -0.834  0.00  0.00    +0.100 C 
BRANCH  24  25
ATOM     25  C   UNL     1       4.784  -4.084  -2.284  0.00  0.00    +0.046 C 
BRANCH  25  28
ATOM     26  C   UNL     1       1.468  -2.353  -2.550  0.00  0.00    +0.240 C 
ATOM     27  C   UNL     1       2.968  -2.335  -2.353  0.00  0.00    -0.033 C 
ATOM     28  C   UNL     1       3.362  -3.605  -2.422  0.00  0.00    -0.025 C 
ATOM     29  C   UNL     1       2.200  -4.464  -2.655  0.00  0.00    +0.037 C 
ATOM     30  N   UNL     1       1.113  -3.767  -2.731  0.00  0.00    -0.269 NA
ATOM     31  C   UNL     1       2.261  -5.964  -2.789  0.00  0.00    +0.065 C 
ATOM     32  C   UNL     1       3.838  -1.126  -2.126  0.00  0.00    +0.042 C 
BRANCH  26  33
ATOM     33  C   UNL     1       0.775  -1.794  -1.334  0.00  0.00    +0.336 C 
ATOM     34  O   UNL     1       0.314  -2.540  -0.504  0.00  0.00    -0.248 OA
BRANCH  33  35
ATOM     35  O   UNL     1       0.671  -0.465  -1.174  0.00  0.00    -0.463 OA
BRANCH  35  37
ATOM     36  C   UNL     1      -0.019   1.526   0.010  0.00  0.00    +0.048 C 
ATOM     37  C   UNL     1       0.002  -0.004   0.002  0.00  0.00    +0.229 C 
ENDBRANCH  35  37
ENDBRANCH  33  35
ENDBRANCH  26  33
ENDBRANCH  25  28
ENDBRANCH  24  25
ENDBRANCH   1  24
TORSDOF 11
