REMARK  Name = ZINC13024359
REMARK  12 active torsions:
REMARK  status: ('A' for Active; 'I' for Inactive)
REMARK    1  A    between atoms: C_1  and  C_2
REMARK    2  A    between atoms: C_2  and  C_3
REMARK    3  A    between atoms: C_3  and  C_4
REMARK    4  A    between atoms: C_3  and  C_5
REMARK    5  A    between atoms: C_3  and  N_6
REMARK    6  A    between atoms: C_7  and  C_9
REMARK    7  A    between atoms: C_9  and  C_11
REMARK    8  A    between atoms: C_9  and  N_18
REMARK    9  A    between atoms: C_16  and  C_17
REMARK   10  A    between atoms: N_18  and  C_19
REMARK   11  A    between atoms: C_28  and  C_30
REMARK   12  A    between atoms: C_30  and  N_31
REMARK                            x       y       z     vdW  Elec       q    Type
REMARK                         _______ _______ _______ _____ _____    ______ ____
ROOT
ATOM      1  N   UNL     1      -5.175   3.518  -1.480  0.00  0.00    -0.254 N 
ATOM      2  C   UNL     1      -3.853   3.428  -1.723  0.00  0.00    +0.242 C 
ATOM      3  O   UNL     1      -3.419   3.688  -2.825  0.00  0.00    -0.273 OA
ENDROOT
BRANCH   1   4
ATOM      4  C   UNL     1      -5.664   3.323  -0.182  0.00  0.00    +0.041 A 
ATOM      5  C   UNL     1      -6.263   2.118   0.160  0.00  0.00    +0.027 A 
ATOM      6  C   UNL     1      -6.746   1.924   1.440  0.00  0.00    +0.051 A 
ATOM      7  C   UNL     1      -6.635   2.931   2.385  0.00  0.00    +0.166 A 
ATOM      8  C   UNL     1      -6.035   4.141   2.045  0.00  0.00    +0.168 A 
ATOM      9  C   UNL     1      -5.546   4.332   0.763  0.00  0.00    +0.073 A 
ATOM     10  O   UNL     1      -6.048   4.958   3.138  0.00  0.00    -0.453 OA
ATOM     11  C   UNL     1      -6.291   4.092   4.263  0.00  0.00    +0.466 C 
ATOM     12  O   UNL     1      -7.023   2.991   3.694  0.00  0.00    -0.453 OA
ENDBRANCH   1   4
BRANCH   1  13
ATOM     13  C   UNL     1      -6.102   3.820  -2.575  0.00  0.00    +0.197 C 
BRANCH  13  14
ATOM     14  C   UNL     1      -7.141   2.733  -2.667  0.00  0.00    -0.015 A 
ATOM     15  C   UNL     1      -8.427   2.966  -2.216  0.00  0.00    +0.006 A 
ATOM     16  C   UNL     1      -9.381   1.969  -2.301  0.00  0.00    +0.000 A 
ATOM     17  C   UNL     1      -9.049   0.739  -2.837  0.00  0.00    +0.000 A 
ATOM     18  C   UNL     1      -7.763   0.506  -3.288  0.00  0.00    +0.004 A 
ATOM     19  C   UNL     1      -6.811   1.504  -3.207  0.00  0.00    -0.045 A 
ATOM     20  C   UNL     1      -5.410   1.252  -3.704  0.00  0.00    +0.044 C 
ENDBRANCH  13  14
BRANCH  13  22
ATOM     21  N   UNL     1      -7.519   5.723  -3.274  0.00  0.00    -0.308 N 
ATOM     22  C   UNL     1      -6.778   5.141  -2.310  0.00  0.00    +0.239 C 
ATOM     23  O   UNL     1      -6.655   5.679  -1.231  0.00  0.00    -0.273 OA
ATOM     24  H   UNL     1      -7.669   5.263  -4.115  0.00  0.00    +0.149 HD
BRANCH  21  25
ATOM     25  C   UNL     1      -8.099   7.050  -3.051  0.00  0.00    +0.029 C 
ATOM     26  C   UNL     1      -9.036   7.000  -1.842  0.00  0.00    +0.031 C 
ATOM     27  C   UNL     1      -6.979   8.058  -2.786  0.00  0.00    +0.031 C 
BRANCH  25  29
ATOM     28  C   UNL     1      -9.492   8.863  -4.057  0.00  0.00    +0.006 C 
ATOM     29  C   UNL     1      -8.887   7.477  -4.290  0.00  0.00    +0.022 C 
ENDBRANCH  25  29
ENDBRANCH  21  25
ENDBRANCH  13  22
ENDBRANCH   1  13
BRANCH   2  30
ATOM     30  C   UNL     1      -2.912   3.004  -0.624  0.00  0.00    +0.242 C 
BRANCH  30  31
ATOM     31  N   UNL     1      -1.561   2.851  -1.170  0.00  0.00    -0.235 N 
ATOM     32  C   UNL     1      -1.014   1.709  -1.704  0.00  0.00    +0.090 A 
ATOM     33  C   UNL     1      -1.485   0.416  -1.909  0.00  0.00    +0.029 A 
ATOM     34  C   UNL     1      -0.669  -0.521  -2.478  0.00  0.00    +0.002 A 
ATOM     35  C   UNL     1       0.624  -0.193  -2.862  0.00  0.00    +0.002 A 
ATOM     36  C   UNL     1       1.108   1.069  -2.676  0.00  0.00    +0.032 A 
ATOM     37  C   UNL     1       0.294   2.047  -2.091  0.00  0.00    +0.113 A 
ATOM     38  N   UNL     1       0.488   3.346  -1.786  0.00  0.00    -0.129 NA
ATOM     39  N   UNL     1      -0.571   3.842  -1.250  0.00  0.00    -0.064 NA
ENDBRANCH  30  31
ENDBRANCH   2  30
TORSDOF 8
