REMARK  Name = ZINC39320094
REMARK  5 active torsions:
REMARK  status: ('A' for Active; 'I' for Inactive)
REMARK    1  A    between atoms: C_13  and  C_14
REMARK    2  A    between atoms: C_14  and  O_15
REMARK    3  A    between atoms: O_15  and  C_16
REMARK    4  A    between atoms: N_18  and  C_19
REMARK    5  A    between atoms: C_19  and  C_26
REMARK                            x       y       z     vdW  Elec       q    Type
REMARK                         _______ _______ _______ _____ _____    ______ ____
ROOT
ATOM      1  O   UNL     1       5.553  -1.635   1.122  0.00  0.00    -0.449 OA
ENDROOT
BRANCH   1   2
ATOM      2  C   UNL     1       6.424  -1.603   2.148  0.00  0.00    +0.401 C 
ATOM      3  O   UNL     1       6.225  -0.862   3.091  0.00  0.00    -0.226 OA
ATOM      4  N   UNL     1       7.517  -2.391   2.129  0.00  0.00    -0.264 N 
ATOM      5  H   UNL     1       7.676  -2.982   1.376  0.00  0.00    +0.153 HD
BRANCH   4   6
ATOM      6  C   UNL     1       8.466  -2.355   3.245  0.00  0.00    +0.159 C 
ATOM      7  C   UNL     1       9.025  -0.931   3.394  0.00  0.00    +0.062 C 
ATOM      8  C   UNL     1      10.006  -0.669   2.215  0.00  0.00    +0.168 C 
ATOM      9  S   UNL     1      10.870  -2.295   2.129  0.00  0.00    -0.028 S 
ATOM     10  O   UNL     1      12.042  -2.238   2.931  0.00  0.00    -0.174 OA
ATOM     11  O   UNL     1      10.972  -2.692   0.769  0.00  0.00    -0.174 OA
ATOM     12  C   UNL     1       9.620  -3.349   2.970  0.00  0.00    +0.203 C 
BRANCH   6  13
ATOM     13  C   UNL     1       7.758  -2.749   4.515  0.00  0.00    +0.381 C 
ATOM     14  O   UNL     1       6.575  -3.045   4.488  0.00  0.00    -0.244 OA
ATOM     15  O   UNL     1       8.367  -2.772   5.571  0.00  0.00    -0.244 OA
ENDBRANCH   6  13
ENDBRANCH   4   6
ENDBRANCH   1   2
BRANCH   1  16
ATOM     16  C   UNL     1       4.416  -0.773   1.209  0.00  0.00    +0.246 C 
BRANCH  16  29
ATOM     17  C   UNL     1      -0.017   1.375   0.010  0.00  0.00    +0.001 A 
ATOM     18  C   UNL     1       1.169   2.088   0.002  0.00  0.00    +0.000 A 
ATOM     19  C   UNL     1       2.380   1.420  -0.013  0.00  0.00    +0.005 A 
ATOM     20  C   UNL     1       2.408   0.042  -0.021  0.00  0.00    -0.029 A 
ATOM     21  C   UNL     1       1.221  -0.685  -0.013  0.00  0.00    -0.014 A 
ATOM     22  C   UNL     1       0.002  -0.004   0.002  0.00  0.00    +0.009 A 
ATOM     23  C   UNL     1       1.530  -2.136  -0.025  0.00  0.00    -0.014 A 
ATOM     24  C   UNL     1       0.694  -3.254  -0.023  0.00  0.00    +0.009 A 
ATOM     25  C   UNL     1       1.238  -4.521  -0.035  0.00  0.00    +0.001 A 
ATOM     26  C   UNL     1       2.611  -4.690  -0.050  0.00  0.00    +0.000 A 
ATOM     27  C   UNL     1       3.445  -3.587  -0.052  0.00  0.00    +0.005 A 
ATOM     28  C   UNL     1       2.910  -2.316  -0.040  0.00  0.00    -0.029 A 
ATOM     29  C   UNL     1       3.547  -0.948  -0.038  0.00  0.00    +0.088 C 
ENDBRANCH  16  29
ENDBRANCH   1  16
TORSDOF 5
