REMARK  Name = ZINC20763263
REMARK  7 active torsions:
REMARK  status: ('A' for Active; 'I' for Inactive)
REMARK    1  A    between atoms: C_1  and  C_2
REMARK    2  A    between atoms: C_3  and  C_31
REMARK    3  A    between atoms: C_9  and  O_30
REMARK    4  A    between atoms: C_10  and  C_13
REMARK    5  A    between atoms: C_13  and  N_14
REMARK    6  A    between atoms: C_34  and  O_37
REMARK    7  A    between atoms: O_37  and  C_38
REMARK                            x       y       z     vdW  Elec       q    Type
REMARK                         _______ _______ _______ _____ _____    ______ ____
ROOT
ATOM      1  C   UNL     1      -4.490   0.431   4.952  0.00  0.00    +0.087 C 
ATOM      2  C   UNL     1      -4.526  -0.548   3.808  0.00  0.00    +0.114 A 
ATOM      3  C   UNL     1      -4.628  -1.874   4.086  0.00  0.00    +0.067 A 
ATOM      4  C   UNL     1      -4.663  -2.831   2.967  0.00  0.00    +0.200 A 
ATOM      5  O   UNL     1      -4.754  -4.032   3.155  0.00  0.00    -0.286 OA
ATOM      6  C   UNL     1      -4.583  -2.266   1.607  0.00  0.00    +0.065 A 
ATOM      7  C   UNL     1      -4.607  -3.088   0.480  0.00  0.00    +0.019 A 
ATOM      8  C   UNL     1      -4.530  -2.532  -0.765  0.00  0.00    +0.046 A 
ATOM      9  C   UNL     1      -4.434  -1.150  -0.914  0.00  0.00    +0.122 A 
ATOM     10  C   UNL     1      -4.403  -0.322   0.195  0.00  0.00    +0.020 A 
ATOM     11  C   UNL     1      -4.480  -0.871   1.469  0.00  0.00    +0.144 A 
ATOM     12  O   UNL     1      -4.456  -0.079   2.559  0.00  0.00    -0.459 OA
ENDROOT
BRANCH   3  13
ATOM     13  C   UNL     1      -4.704  -2.348   5.489  0.00  0.00    -0.011 A 
ATOM     14  C   UNL     1      -3.618  -2.172   6.345  0.00  0.00    +0.012 A 
ATOM     15  C   UNL     1      -3.694  -2.610   7.651  0.00  0.00    +0.046 A 
ATOM     16  C   UNL     1      -4.846  -3.235   8.110  0.00  0.00    +0.120 A 
ATOM     17  C   UNL     1      -5.926  -3.416   7.258  0.00  0.00    +0.046 A 
ATOM     18  C   UNL     1      -5.859  -2.976   5.953  0.00  0.00    +0.012 A 
BRANCH  16  19
ATOM     19  O   UNL     1      -4.915  -3.670   9.396  0.00  0.00    -0.495 OA
ATOM     20  C   UNL     1      -3.767  -3.451  10.217  0.00  0.00    +0.277 C 
ENDBRANCH  16  19
ENDBRANCH   3  13
BRANCH   9  21
ATOM     21  O   UNL     1      -4.365  -0.610  -2.158  0.00  0.00    -0.506 OA
ATOM     22  H   UNL     1      -4.289   0.480  -2.281  0.00  0.00    +0.292 HD
ENDBRANCH   9  21
BRANCH  10  23
ATOM     23  C   UNL     1      -4.292   1.171   0.021  0.00  0.00    -0.036 C 
BRANCH  23  24
ATOM     24  N   UNL     1      -2.875   1.558   0.006  0.00  0.00    +0.383 N 
ATOM     25  C   UNL     1      -2.203   1.140   1.240  0.00  0.00    -0.073 C 
ATOM     26  C   UNL     1      -0.748   1.589   1.253  0.00  0.00    -0.007 C 
ATOM     27  C   UNL     1      -0.013   1.086   0.008  0.00  0.00    +0.011 C 
ATOM     28  C   UNL     1      -0.773   1.603  -1.219  0.00  0.00    +0.020 C 
ATOM     29  C   UNL     1      -2.194   1.016  -1.180  0.00  0.00    -0.069 C 
ATOM     30  C   UNL     1      -0.901   3.107  -1.127  0.00  0.00    +0.023 A 
ATOM     31  C   UNL     1      -1.021   3.795  -2.293  0.00  0.00    +0.022 A 
ATOM     32  C   UNL     1      -1.206   5.182  -2.285  0.00  0.00    +0.007 A 
ATOM     33  C   UNL     1      -1.283   5.829  -1.086  0.00  0.00    +0.070 A 
ATOM     34  C   UNL     1      -1.152   5.090   0.099  0.00  0.00    +0.251 A 
ATOM     35  O   UNL     1      -1.265   5.651   1.177  0.00  0.00    -0.268 OA
ATOM     36  N   UNL     1      -0.901   3.757   0.061  0.00  0.00    -0.312 N 
ATOM     37  C   UNL     1      -0.621   3.100   1.338  0.00  0.00    +0.126 C 
ATOM     38  H   UNL     1      -2.824   2.655  -0.047  0.00  0.00    -0.081 HD
ENDBRANCH  23  24
ENDBRANCH  10  23
TORSDOF 5
