REMARK  Name = ZINC66732141
REMARK  8 active torsions:
REMARK  status: ('A' for Active; 'I' for Inactive)
REMARK    1  A    between atoms: C_1  and  C_2
REMARK    2  A    between atoms: C_2  and  N_3
REMARK    3  A    between atoms: N_6  and  C_11
REMARK    4  A    between atoms: C_11  and  C_12
REMARK    5  A    between atoms: C_12  and  O_14
REMARK    6  A    between atoms: O_14  and  C_15
REMARK    7  A    between atoms: C_24  and  C_29
REMARK    8  A    between atoms: C_26  and  C_28
REMARK                            x       y       z     vdW  Elec       q    Type
REMARK                         _______ _______ _______ _____ _____    ______ ____
ROOT
ATOM      1  C   UNL     1       4.799   0.434  -7.324  0.00  0.00    +0.194 C 
ATOM      2  C   UNL     1       6.148   0.537  -6.610  0.00  0.00    +0.048 C 
ATOM      3  C   UNL     1       6.824   1.859  -6.979  0.00  0.00    +0.023 C 
ATOM      4  C   UNL     1       7.072   1.897  -8.491  0.00  0.00    +0.107 C 
ATOM      5  N   UNL     1       5.801   1.654  -9.185  0.00  0.00    -0.312 N 
ATOM      6  C   UNL     1       5.024   0.456  -8.839  0.00  0.00    +0.151 C 
ATOM      7  C   UNL     1       5.342   2.538 -10.148  0.00  0.00    +0.125 A 
ATOM      8  C   UNL     1       6.171   3.554 -10.630  0.00  0.00    +0.064 A 
ATOM      9  C   UNL     1       5.667   4.410 -11.589  0.00  0.00    +0.017 A 
ATOM     10  N   UNL     1       4.424   4.242 -12.018  0.00  0.00    -0.347 N 
ATOM     11  C   UNL     1       3.667   3.273 -11.543  0.00  0.00    +0.106 A 
ATOM     12  N   UNL     1       4.109   2.430 -10.632  0.00  0.00    -0.220 NA
ATOM     13  C   UNL     1       2.260   3.122 -12.061  0.00  0.00    +0.086 C 
ATOM     14  C   UNL     1       6.521   5.523 -12.142  0.00  0.00    +0.063 C 
ATOM     15  H   UNL     1       4.066   4.840 -12.692  0.00  0.00    +0.167 HD
ENDROOT
BRANCH   1  16
ATOM     16  O   UNL     1       4.155  -0.787  -6.955  0.00  0.00    -0.459 OA
BRANCH  16  17
ATOM     17  C   UNL     1       3.352  -0.751  -5.880  0.00  0.00    +0.325 C 
ATOM     18  O   UNL     1       3.200   0.282  -5.273  0.00  0.00    -0.249 OA
BRANCH  17  19
ATOM     19  C   UNL     1       2.639  -2.001  -5.431  0.00  0.00    +0.228 C 
BRANCH  19  23
ATOM     20  N   UNL     1       0.150  -1.608  -1.986  0.00  0.00    -0.293 N 
ATOM     21  C   UNL     1      -0.434  -1.857  -3.304  0.00  0.00    +0.127 C 
ATOM     22  C   UNL     1       0.444  -1.260  -4.401  0.00  0.00    +0.128 C 
ATOM     23  N   UNL     1       1.830  -1.702  -4.246  0.00  0.00    -0.282 N 
ATOM     24  C   UNL     1       2.365  -1.835  -3.016  0.00  0.00    +0.302 C 
ATOM     25  O   UNL     1       3.543  -2.096  -2.882  0.00  0.00    -0.265 OA
ATOM     26  C   UNL     1       1.487  -1.652  -1.818  0.00  0.00    +0.302 C 
ATOM     27  O   UNL     1       1.972  -1.548  -0.711  0.00  0.00    -0.265 OA
BRANCH  20  29
ATOM     28  C   UNL     1      -0.937   0.209  -0.762  0.00  0.00    +0.024 C 
ATOM     29  C   UNL     1      -0.720  -1.303  -0.848  0.00  0.00    +0.105 C 
ENDBRANCH  20  29
ENDBRANCH  19  23
ENDBRANCH  17  19
ENDBRANCH  16  17
ENDBRANCH   1  16
TORSDOF 5
