REMARK  Name = ZINC04353950
REMARK  6 active torsions:
REMARK  status: ('A' for Active; 'I' for Inactive)
REMARK    1  A    between atoms: C_1  and  C_2
REMARK    2  A    between atoms: C_2  and  C_3
REMARK    3  A    between atoms: C_2  and  C_4
REMARK    4  A    between atoms: C_4  and  N_5
REMARK    5  A    between atoms: C_11  and  C_18
REMARK    6  A    between atoms: N_16  and  C_17
REMARK                            x       y       z     vdW  Elec       q    Type
REMARK                         _______ _______ _______ _____ _____    ______ ____
ROOT
ATOM      1  N   UNL     1      -0.765   1.593  -1.149  0.00  0.00    -0.292 N 
ATOM      2  C   UNL     1      -0.013   1.086   0.008  0.00  0.00    +0.159 C 
ATOM      3  C   UNL     1      -0.764   1.595   1.218  0.00  0.00    +0.042 C 
ATOM      4  C   UNL     1      -1.812   2.301   0.741  0.00  0.00    +0.058 C 
ATOM      5  C   UNL     1      -1.807   2.297  -0.669  0.00  0.00    +0.247 C 
ATOM      6  O   UNL     1      -2.637   2.856  -1.362  0.00  0.00    -0.270 OA
ATOM      7  C   UNL     1      -2.750   2.935   1.748  0.00  0.00    +0.144 C 
ATOM      8  N   UNL     1      -2.439   2.725   3.173  0.00  0.00    -0.288 N 
ATOM      9  C   UNL     1      -1.354   1.993   3.492  0.00  0.00    +0.307 C 
ATOM     10  O   UNL     1      -1.089   1.814   4.665  0.00  0.00    -0.252 OA
ATOM     11  N   UNL     1      -0.558   1.455   2.559  0.00  0.00    -0.260 N 
ATOM     12  C   UNL     1       0.599   0.674   3.002  0.00  0.00    +0.139 C 
ATOM     13  H   UNL     1      -3.003   3.106   3.865  0.00  0.00    +0.151 HD
ENDROOT
BRANCH   7  14
ATOM     14  C   UNL     1      -4.136   2.401   1.492  0.00  0.00    +0.013 A 
ATOM     15  C   UNL     1      -4.642   1.384   2.280  0.00  0.00    +0.008 A 
ATOM     16  C   UNL     1      -5.914   0.895   2.045  0.00  0.00    +0.001 A 
ATOM     17  C   UNL     1      -6.681   1.423   1.024  0.00  0.00    +0.003 A 
ATOM     18  C   UNL     1      -6.178   2.440   0.235  0.00  0.00    +0.039 A 
ATOM     19  C   UNL     1      -4.906   2.934   0.472  0.00  0.00    +0.129 A 
ATOM     20  F   UNL     1      -4.415   3.933  -0.294  0.00  0.00    -0.205 F 
ENDBRANCH   7  14
BRANCH   1  21
ATOM     21  C   UNL     1      -0.441   1.375  -2.561  0.00  0.00    +0.111 C 
BRANCH  21  23
ATOM     22  C   UNL     1      -2.651   0.300  -3.011  0.00  0.00    +0.009 C 
ATOM     23  C   UNL     1      -1.135   0.103  -3.052  0.00  0.00    +0.000 C 
ATOM     24  C   UNL     1      -0.698  -0.194  -4.488  0.00  0.00    +0.009 C 
ENDBRANCH  21  23
ENDBRANCH   1  21
TORSDOF 3
