REMARK  Name = ZINC15994068
REMARK  7 active torsions:
REMARK  status: ('A' for Active; 'I' for Inactive)
REMARK    1  A    between atoms: C_1  and  C_2
REMARK    2  A    between atoms: N_11  and  C_15
REMARK    3  A    between atoms: C_15  and  C_16
REMARK    4  A    between atoms: N_18  and  C_19
REMARK    5  A    between atoms: C_19  and  C_20
REMARK    6  A    between atoms: C_20  and  N_21
REMARK    7  A    between atoms: C_25  and  C_26
REMARK                            x       y       z     vdW  Elec       q    Type
REMARK                         _______ _______ _______ _____ _____    ______ ____
ROOT
ATOM      1  C   UNL     1       0.313   0.504   3.153  0.00  0.00    +0.231 C 
ATOM      2  O   UNL     1      -0.802   0.928   3.372  0.00  0.00    -0.274 OA
ATOM      3  N   UNL     1       0.793   0.489   1.894  0.00  0.00    -0.312 N 
ATOM      4  H   UNL     1       1.685   0.149   1.719  0.00  0.00    +0.149 HD
ENDROOT
BRANCH   1   5
ATOM      5  C   UNL     1       1.161  -0.007   4.289  0.00  0.00    +0.213 C 
BRANCH   5  15
ATOM      6  C   UNL     1      -2.844   0.678   6.068  0.00  0.00    +0.010 C 
ATOM      7  C   UNL     1      -2.446  -0.171   7.277  0.00  0.00    +0.018 C 
ATOM      8  C   UNL     1      -3.054  -1.569   7.141  0.00  0.00    +0.006 C 
ATOM      9  C   UNL     1      -2.639  -2.423   8.341  0.00  0.00    +0.000 C 
ATOM     10  C   UNL     1      -1.114  -2.542   8.381  0.00  0.00    +0.003 C 
ATOM     11  C   UNL     1      -0.498  -1.147   8.521  0.00  0.00    +0.035 C 
ATOM     12  C   UNL     1      -0.926  -0.281   7.342  0.00  0.00    +0.115 C 
ATOM     13  C   UNL     1      -0.383  -0.845   6.049  0.00  0.00    +0.247 C 
ATOM     14  O   UNL     1      -0.620  -1.931   5.566  0.00  0.00    -0.273 OA
ATOM     15  N   UNL     1       0.419   0.115   5.546  0.00  0.00    -0.215 N 
ATOM     16  C   UNL     1       0.458   1.192   6.341  0.00  0.00    +0.310 C 
ATOM     17  O   UNL     1       1.116   2.186   6.102  0.00  0.00    -0.252 OA
ATOM     18  N   UNL     1      -0.317   1.052   7.434  0.00  0.00    -0.285 N 
ATOM     19  H   UNL     1      -0.444   1.701   8.143  0.00  0.00    +0.151 HD
ENDBRANCH   5  15
ENDBRANCH   1   5
BRANCH   3  20
ATOM     20  C   UNL     1      -0.032   0.985   0.789  0.00  0.00    +0.123 C 
BRANCH  20  21
ATOM     21  C   UNL     1       0.744   0.857  -0.523  0.00  0.00    +0.136 C 
BRANCH  21  22
ATOM     22  N   UNL     1      -0.081   1.353  -1.628  0.00  0.00    -0.227 N 
ATOM     23  C   UNL     1      -0.012   2.631  -1.962  0.00  0.00    +0.260 C 
ATOM     24  O   UNL     1       0.719   3.407  -1.376  0.00  0.00    -0.269 OA
ATOM     25  C   UNL     1      -0.869   3.068  -3.084  0.00  0.00    +0.080 C 
ATOM     26  C   UNL     1      -1.005   4.298  -3.639  0.00  0.00    +0.028 C 
ATOM     27  S   UNL     1      -1.675   1.530  -3.509  0.00  0.00    -0.026 S 
ATOM     28  C   UNL     1      -0.889   0.496  -2.284  0.00  0.00    +0.286 C 
ATOM     29  O   UNL     1      -1.046  -0.694  -2.087  0.00  0.00    -0.262 OA
BRANCH  26  30
ATOM     30  C   UNL     1      -1.799   4.468  -4.864  0.00  0.00    -0.024 A 
ATOM     31  C   UNL     1      -2.262   3.346  -5.562  0.00  0.00    +0.011 A 
ATOM     32  C   UNL     1      -3.010   3.512  -6.707  0.00  0.00    +0.039 A 
ATOM     33  C   UNL     1      -3.295   4.787  -7.175  0.00  0.00    +0.123 A 
ATOM     34  C   UNL     1      -2.834   5.902  -6.491  0.00  0.00    +0.039 A 
ATOM     35  C   UNL     1      -2.090   5.751  -5.341  0.00  0.00    +0.011 A 
ATOM     36  F   UNL     1      -4.025   4.942  -8.301  0.00  0.00    -0.205 F 
ENDBRANCH  26  30
ENDBRANCH  21  22
ENDBRANCH  20  21
ENDBRANCH   3  20
TORSDOF 6
