REMARK  Name = ZINC45300117
REMARK  7 active torsions:
REMARK  status: ('A' for Active; 'I' for Inactive)
REMARK    1  A    between atoms: C_1  and  N_2
REMARK    2  A    between atoms: N_2  and  C_3
REMARK    3  A    between atoms: C_3  and  C_4
REMARK    4  A    between atoms: C_4  and  N_5
REMARK    5  A    between atoms: N_5  and  C_6
REMARK    6  A    between atoms: N_13  and  C_14
REMARK    7  A    between atoms: N_23  and  C_24
REMARK                            x       y       z     vdW  Elec       q    Type
REMARK                         _______ _______ _______ _____ _____    ______ ____
ROOT
ATOM      1  N   UNL     1      -2.655  -2.841   0.022  0.00  0.00    -0.304 N 
ATOM      2  C   UNL     1      -3.297  -3.250  -1.229  0.00  0.00    +0.132 C 
ATOM      3  C   UNL     1      -3.275  -3.091   1.230  0.00  0.00    +0.223 A 
ATOM      4  N   UNL     1      -2.694  -2.714   2.365  0.00  0.00    -0.181 NA
ATOM      5  C   UNL     1      -3.291  -2.955   3.529  0.00  0.00    +0.225 A 
ATOM      6  N   UNL     1      -4.468  -3.571   3.557  0.00  0.00    -0.181 NA
ATOM      7  C   UNL     1      -5.049  -3.948   2.422  0.00  0.00    +0.221 A 
ATOM      8  N   UNL     1      -4.454  -3.703   1.258  0.00  0.00    -0.181 NA
ATOM      9  N   UNL     1      -6.271  -4.588   2.451  0.00  0.00    -0.310 N 
ATOM     10  N   UNL     1      -2.688  -2.564   4.709  0.00  0.00    -0.283 N 
ATOM     11  H   UNL     1      -6.694  -4.863   1.622  0.00  0.00    +0.149 HD
ATOM     12  H   UNL     1      -1.794  -2.187   4.695  0.00  0.00    +0.155 HD
ENDROOT
BRANCH   9  13
ATOM     13  C   UNL     1      -6.929  -4.853   3.733  0.00  0.00    +0.082 C 
ATOM     14  C   UNL     1      -6.545  -6.249   4.269  0.00  0.00    +0.058 C 
ATOM     15  C   UNL     1      -7.790  -6.766   4.955  0.00  0.00    -0.042 A 
ATOM     16  C   UNL     1      -7.950  -7.795   5.868  0.00  0.00    +0.004 A 
ATOM     17  C   UNL     1      -9.203  -8.093   6.367  0.00  0.00    +0.000 A 
ATOM     18  C   UNL     1     -10.302  -7.362   5.954  0.00  0.00    +0.000 A 
ATOM     19  C   UNL     1     -10.144  -6.336   5.044  0.00  0.00    +0.004 A 
ATOM     20  C   UNL     1      -8.889  -6.036   4.542  0.00  0.00    -0.042 A 
ATOM     21  C   UNL     1      -8.456  -4.978   3.550  0.00  0.00    +0.058 C 
ENDBRANCH   9  13
BRANCH  10  22
ATOM     22  C   UNL     1      -3.363  -2.711   5.919  0.00  0.00    +0.036 A 
ATOM     23  C   UNL     1      -2.669  -2.985   7.097  0.00  0.00    +0.041 A 
ATOM     24  C   UNL     1      -3.374  -3.123   8.274  0.00  0.00    +0.084 A 
ATOM     25  N   UNL     1      -4.688  -3.000   8.294  0.00  0.00    -0.367 N 
ATOM     26  C   UNL     1      -5.381  -2.741   7.201  0.00  0.00    +0.084 A 
ATOM     27  C   UNL     1      -4.750  -2.583   5.985  0.00  0.00    +0.041 A 
ATOM     28  H   UNL     1      -5.159  -3.103   9.136  0.00  0.00    +0.165 HD
ENDBRANCH  10  22
BRANCH   1  29
ATOM     29  C   UNL     1      -1.355  -2.166  -0.008  0.00  0.00    +0.088 C 
BRANCH  29  30
ATOM     30  C   UNL     1      -1.568  -0.653  -0.095  0.00  0.00    -0.064 C 
BRANCH  30  32
ATOM     31  C   UNL     1      -0.468   1.476  -0.210  0.00  0.00    -0.100 C 
ATOM     32  N   UNL     1      -0.264   0.023  -0.126  0.00  0.00    +0.378 N 
ATOM     33  H   UNL     1       0.259  -0.290  -0.930  0.00  0.00    -0.086 HD
ATOM     34  H   UNL     1       0.249  -0.196   0.715  0.00  0.00    -0.086 HD
ENDBRANCH  30  32
ENDBRANCH  29  30
ENDBRANCH   1  29
TORSDOF 5
