REMARK  Name = ZINC38564544
REMARK  9 active torsions:
REMARK  status: ('A' for Active; 'I' for Inactive)
REMARK    1  A    between atoms: C_1  and  O_2
REMARK    2  A    between atoms: O_2  and  C_3
REMARK    3  A    between atoms: C_6  and  C_9
REMARK    4  A    between atoms: C_9  and  C_10
REMARK    5  A    between atoms: C_10  and  N_11
REMARK    6  A    between atoms: C_12  and  C_14
REMARK    7  A    between atoms: C_26  and  C_28
REMARK    8  A    between atoms: C_31  and  O_34
REMARK    9  A    between atoms: O_34  and  C_35
REMARK                            x       y       z     vdW  Elec       q    Type
REMARK                         _______ _______ _______ _____ _____    ______ ____
ROOT
ATOM      1  C   UNL     1       2.175  -4.656   8.811  0.00  0.00    +0.126 C 
ATOM      2  C   UNL     1       1.501  -4.830  10.022  0.00  0.00    +0.039 C 
ATOM      3  C   UNL     1       2.295  -5.078  11.131  0.00  0.00    -0.008 C 
ATOM      4  C   UNL     1       2.068  -5.606  12.375  0.00  0.00    +0.004 A 
ATOM      5  C   UNL     1       0.877  -5.860  13.093  0.00  0.00    +0.010 A 
ATOM      6  C   UNL     1       1.007  -6.451  14.315  0.00  0.00    +0.001 A 
ATOM      7  C   UNL     1       2.238  -6.806  14.868  0.00  0.00    +0.002 A 
ATOM      8  C   UNL     1       3.431  -6.576  14.255  0.00  0.00    +0.026 A 
ATOM      9  C   UNL     1       3.387  -5.941  12.982  0.00  0.00    +0.044 A 
ATOM     10  N   UNL     1       4.367  -5.549  12.204  0.00  0.00    -0.372 N 
ATOM     11  C   UNL     1       3.793  -4.817  11.098  0.00  0.00    +0.160 C 
ATOM     12  C   UNL     1       4.298  -5.075   9.724  0.00  0.00    +0.076 C 
ATOM     13  N   UNL     1       3.486  -4.915   8.700  0.00  0.00    -0.244 NA
ATOM     14  H   UNL     1       5.311  -5.720  12.347  0.00  0.00    +0.161 HD
ENDROOT
BRANCH  12  15
ATOM     15  C   UNL     1       5.683  -5.508   9.511  0.00  0.00    -0.001 A 
ATOM     16  C   UNL     1       6.021  -6.249   8.370  0.00  0.00    +0.013 A 
ATOM     17  C   UNL     1       7.317  -6.651   8.176  0.00  0.00    +0.046 A 
ATOM     18  C   UNL     1       8.296  -6.325   9.109  0.00  0.00    +0.120 A 
ATOM     19  C   UNL     1       7.966  -5.591  10.243  0.00  0.00    +0.046 A 
ATOM     20  C   UNL     1       6.675  -5.178  10.445  0.00  0.00    +0.013 A 
BRANCH  18  21
ATOM     21  O   UNL     1       9.577  -6.726   8.912  0.00  0.00    -0.495 OA
ATOM     22  C   UNL     1      10.533  -6.358   9.909  0.00  0.00    +0.277 C 
ENDBRANCH  18  21
ENDBRANCH  12  15
BRANCH   1  24
ATOM     23  N   UNL     1       2.064  -4.013   6.450  0.00  0.00    -0.310 N 
ATOM     24  C   UNL     1       1.427  -4.181   7.626  0.00  0.00    +0.262 C 
ATOM     25  O   UNL     1       0.239  -3.942   7.713  0.00  0.00    -0.269 OA
ATOM     26  H   UNL     1       3.013  -4.204   6.380  0.00  0.00    +0.149 HD
BRANCH  23  27
ATOM     27  C   UNL     1       1.323  -3.543   5.276  0.00  0.00    +0.109 C 
BRANCH  27  28
ATOM     28  C   UNL     1       2.273  -3.439   4.082  0.00  0.00    +0.054 C 
BRANCH  28  32
ATOM     29  C   UNL     1       0.114  -2.068   0.658  0.00  0.00    +0.120 A 
ATOM     30  C   UNL     1       0.715  -1.155   1.512  0.00  0.00    +0.046 A 
ATOM     31  C   UNL     1       1.412  -1.601   2.618  0.00  0.00    +0.007 A 
ATOM     32  C   UNL     1       1.512  -2.956   2.874  0.00  0.00    -0.046 A 
ATOM     33  C   UNL     1       0.914  -3.868   2.025  0.00  0.00    +0.007 A 
ATOM     34  C   UNL     1       0.210  -3.427   0.921  0.00  0.00    +0.046 A 
BRANCH  29  36
ATOM     35  C   UNL     1      -0.631  -0.219  -0.637  0.00  0.00    +0.277 C 
ATOM     36  O   UNL     1      -0.573  -1.632  -0.430  0.00  0.00    -0.495 OA
ENDBRANCH  29  36
ENDBRANCH  28  32
ENDBRANCH  27  28
ENDBRANCH  23  27
ENDBRANCH   1  24
TORSDOF 7
