REMARK  Name = ZINC09468965
REMARK  12 active torsions:
REMARK  status: ('A' for Active; 'I' for Inactive)
REMARK    1  A    between atoms: C_1  and  C_2
REMARK    2  A    between atoms: C_4  and  C_18
REMARK    3  A    between atoms: C_5  and  C_17
REMARK    4  A    between atoms: N_6  and  C_7
REMARK    5  A    between atoms: C_10  and  S_13
REMARK    6  A    between atoms: S_13  and  N_16
REMARK    7  A    between atoms: C_18  and  C_20
REMARK    8  A    between atoms: C_20  and  N_56
REMARK    9  A    between atoms: C_21  and  N_56
REMARK   10  A    between atoms: C_22  and  C_23
REMARK   11  A    between atoms: C_22  and  N_56
REMARK   12  A    between atoms: C_25  and  N_30
REMARK                            x       y       z     vdW  Elec       q    Type
REMARK                         _______ _______ _______ _____ _____    ______ ____
ROOT
ATOM      1  C   UNL     1      -5.303   4.624   3.429  0.00  0.00    +0.064 C 
ATOM      2  C   UNL     1      -4.365   4.618   4.608  0.00  0.00    +0.022 A 
ATOM      3  C   UNL     1      -4.734   4.697   5.897  0.00  0.00    +0.034 A 
ATOM      4  C   UNL     1      -3.495   4.662   6.687  0.00  0.00    +0.037 A 
ATOM      5  C   UNL     1      -2.465   4.556   5.771  0.00  0.00    +0.031 A 
ATOM      6  N   UNL     1      -3.003   4.528   4.536  0.00  0.00    -0.317 N 
ATOM      7  C   UNL     1      -0.996   4.485   6.098  0.00  0.00    +0.064 C 
ENDROOT
BRANCH   6   8
ATOM      8  C   UNL     1      -2.269   4.427   3.346  0.00  0.00    +0.047 A 
ATOM      9  C   UNL     1      -2.401   3.303   2.541  0.00  0.00    +0.028 A 
ATOM     10  C   UNL     1      -1.676   3.206   1.370  0.00  0.00    +0.030 A 
ATOM     11  C   UNL     1      -0.820   4.226   0.998  0.00  0.00    +0.105 A 
ATOM     12  C   UNL     1      -0.682   5.344   1.800  0.00  0.00    +0.030 A 
ATOM     13  C   UNL     1      -1.409   5.449   2.970  0.00  0.00    +0.028 A 
BRANCH  11  14
ATOM     14  S   UNL     1       0.103   4.098  -0.498  0.00  0.00    +0.056 S 
ATOM     15  O   UNL     1       0.212   2.712  -0.791  0.00  0.00    -0.153 OA
ATOM     16  O   UNL     1       1.240   4.937  -0.346  0.00  0.00    -0.153 OA
BRANCH  14  17
ATOM     17  N   UNL     1      -0.820   4.765  -1.701  0.00  0.00    -0.204 NA
ATOM     18  H   UNL     1      -1.695   5.129  -1.495  0.00  0.00    +0.144 HD
ATOM     19  H   UNL     1      -0.484   4.792  -2.611  0.00  0.00    +0.144 HD
ENDBRANCH  14  17
ENDBRANCH  11  14
ENDBRANCH   6   8
BRANCH   4  20
ATOM     20  C   UNL     1      -3.377   4.726   8.145  0.00  0.00    +0.149 C 
ATOM     21  O   UNL     1      -2.282   4.687   8.666  0.00  0.00    -0.294 OA
BRANCH  20  22
ATOM     22  C   UNL     1      -4.614   4.841   8.997  0.00  0.00    +0.002 C 
BRANCH  22  24
ATOM     23  C   UNL     1      -3.630   3.616  10.839  0.00  0.00    -0.095 C 
ATOM     24  N   UNL     1      -4.210   4.908  10.417  0.00  0.00    +0.385 N 
ATOM     25  H   UNL     1      -3.503   5.644  10.528  0.00  0.00    -0.081 HD
BRANCH  24  26
ATOM     26  C   UNL     1      -5.380   5.235  11.260  0.00  0.00    -0.041 C 
BRANCH  26  27
ATOM     27  C   UNL     1      -4.892   5.654  12.623  0.00  0.00    -0.043 A 
ATOM     28  C   UNL     1      -5.035   4.800  13.701  0.00  0.00    +0.036 A 
ATOM     29  C   UNL     1      -4.582   5.181  14.950  0.00  0.00    +0.126 A 
ATOM     30  C   UNL     1      -3.997   6.421  15.125  0.00  0.00    +0.034 A 
ATOM     31  C   UNL     1      -3.858   7.278  14.049  0.00  0.00    +0.022 A 
ATOM     32  C   UNL     1      -4.306   6.895  12.797  0.00  0.00    +0.042 A 
ATOM     33 CL   UNL     1      -4.132   7.971  11.446  0.00  0.00    -0.083 Cl
BRANCH  29  34
ATOM     34  N   UNL     1      -4.731   4.265  16.102  0.00  0.00    +0.056 N 
ATOM     35  O   UNL     1      -4.337   4.603  17.204  0.00  0.00    -0.126 OA
ATOM     36  O   UNL     1      -5.247   3.172  15.949  0.00  0.00    -0.126 OA
ENDBRANCH  29  34
ENDBRANCH  26  27
ENDBRANCH  24  26
ENDBRANCH  22  24
ENDBRANCH  20  22
ENDBRANCH   4  20
TORSDOF 9
