REMARK  Name = ZINC25763805
REMARK  6 active torsions:
REMARK  status: ('A' for Active; 'I' for Inactive)
REMARK    1  A    between atoms: C_1  and  C_2
REMARK    2  A    between atoms: C_5  and  S_8
REMARK    3  A    between atoms: S_8  and  N_11
REMARK    4  A    between atoms: C_14  and  C_17
REMARK    5  A    between atoms: N_19  and  N_20
REMARK    6  A    between atoms: C_24  and  N_31
REMARK                            x       y       z     vdW  Elec       q    Type
REMARK                         _______ _______ _______ _____ _____    ______ ____
ROOT
ATOM      1  C   UNL     1       4.498  -8.132  -0.077  0.00  0.00    +0.235 C 
ATOM      2  O   UNL     1       4.276  -8.894  -0.994  0.00  0.00    -0.274 OA
ATOM      3  N   UNL     1       5.316  -8.505   0.927  0.00  0.00    -0.206 N 
ATOM      4  H   UNL     1       5.493  -7.895   1.660  0.00  0.00    +0.177 HD
ENDROOT
BRANCH   3   5
ATOM      5  N   UNL     1       5.910  -9.773   0.912  0.00  0.00    -0.175 NA
ATOM      6  C   UNL     1       6.706 -10.136   1.888  0.00  0.00    +0.153 C 
ATOM      7  C   UNL     1       7.423 -11.424   2.037  0.00  0.00    +0.030 A 
ATOM      8  C   UNL     1       7.484 -12.575   1.260  0.00  0.00    +0.044 A 
ATOM      9  C   UNL     1       8.259 -13.640   1.672  0.00  0.00    +0.127 A 
ATOM     10  C   UNL     1       8.973 -13.561   2.856  0.00  0.00    +0.034 A 
ATOM     11  C   UNL     1       8.919 -12.422   3.635  0.00  0.00    +0.026 A 
ATOM     12  C   UNL     1       8.143 -11.339   3.235  0.00  0.00    +0.043 A 
ATOM     13  N   UNL     1       7.917 -10.099   3.821  0.00  0.00    -0.280 N 
ATOM     14  C   UNL     1       7.089  -9.347   3.077  0.00  0.00    +0.269 C 
ATOM     15  O   UNL     1       6.718  -8.217   3.337  0.00  0.00    -0.268 OA
ATOM     16  H   UNL     1       8.311  -9.811   4.660  0.00  0.00    +0.155 HD
BRANCH   9  17
ATOM     17  N   UNL     1       8.328 -14.868   0.849  0.00  0.00    +0.056 N 
ATOM     18  O   UNL     1       7.705 -14.938  -0.185  0.00  0.00    -0.126 OA
ATOM     19  O   UNL     1       9.007 -15.800   1.209  0.00  0.00    -0.126 OA
ENDBRANCH   9  17
ENDBRANCH   3   5
BRANCH   1  23
ATOM     20  N   UNL     1       1.651  -4.999  -0.034  0.00  0.00    -0.177 NA
ATOM     21  C   UNL     1       2.364  -5.199  -1.304  0.00  0.00    +0.110 C 
ATOM     22  C   UNL     1       2.984  -6.599  -1.306  0.00  0.00    +0.030 C 
ATOM     23  C   UNL     1       3.858  -6.767  -0.061  0.00  0.00    +0.079 C 
ATOM     24  C   UNL     1       2.995  -6.624   1.194  0.00  0.00    +0.030 C 
ATOM     25  C   UNL     1       2.376  -5.218   1.225  0.00  0.00    +0.110 C 
BRANCH  20  26
ATOM     26  S   UNL     1       0.063  -4.530  -0.023  0.00  0.00    +0.061 S 
ATOM     27  O   UNL     1      -0.476  -4.950   1.223  0.00  0.00    -0.153 OA
ATOM     28  O   UNL     1      -0.490  -4.937  -1.267  0.00  0.00    -0.153 OA
BRANCH  26  33
ATOM     29  C   UNL     1      -0.018   1.503   0.010  0.00  0.00    +0.044 C 
ATOM     30  C   UNL     1       0.002  -0.004   0.002  0.00  0.00    -0.050 A 
ATOM     31  C   UNL     1       0.006  -0.689  -1.199  0.00  0.00    +0.005 A 
ATOM     32  C   UNL     1       0.025  -2.071  -1.206  0.00  0.00    +0.029 A 
ATOM     33  C   UNL     1       0.040  -2.768  -0.013  0.00  0.00    +0.105 A 
ATOM     34  C   UNL     1       0.037  -2.084   1.188  0.00  0.00    +0.029 A 
ATOM     35  C   UNL     1       0.023  -0.702   1.195  0.00  0.00    +0.005 A 
ENDBRANCH  26  33
ENDBRANCH  20  26
ENDBRANCH   1  23
TORSDOF 5
