REMARK  Name = ZINC38650792
REMARK  11 active torsions:
REMARK  status: ('A' for Active; 'I' for Inactive)
REMARK    1  A    between atoms: C_1  and  C_2
REMARK    2  A    between atoms: C_2  and  C_3
REMARK    3  A    between atoms: C_3  and  C_4
REMARK    4  A    between atoms: C_4  and  O_5
REMARK    5  A    between atoms: O_5  and  C_6
REMARK    6  A    between atoms: C_9  and  C_12
REMARK    7  A    between atoms: C_17  and  O_26
REMARK    8  A    between atoms: C_21  and  N_25
REMARK    9  A    between atoms: C_22  and  C_23
REMARK   10  A    between atoms: O_26  and  C_27
REMARK   11  A    between atoms: C_27  and  C_29
REMARK                            x       y       z     vdW  Elec       q    Type
REMARK                         _______ _______ _______ _____ _____    ______ ____
ROOT
ATOM      1  C   UNL     1       1.795  -8.085  -3.080  0.00  0.00    +0.098 C 
ATOM      2  C   UNL     1       1.121  -8.482  -4.366  0.00  0.00    +0.008 A 
ATOM      3  C   UNL     1      -0.254  -8.640  -4.393  0.00  0.00    +0.012 A 
ATOM      4  C   UNL     1      -0.890  -9.004  -5.564  0.00  0.00    +0.047 A 
ATOM      5  C   UNL     1      -0.149  -9.213  -6.719  0.00  0.00    +0.135 A 
ATOM      6  C   UNL     1       1.227  -9.055  -6.696  0.00  0.00    +0.093 A 
ATOM      7  C   UNL     1       1.865  -8.689  -5.517  0.00  0.00    +0.138 A 
ATOM      8  O   UNL     1       3.212  -8.539  -5.511  0.00  0.00    -0.441 OA
ATOM      9  C   UNL     1       3.884  -8.571  -4.348  0.00  0.00    +0.199 C 
ATOM     10  C   UNL     1       3.270  -8.364  -3.163  0.00  0.00    +0.098 C 
ENDROOT
BRANCH   1  14
ATOM     11  C   UNL     1       1.179  -3.914  -2.386  0.00  0.00    +0.121 A 
ATOM     12  C   UNL     1       0.717  -4.847  -1.468  0.00  0.00    +0.046 A 
ATOM     13  C   UNL     1       0.917  -6.195  -1.695  0.00  0.00    +0.008 A 
ATOM     14  C   UNL     1       1.578  -6.614  -2.835  0.00  0.00    -0.034 A 
ATOM     15  C   UNL     1       2.039  -5.687  -3.751  0.00  0.00    +0.008 A 
ATOM     16  C   UNL     1       1.836  -4.338  -3.531  0.00  0.00    +0.046 A 
BRANCH  11  17
ATOM     17  O   UNL     1       0.983  -2.587  -2.165  0.00  0.00    -0.492 OA
BRANCH  17  18
ATOM     18  C   UNL     1       0.298  -2.224  -0.965  0.00  0.00    +0.229 C 
BRANCH  18  19
ATOM     19  C   UNL     1       0.172  -0.701  -0.891  0.00  0.00    +0.041 C 
BRANCH  19  21
ATOM     20  C   UNL     1      -0.686   1.212   0.469  0.00  0.00    +0.004 C 
ATOM     21  C   UNL     1      -0.560  -0.311   0.395  0.00  0.00    -0.000 C 
ENDBRANCH  19  21
ENDBRANCH  18  19
ENDBRANCH  17  18
ENDBRANCH  11  17
ENDBRANCH   1  14
BRANCH   9  22
ATOM     22  N   UNL     1       5.234  -8.822  -4.365  0.00  0.00    -0.328 N 
ATOM     23  H   UNL     1       5.688  -8.973  -5.209  0.00  0.00    +0.145 HD
ATOM     24  H   UNL     1       5.733  -8.849  -3.534  0.00  0.00    +0.145 HD
ENDBRANCH   9  22
BRANCH  10  25
ATOM     25  C   UNL     1       4.044  -8.410  -1.959  0.00  0.00    +0.101 C 
ATOM     26  N   UNL     1       4.657  -8.447  -1.004  0.00  0.00    -0.191 NA
ENDBRANCH  10  25
BRANCH   5  27
ATOM     27  O   UNL     1      -0.773  -9.571  -7.872  0.00  0.00    -0.422 OA
BRANCH  27  28
ATOM     28  C   UNL     1      -1.554  -8.656  -8.480  0.00  0.00    +0.346 C 
ATOM     29  O   UNL     1      -1.600  -7.519  -8.055  0.00  0.00    -0.244 OA
BRANCH  28  30
ATOM     30  C   UNL     1      -2.352  -9.036  -9.662  0.00  0.00    +0.078 A 
ATOM     31  C   UNL     1      -2.305 -10.344 -10.150  0.00  0.00    +0.018 A 
ATOM     32  C   UNL     1      -3.052 -10.692 -11.254  0.00  0.00    +0.021 A 
ATOM     33  C   UNL     1      -3.849  -9.748 -11.882  0.00  0.00    +0.042 A 
ATOM     34  C   UNL     1      -3.901  -8.449 -11.405  0.00  0.00    +0.040 A 
ATOM     35  C   UNL     1      -3.162  -8.089 -10.295  0.00  0.00    +0.056 A 
ATOM     36 CL   UNL     1      -3.234  -6.462  -9.693  0.00  0.00    -0.083 Cl
ATOM     37 CL   UNL     1      -4.786 -10.195 -13.273  0.00  0.00    -0.083 Cl
ENDBRANCH  28  30
ENDBRANCH  27  28
ENDBRANCH   5  27
TORSDOF 10
