REMARK  Name = ZINC36603417
REMARK  16 active torsions:
REMARK  status: ('A' for Active; 'I' for Inactive)
REMARK    1  A    between atoms: C_1  and  C_2
REMARK    2  A    between atoms: C_5  and  C_7
REMARK    3  A    between atoms: C_7  and  N_8
REMARK    4  A    between atoms: N_8  and  C_9
REMARK    5  A    between atoms: C_9  and  C_11
REMARK    6  A    between atoms: C_9  and  C_20
REMARK    7  A    between atoms: N_22  and  C_23
REMARK    8  A    between atoms: C_23  and  C_24
REMARK    9  A    between atoms: C_23  and  C_25
REMARK   10  A    between atoms: C_23  and  C_26
REMARK   11  A    between atoms: C_26  and  C_27
REMARK   12  A    between atoms: C_27  and  C_28
REMARK   13  A    between atoms: C_27  and  C_29
REMARK   14  A    between atoms: C_27  and  C_30
REMARK   15  A    between atoms: C_31  and  C_33
REMARK   16  A    between atoms: C_33  and  C_34
REMARK                            x       y       z     vdW  Elec       q    Type
REMARK                         _______ _______ _______ _____ _____    ______ ____
ROOT
ATOM      1  C   UNL     1       4.460  -3.490  -3.013  0.00  0.00    +0.193 C 
ENDROOT
BRANCH   1   2
ATOM      2  C   UNL     1       3.725  -2.193  -3.234  0.00  0.00    -0.015 A 
ATOM      3  C   UNL     1       2.762  -1.783  -2.330  0.00  0.00    +0.010 A 
ATOM      4  C   UNL     1       2.085  -0.594  -2.529  0.00  0.00    +0.050 A 
ATOM      5  C   UNL     1       2.370   0.190  -3.635  0.00  0.00    +0.166 A 
ATOM      6  C   UNL     1       3.340  -0.223  -4.545  0.00  0.00    +0.167 A 
ATOM      7  C   UNL     1       4.019  -1.413  -4.337  0.00  0.00    +0.055 A 
ATOM      8  O   UNL     1       3.434   0.711  -5.536  0.00  0.00    -0.453 OA
ATOM      9  C   UNL     1       2.230   1.494  -5.442  0.00  0.00    +0.466 C 
ATOM     10  O   UNL     1       1.857   1.383  -4.056  0.00  0.00    -0.453 OA
ENDBRANCH   1   2
BRANCH   1  11
ATOM     11  C   UNL     1       5.450  -3.320  -1.889  0.00  0.00    +0.239 C 
ATOM     12  O   UNL     1       5.251  -3.858  -0.820  0.00  0.00    -0.273 OA
ATOM     13  N   UNL     1       6.555  -2.571  -2.071  0.00  0.00    -0.308 N 
ATOM     14  H   UNL     1       6.714  -2.142  -2.926  0.00  0.00    +0.149 HD
BRANCH  13  15
ATOM     15  C   UNL     1       7.517  -2.407  -0.979  0.00  0.00    +0.030 C 
ATOM     16  C   UNL     1       6.948  -1.439   0.061  0.00  0.00    +0.031 C 
ATOM     17  C   UNL     1       7.780  -3.764  -0.322  0.00  0.00    +0.031 C 
BRANCH  15  18
ATOM     18  C   UNL     1       8.828  -1.847  -1.533  0.00  0.00    +0.031 C 
BRANCH  18  19
ATOM     19  C   UNL     1       9.116  -2.477  -2.897  0.00  0.00    -0.036 C 
ATOM     20  C   UNL     1       8.318  -1.742  -3.977  0.00  0.00    +0.010 C 
ATOM     21  C   UNL     1      10.610  -2.368  -3.205  0.00  0.00    +0.010 C 
ATOM     22  C   UNL     1       8.706  -3.951  -2.875  0.00  0.00    +0.010 C 
ENDBRANCH  18  19
ENDBRANCH  15  18
ENDBRANCH  13  15
ENDBRANCH   1  11
BRANCH   1  23
ATOM     23  N   UNL     1       3.502  -4.541  -2.665  0.00  0.00    -0.278 N 
ATOM     24  C   UNL     1       2.413  -4.742  -3.434  0.00  0.00    +0.221 C 
ATOM     25  O   UNL     1       2.227  -4.051  -4.413  0.00  0.00    -0.275 OA
BRANCH  23  26
ATOM     26  C   UNL     1       3.727  -5.376  -1.482  0.00  0.00    +0.183 C 
BRANCH  26  31
ATOM     27  C   UNL     1       2.450  -2.585   2.521  0.00  0.00    +0.086 C 
ATOM     28  C   UNL     1       2.384  -3.611   1.419  0.00  0.00    +0.102 A 
ATOM     29  C   UNL     1       1.360  -4.453   1.188  0.00  0.00    +0.045 A 
ATOM     30  C   UNL     1       1.718  -5.235   0.066  0.00  0.00    +0.046 A 
ATOM     31  C   UNL     1       2.939  -4.825  -0.322  0.00  0.00    +0.122 A 
ATOM     32  O   UNL     1       3.335  -3.837   0.498  0.00  0.00    -0.463 OA
ENDBRANCH  26  31
ENDBRANCH  23  26
BRANCH  24  33
ATOM     33  C   UNL     1       1.427  -5.824  -3.076  0.00  0.00    +0.131 C 
BRANCH  33  34
ATOM     34  C   UNL     1       0.309  -5.839  -4.088  0.00  0.00    -0.039 A 
ATOM     35  C   UNL     1      -0.816  -5.061  -3.886  0.00  0.00    +0.004 A 
ATOM     36  C   UNL     1      -1.841  -5.075  -4.814  0.00  0.00    +0.000 A 
ATOM     37  C   UNL     1      -1.740  -5.867  -5.943  0.00  0.00    +0.000 A 
ATOM     38  C   UNL     1      -0.615  -6.644  -6.144  0.00  0.00    +0.000 A 
ATOM     39  C   UNL     1       0.411  -6.627  -5.219  0.00  0.00    +0.004 A 
ENDBRANCH  33  34
ENDBRANCH  24  33
ENDBRANCH   1  23
TORSDOF 10
