REMARK  Name = ZINC35580012
REMARK  10 active torsions:
REMARK  status: ('A' for Active; 'I' for Inactive)
REMARK    1  A    between atoms: C_1  and  C_2
REMARK    2  A    between atoms: N_7  and  C_9
REMARK    3  A    between atoms: C_12  and  C_18
REMARK    4  A    between atoms: C_14  and  N_15
REMARK    5  A    between atoms: N_20  and  C_21
REMARK    6  A    between atoms: C_21  and  C_22
REMARK    7  A    between atoms: C_22  and  C_24
REMARK    8  A    between atoms: C_22  and  N_29
REMARK    9  A    between atoms: N_29  and  C_30
REMARK   10  A    between atoms: N_29  and  C_31
REMARK                            x       y       z     vdW  Elec       q    Type
REMARK                         _______ _______ _______ _____ _____    ______ ____
ROOT
ATOM      1  C   UNL     1       1.870  -2.514   1.065  0.00  0.00    +0.060 A 
ATOM      2  C   UNL     1       2.607  -2.926  -0.043  0.00  0.00    +0.026 A 
ATOM      3  C   UNL     1       3.669  -3.786   0.118  0.00  0.00    +0.015 A 
ATOM      4  C   UNL     1       4.009  -4.245   1.394  0.00  0.00    +0.039 A 
ATOM      5  C   UNL     1       3.267  -3.829   2.503  0.00  0.00    +0.047 A 
ATOM      6  C   UNL     1       2.209  -2.965   2.337  0.00  0.00    +0.148 A 
ENDROOT
BRANCH   1  12
ATOM      7  C   UNL     1       0.491   1.960  -0.218  0.00  0.00    +0.009 C 
ATOM      8  C   UNL     1       0.414   0.435  -0.317  0.00  0.00    +0.003 C 
ATOM      9  C   UNL     1      -1.048   0.007  -0.468  0.00  0.00    +0.006 C 
ATOM     10  C   UNL     1      -1.123  -1.516  -0.600  0.00  0.00    +0.019 C 
ATOM     11  C   UNL     1      -0.557  -2.164   0.668  0.00  0.00    +0.105 C 
ATOM     12  N   UNL     1       0.797  -1.645   0.899  0.00  0.00    -0.328 N 
ATOM     13  C   UNL     1       0.998  -0.190   0.953  0.00  0.00    +0.108 C 
ENDBRANCH   1  12
BRANCH   4  14
ATOM     14  C   UNL     1       5.147  -5.167   1.569  0.00  0.00    +0.244 C 
ATOM     15  O   UNL     1       5.441  -5.565   2.680  0.00  0.00    -0.270 OA
ATOM     16  N   UNL     1       5.861  -5.568   0.498  0.00  0.00    -0.313 N 
ATOM     17  H   UNL     1       5.626  -5.250  -0.387  0.00  0.00    +0.149 HD
BRANCH  16  18
ATOM     18  C   UNL     1       6.991  -6.483   0.673  0.00  0.00    +0.094 C 
BRANCH  18  19
ATOM     19  C   UNL     1       7.553  -6.866  -0.698  0.00  0.00    -0.014 C 
BRANCH  19  20
ATOM     20  C   UNL     1       8.117  -5.641  -1.370  0.00  0.00    -0.022 A 
ATOM     21  C   UNL     1       7.557  -4.856  -2.323  0.00  0.00    +0.009 A 
ATOM     22  C   UNL     1       8.267  -3.770  -2.798  0.00  0.00    +0.008 A 
ATOM     23  C   UNL     1       9.502  -3.521  -2.298  0.00  0.00    +0.045 A 
ATOM     24  S   UNL     1       9.692  -4.842  -1.112  0.00  0.00    -0.103 S 
ENDBRANCH  19  20
BRANCH  19  25
ATOM     25  N   UNL     1       8.616  -7.865  -0.529  0.00  0.00    +0.382 N 
ATOM     26  C   UNL     1       8.059  -9.073   0.095  0.00  0.00    -0.096 C 
ATOM     27  C   UNL     1       9.179  -8.208  -1.843  0.00  0.00    -0.096 C 
ATOM     28  H   UNL     1       9.343  -7.487   0.059  0.00  0.00    -0.082 HD
ENDBRANCH  19  25
ENDBRANCH  18  19
ENDBRANCH  16  18
ENDBRANCH   4  14
BRANCH   6  29
ATOM     29  N   UNL     1       1.427  -2.519   3.512  0.00  0.00    +0.058 N 
ATOM     30  O   UNL     1       1.720  -2.910   4.618  0.00  0.00    -0.126 OA
ATOM     31  O   UNL     1       0.494  -1.764   3.366  0.00  0.00    -0.126 OA
ENDBRANCH   6  29
TORSDOF 7
