REMARK  Name = ZINC64983887
REMARK  3 active torsions:
REMARK  status: ('A' for Active; 'I' for Inactive)
REMARK    1  A    between atoms: C_6  and  C_7
REMARK    2  A    between atoms: N_14  and  S_15
REMARK    3  A    between atoms: S_15  and  C_18
REMARK                            x       y       z     vdW  Elec       q    Type
REMARK                         _______ _______ _______ _____ _____    ______ ____
ROOT
ATOM      1  C   UNL     1      -1.344  -0.960   0.178  0.00  0.00    +0.110 C 
ATOM      2  C   UNL     1      -1.720  -1.782   1.435  0.00  0.00    +0.025 C 
ATOM      3  C   UNL     1      -3.110  -2.253   1.341  0.00  0.00    +0.002 C 
ATOM      4  C   UNL     1      -3.375  -3.202   0.176  0.00  0.00    +0.001 C 
ATOM      5  C   UNL     1      -3.661  -2.399  -1.069  0.00  0.00    +0.017 C 
ATOM      6  C   UNL     1      -2.358  -2.155  -1.852  0.00  0.00    +0.110 C 
ATOM      7  N   UNL     1      -1.223  -1.844  -0.961  0.00  0.00    -0.169 NA
ENDROOT
BRANCH   1  13
ATOM      8  C   UNL     1       0.355   0.779  -0.416  0.00  0.00    +0.006 A 
ATOM      9  C   UNL     1       1.560   1.422  -0.203  0.00  0.00    +0.020 A 
ATOM     10  C   UNL     1       2.381   1.026   0.838  0.00  0.00    +0.041 A 
ATOM     11  C   UNL     1       1.995  -0.015   1.665  0.00  0.00    +0.020 A 
ATOM     12  C   UNL     1       0.790  -0.657   1.450  0.00  0.00    +0.006 A 
ATOM     13  C   UNL     1      -0.030  -0.260   0.410  0.00  0.00    -0.029 A 
ATOM     14 CL   UNL     1       3.894   1.833   1.106  0.00  0.00    -0.084 Cl
ENDBRANCH   1  13
BRANCH   7  15
ATOM     15  S   UNL     1       0.248  -2.533  -1.278  0.00  0.00    +0.061 S 
ATOM     16  O   UNL     1       0.199  -2.995  -2.621  0.00  0.00    -0.153 OA
ATOM     17  O   UNL     1       1.233  -1.615  -0.824  0.00  0.00    -0.153 OA
BRANCH  15  18
ATOM     18  C   UNL     1       0.384  -3.964  -0.258  0.00  0.00    +0.106 A 
ATOM     19  C   UNL     1       0.930  -3.860   1.008  0.00  0.00    +0.031 A 
ATOM     20  C   UNL     1       1.036  -4.981   1.809  0.00  0.00    +0.040 A 
ATOM     21  C   UNL     1       0.597  -6.208   1.343  0.00  0.00    +0.124 A 
ATOM     22  C   UNL     1       0.051  -6.311   0.075  0.00  0.00    +0.040 A 
ATOM     23  C   UNL     1      -0.060  -5.188  -0.723  0.00  0.00    +0.031 A 
ATOM     24  F   UNL     1       0.701  -7.305   2.125  0.00  0.00    -0.205 F 
ENDBRANCH  15  18
ENDBRANCH   7  15
TORSDOF 3
