REMARK  Name = ZINC12552448
REMARK  7 active torsions:
REMARK  status: ('A' for Active; 'I' for Inactive)
REMARK    1  A    between atoms: C_4  and  N_7
REMARK    2  A    between atoms: N_7  and  S_8
REMARK    3  A    between atoms: S_8  and  C_11
REMARK    4  A    between atoms: C_14  and  C_17
REMARK    5  A    between atoms: N_19  and  C_20
REMARK    6  A    between atoms: C_20  and  C_21
REMARK    7  A    between atoms: N_23  and  C_24
REMARK                            x       y       z     vdW  Elec       q    Type
REMARK                         _______ _______ _______ _____ _____    ______ ____
ROOT
ATOM      1  C   UNL     1      -6.894  -1.602  -0.001  0.00  0.00    +0.109 A 
ATOM      2  C   UNL     1      -7.200  -0.253   0.027  0.00  0.00    +0.029 A 
ATOM      3  C   UNL     1      -6.192   0.685   0.113  0.00  0.00    +0.015 A 
ATOM      4  C   UNL     1      -4.860   0.270   0.171  0.00  0.00    +0.037 A 
ATOM      5  C   UNL     1      -4.558  -1.092   0.136  0.00  0.00    +0.015 A 
ATOM      6  C   UNL     1      -5.576  -2.019   0.056  0.00  0.00    +0.029 A 
ENDROOT
BRANCH   4   7
ATOM      7  C   UNL     1      -3.775   1.270   0.262  0.00  0.00    +0.244 C 
ATOM      8  O   UNL     1      -4.041   2.456   0.287  0.00  0.00    -0.270 OA
ATOM      9  N   UNL     1      -2.490   0.866   0.318  0.00  0.00    -0.303 N 
ATOM     10  H   UNL     1      -2.278  -0.080   0.298  0.00  0.00    +0.150 HD
BRANCH   9  11
ATOM     11  C   UNL     1      -1.414   1.857   0.408  0.00  0.00    +0.200 C 
BRANCH  11  12
ATOM     12  C   UNL     1      -0.084   1.151   0.456  0.00  0.00    +0.234 C 
ATOM     13  O   UNL     1      -0.039  -0.061   0.419  0.00  0.00    -0.274 OA
ATOM     14  N   UNL     1       1.056   1.865   0.535  0.00  0.00    -0.283 N 
ATOM     15  H   UNL     1       1.024   2.834   0.505  0.00  0.00    +0.155 HD
BRANCH  14  16
ATOM     16  C   UNL     1       2.286   1.209   0.661  0.00  0.00    +0.053 A 
ATOM     17  C   UNL     1       2.487  -0.016   0.041  0.00  0.00    +0.044 A 
ATOM     18  C   UNL     1       3.705  -0.659   0.163  0.00  0.00    +0.043 A 
ATOM     19  C   UNL     1       4.719  -0.087   0.912  0.00  0.00    +0.021 A 
ATOM     20  C   UNL     1       4.520   1.131   1.535  0.00  0.00    +0.023 A 
ATOM     21  C   UNL     1       3.306   1.781   1.412  0.00  0.00    +0.062 A 
ATOM     22 CL   UNL     1       3.057   3.310   2.195  0.00  0.00    -0.082 Cl
ATOM     23 CL   UNL     1       3.960  -2.189  -0.617  0.00  0.00    -0.083 Cl
ENDBRANCH  14  16
ENDBRANCH  11  12
ENDBRANCH   9  11
ENDBRANCH   4   7
BRANCH   1  24
ATOM     24  S   UNL     1      -8.187  -2.793  -0.110  0.00  0.00    +0.072 S 
ATOM     25  O   UNL     1      -7.712  -3.969   0.531  0.00  0.00    -0.150 OA
ATOM     26  O   UNL     1      -9.381  -2.135   0.293  0.00  0.00    -0.150 OA
BRANCH  24  27
ATOM     27  N   UNL     1      -8.372  -3.170  -1.712  0.00  0.00    -0.216 N 
ATOM     28  H   UNL     1      -9.205  -2.965  -2.165  0.00  0.00    +0.174 HD
BRANCH  27  32
ATOM     29  C   UNL     1      -5.262  -4.994  -3.794  0.00  0.00    +0.000 A 
ATOM     30  C   UNL     1      -6.016  -5.729  -2.897  0.00  0.00    +0.002 A 
ATOM     31  C   UNL     1      -7.048  -5.127  -2.204  0.00  0.00    +0.024 A 
ATOM     32  C   UNL     1      -7.329  -3.782  -2.410  0.00  0.00    +0.048 A 
ATOM     33  C   UNL     1      -6.573  -3.048  -3.316  0.00  0.00    +0.024 A 
ATOM     34  C   UNL     1      -5.539  -3.655  -4.002  0.00  0.00    +0.002 A 
ENDBRANCH  27  32
ENDBRANCH  24  27
ENDBRANCH   1  24
TORSDOF 7
