REMARK  Name = ZINC35808803
REMARK  7 active torsions:
REMARK  status: ('A' for Active; 'I' for Inactive)
REMARK    1  A    between atoms: C_1  and  C_2
REMARK    2  A    between atoms: C_2  and  C_3
REMARK    3  A    between atoms: C_2  and  C_4
REMARK    4  A    between atoms: C_2  and  N_5
REMARK    5  A    between atoms: C_26  and  C_28
REMARK    6  A    between atoms: C_28  and  C_30
REMARK    7  A    between atoms: C_28  and  O_37
REMARK                            x       y       z     vdW  Elec       q    Type
REMARK                         _______ _______ _______ _____ _____    ______ ____
ROOT
ATOM      1  N   UNL     1       0.688  -0.476  -1.203  0.00  0.00    -0.236 N 
ATOM      2  C   UNL     1       0.096  -1.263  -2.151  0.00  0.00    +0.228 C 
ATOM      3  O   UNL     1      -0.938  -1.885  -2.037  0.00  0.00    -0.275 OA
ATOM      4  C   UNL     1       0.979  -1.202  -3.357  0.00  0.00    +0.110 C 
ATOM      5  C   UNL     1       2.344  -1.059  -2.585  0.00  0.00    +0.123 C 
ATOM      6  C   UNL     1       1.992  -0.171  -1.504  0.00  0.00    +0.229 C 
ATOM      7  O   UNL     1       2.695   0.662  -0.974  0.00  0.00    -0.275 OA
ATOM      8  C   UNL     1       3.353  -1.248  -3.627  0.00  0.00    +0.136 C 
ATOM      9  C   UNL     1       4.659  -1.824  -3.141  0.00  0.00    +0.006 A 
ATOM     10  C   UNL     1       4.979  -2.955  -2.423  0.00  0.00    +0.046 A 
ATOM     11  C   UNL     1       6.302  -3.230  -2.119  0.00  0.00    +0.124 A 
ATOM     12  C   UNL     1       7.298  -2.364  -2.539  0.00  0.00    +0.040 A 
ATOM     13  C   UNL     1       6.979  -1.230  -3.256  0.00  0.00    +0.026 A 
ATOM     14  C   UNL     1       5.651  -0.948  -3.566  0.00  0.00    +0.039 A 
ATOM     15  N   UNL     1       5.084   0.118  -4.270  0.00  0.00    -0.283 N 
ATOM     16  C   UNL     1       3.745   0.018  -4.352  0.00  0.00    +0.243 C 
ATOM     17  O   UNL     1       2.996   0.796  -4.903  0.00  0.00    -0.273 OA
ATOM     18  F   UNL     1       6.620  -4.338  -1.415  0.00  0.00    -0.205 F 
ATOM     19  N   UNL     1       2.733  -2.197  -4.604  0.00  0.00    -0.293 NA
ATOM     20  C   UNL     1       1.311  -2.464  -4.148  0.00  0.00    +0.101 C 
ATOM     21  H   UNL     1       5.597   0.845  -4.655  0.00  0.00    +0.155 HD
ATOM     22  H   UNL     1       2.742  -1.813  -5.537  0.00  0.00    +0.124 HD
ENDROOT
BRANCH   1  24
ATOM     23  C   UNL     1      -0.019   1.526   0.010  0.00  0.00    +0.031 C 
ATOM     24  C   UNL     1       0.002  -0.004   0.002  0.00  0.00    +0.036 C 
ATOM     25  C   UNL     1       0.742  -0.511   1.242  0.00  0.00    +0.031 C 
ATOM     26  C   UNL     1      -1.433  -0.534   0.013  0.00  0.00    +0.031 C 
ENDBRANCH   1  24
BRANCH  20  27
ATOM     27  C   UNL     1       0.370  -2.613  -5.346  0.00  0.00    +0.162 C 
BRANCH  27  28
ATOM     28  C   UNL     1       0.722  -3.865  -6.107  0.00  0.00    -0.018 A 
ATOM     29  C   UNL     1       0.194  -5.082  -5.717  0.00  0.00    +0.007 A 
ATOM     30  C   UNL     1       0.516  -6.231  -6.415  0.00  0.00    +0.020 A 
ATOM     31  C   UNL     1       1.366  -6.163  -7.504  0.00  0.00    +0.041 A 
ATOM     32  C   UNL     1       1.893  -4.945  -7.894  0.00  0.00    +0.020 A 
ATOM     33  C   UNL     1       1.567  -3.796  -7.199  0.00  0.00    +0.007 A 
ATOM     34 CL   UNL     1       1.771  -7.606  -8.381  0.00  0.00    -0.084 Cl
ENDBRANCH  27  28
BRANCH  27  35
ATOM     35  O   UNL     1      -0.979  -2.699  -4.884  0.00  0.00    -0.386 OA
ATOM     36  H   UNL     1      -1.146  -3.448  -4.295  0.00  0.00    +0.210 HD
ENDBRANCH  27  35
ENDBRANCH  20  27
TORSDOF 4
