REMARK  Name = ZINC01384120
REMARK  3 active torsions:
REMARK  status: ('A' for Active; 'I' for Inactive)
REMARK    1  A    between atoms: C_1  and  C_2
REMARK    2  A    between atoms: C_2  and  N_3
REMARK    3  A    between atoms: C_4  and  C_19
REMARK                            x       y       z     vdW  Elec       q    Type
REMARK                         _______ _______ _______ _____ _____    ______ ____
ROOT
ATOM      1  N   UNL     1       0.711  -0.489   1.189  0.00  0.00    -0.274 N 
ATOM      2  C   UNL     1       2.166  -0.715   1.159  0.00  0.00    +0.146 C 
ATOM      3  C   UNL     1       2.808  -1.217   2.434  0.00  0.00    +0.047 C 
ATOM      4  C   UNL     1       2.010  -1.427   3.517  0.00  0.00    +0.052 C 
ATOM      5  C   UNL     1       2.853  -1.914   4.641  0.00  0.00    +0.007 A 
ATOM      6  C   UNL     1       2.565  -2.276   5.946  0.00  0.00    +0.010 A 
ATOM      7  C   UNL     1       3.588  -2.704   6.786  0.00  0.00    +0.001 A 
ATOM      8  C   UNL     1       4.885  -2.770   6.327  0.00  0.00    +0.001 A 
ATOM      9  C   UNL     1       5.184  -2.408   5.016  0.00  0.00    +0.012 A 
ATOM     10  C   UNL     1       4.176  -1.983   4.175  0.00  0.00    +0.031 A 
ATOM     11  C   UNL     1       4.148  -1.534   2.755  0.00  0.00    +0.194 C 
ATOM     12  O   UNL     1       5.104  -1.455   2.007  0.00  0.00    -0.287 OA
ATOM     13  N   UNL     1       0.659  -1.184   3.437  0.00  0.00    -0.268 N 
ATOM     14  C   UNL     1       0.048  -0.735   2.336  0.00  0.00    +0.307 C 
ATOM     15  O   UNL     1      -1.153  -0.546   2.369  0.00  0.00    -0.252 OA
ATOM     16  H   UNL     1       0.118  -1.344   4.227  0.00  0.00    +0.156 HD
ENDROOT
BRANCH   2  17
ATOM     17  C   UNL     1       2.459  -1.713   0.068  0.00  0.00    +0.013 A 
ATOM     18  C   UNL     1       1.453  -2.532  -0.408  0.00  0.00    +0.008 A 
ATOM     19  C   UNL     1       1.721  -3.447  -1.409  0.00  0.00    +0.001 A 
ATOM     20  C   UNL     1       2.996  -3.544  -1.935  0.00  0.00    +0.003 A 
ATOM     21  C   UNL     1       4.003  -2.725  -1.461  0.00  0.00    +0.039 A 
ATOM     22  C   UNL     1       3.734  -1.804  -0.462  0.00  0.00    +0.129 A 
ATOM     23  F   UNL     1       4.717  -1.000  -0.002  0.00  0.00    -0.205 F 
ENDBRANCH   2  17
BRANCH   1  25
ATOM     24  C   UNL     1      -0.019   1.526   0.010  0.00  0.00    +0.024 C 
ATOM     25  C   UNL     1       0.002  -0.004   0.002  0.00  0.00    +0.107 C 
ENDBRANCH   1  25
TORSDOF 2
