REMARK  Name = ZINC09884624
REMARK  7 active torsions:
REMARK  status: ('A' for Active; 'I' for Inactive)
REMARK    1  A    between atoms: C_4  and  C_7
REMARK    2  A    between atoms: C_7  and  O_8
REMARK    3  A    between atoms: O_8  and  C_9
REMARK    4  A    between atoms: C_12  and  C_15
REMARK    5  A    between atoms: C_16  and  C_17
REMARK    6  A    between atoms: C_24  and  C_25
REMARK    7  A    between atoms: C_24  and  N_61
REMARK                            x       y       z     vdW  Elec       q    Type
REMARK                         _______ _______ _______ _____ _____    ______ ____
ROOT
ATOM      1  C   UNL     1      -5.512   4.312   4.713  0.00  0.00    +0.239 C 
ATOM      2  O   UNL     1      -6.238   5.288   4.696  0.00  0.00    -0.271 OA
ATOM      3  N   UNL     1      -4.646   4.098   3.703  0.00  0.00    -0.302 N 
ATOM      4  C   UNL     1      -3.681   2.989   3.758  0.00  0.00    +0.089 C 
ATOM      5  C   UNL     1      -2.284   3.545   3.460  0.00  0.00    -0.059 C 
ATOM      6  C   UNL     1      -3.208   5.444   2.267  0.00  0.00    -0.059 C 
ATOM      7  C   UNL     1      -4.642   4.966   2.515  0.00  0.00    +0.089 C 
ATOM      8  N   UNL     1      -2.324   4.262   2.167  0.00  0.00    +0.385 N 
ATOM      9  H   UNL     1      -2.694   3.630   1.447  0.00  0.00    -0.081 HD
ENDROOT
BRANCH   1  11
ATOM     10  C   UNL     1      -6.513   3.530   6.792  0.00  0.00    +0.013 C 
ATOM     11  C   UNL     1      -5.578   3.371   5.831  0.00  0.00    +0.068 C 
BRANCH  10  15
ATOM     12  C   UNL     1      -6.705   0.801  10.034  0.00  0.00    +0.121 A 
ATOM     13  C   UNL     1      -7.606   1.858   9.963  0.00  0.00    +0.046 A 
ATOM     14  C   UNL     1      -7.547   2.746   8.914  0.00  0.00    +0.011 A 
ATOM     15  C   UNL     1      -6.579   2.584   7.916  0.00  0.00    -0.025 A 
ATOM     16  C   UNL     1      -5.679   1.515   7.988  0.00  0.00    +0.011 A 
ATOM     17  C   UNL     1      -5.742   0.635   9.045  0.00  0.00    +0.046 A 
BRANCH  12  18
ATOM     18  O   UNL     1      -6.767  -0.072  11.071  0.00  0.00    -0.487 OA
BRANCH  18  19
ATOM     19  C   UNL     1      -5.812  -1.136  11.082  0.00  0.00    +0.264 C 
BRANCH  19  23
ATOM     20  C   UNL     1      -6.437  -3.576  14.531  0.00  0.00    +0.000 A 
ATOM     21  C   UNL     1      -7.093  -3.868  13.350  0.00  0.00    +0.000 A 
ATOM     22  C   UNL     1      -6.891  -3.078  12.234  0.00  0.00    +0.007 A 
ATOM     23  C   UNL     1      -6.032  -1.997  12.299  0.00  0.00    -0.010 A 
ATOM     24  C   UNL     1      -5.372  -1.708  13.478  0.00  0.00    +0.007 A 
ATOM     25  C   UNL     1      -5.578  -2.495  14.596  0.00  0.00    +0.000 A 
ENDBRANCH  19  23
ENDBRANCH  18  19
ENDBRANCH  12  18
ENDBRANCH  10  15
ENDBRANCH   1  11
BRANCH   8  26
ATOM     26  C   UNL     1      -0.961   4.682   1.781  0.00  0.00    -0.022 C 
BRANCH  26  27
ATOM     27  C   UNL     1      -0.998   5.211   0.370  0.00  0.00    +0.033 A 
ATOM     28  C   UNL     1      -0.702   6.532   0.108  0.00  0.00    +0.092 A 
ATOM     29  C   UNL     1      -0.741   7.003  -1.205  0.00  0.00    +0.259 A 
ATOM     30  O   UNL     1      -0.480   8.172  -1.443  0.00  0.00    -0.267 OA
ATOM     31  N   UNL     1      -1.072   6.155  -2.224  0.00  0.00    -0.262 N 
ATOM     32  C   UNL     1      -1.154   6.467  -3.559  0.00  0.00    +0.104 A 
ATOM     33  C   UNL     1      -1.490   5.546  -4.462  0.00  0.00    +0.067 A 
ATOM     34  S   UNL     1      -1.726   4.101  -3.440  0.00  0.00    -0.058 S 
ATOM     35  C   UNL     1      -1.351   4.860  -1.874  0.00  0.00    +0.180 A 
ATOM     36  N   UNL     1      -1.321   4.412  -0.644  0.00  0.00    -0.229 NA
ENDBRANCH  26  27
ENDBRANCH   8  26
TORSDOF 7
