REMARK  Name = ZINC40819645
REMARK  4 active torsions:
REMARK  status: ('A' for Active; 'I' for Inactive)
REMARK    1  A    between atoms: C_11  and  C_13
REMARK    2  A    between atoms: C_18  and  N_19
REMARK    3  A    between atoms: C_20  and  C_22
REMARK    4  A    between atoms: C_24  and  N_28
REMARK                            x       y       z     vdW  Elec       q    Type
REMARK                         _______ _______ _______ _____ _____    ______ ____
ROOT
ATOM      1  C   UNL     1       5.057  -2.528   0.312  0.00  0.00    +0.039 A 
ATOM      2  C   UNL     1       5.157  -3.918   0.397  0.00  0.00    +0.013 A 
ATOM      3  C   UNL     1       6.322  -4.549   0.018  0.00  0.00    +0.001 A 
ATOM      4  C   UNL     1       7.397  -3.810  -0.449  0.00  0.00    +0.002 A 
ATOM      5  C   UNL     1       7.314  -2.435  -0.539  0.00  0.00    +0.024 A 
ATOM      6  C   UNL     1       6.146  -1.783  -0.166  0.00  0.00    +0.044 A 
ENDROOT
BRANCH   1  17
ATOM      7  C   UNL     1       0.367   1.513   1.762  0.00  0.00    +0.001 A 
ATOM      8  C   UNL     1       1.490   2.207   1.331  0.00  0.00    +0.002 A 
ATOM      9  C   UNL     1       2.627   1.546   0.963  0.00  0.00    +0.028 A 
ATOM     10  C   UNL     1       2.668   0.149   1.019  0.00  0.00    +0.078 A 
ATOM     11  C   UNL     1       1.526  -0.559   1.458  0.00  0.00    +0.065 A 
ATOM     12  C   UNL     1       0.376   0.137   1.828  0.00  0.00    +0.015 A 
ATOM     13  C   UNL     1       1.594  -2.026   1.508  0.00  0.00    +0.259 A 
ATOM     14  O   UNL     1       0.643  -2.691   1.877  0.00  0.00    -0.267 OA
ATOM     15  N   UNL     1       2.755  -2.611   1.128  0.00  0.00    -0.306 N 
ATOM     16  H   UNL     1       2.837  -3.577   1.148  0.00  0.00    +0.170 HD
ATOM     17  C   UNL     1       3.812  -1.846   0.716  0.00  0.00    +0.143 A 
ATOM     18  N   UNL     1       3.772  -0.539   0.664  0.00  0.00    -0.229 NA
ENDBRANCH   1  17
BRANCH   6  19
ATOM     19  N   UNL     1       6.057  -0.396  -0.262  0.00  0.00    -0.281 N 
ATOM     20  C   UNL     1       7.094   0.374   0.123  0.00  0.00    +0.250 C 
ATOM     21  O   UNL     1       8.139  -0.143   0.470  0.00  0.00    -0.270 OA
ATOM     22  H   UNL     1       5.249   0.016  -0.606  0.00  0.00    +0.155 HD
BRANCH  20  23
ATOM     23  C   UNL     1       6.962   1.846   0.123  0.00  0.00    +0.057 A 
ATOM     24  C   UNL     1       7.992   2.652   0.621  0.00  0.00    +0.038 A 
ATOM     25  C   UNL     1       7.817   4.031   0.597  0.00  0.00    +0.044 A 
ATOM     26  C   UNL     1       6.636   4.555   0.084  0.00  0.00    +0.133 A 
ATOM     27  N   UNL     1       5.686   3.765  -0.377  0.00  0.00    -0.261 NA
ATOM     28  C   UNL     1       5.811   2.454  -0.380  0.00  0.00    +0.123 A 
BRANCH  25  29
ATOM     29  N   UNL     1       8.815   4.879   1.084  0.00  0.00    -0.357 N 
ATOM     30  H   UNL     1       9.637   4.507   1.440  0.00  0.00    +0.142 HD
ATOM     31  H   UNL     1       8.687   5.840   1.064  0.00  0.00    +0.142 HD
ENDBRANCH  25  29
ENDBRANCH  20  23
ENDBRANCH   6  19
TORSDOF 4
