REMARK  Name = ZINC11789397
REMARK  9 active torsions:
REMARK  status: ('A' for Active; 'I' for Inactive)
REMARK    1  A    between atoms: C_1  and  C_2
REMARK    2  A    between atoms: C_3  and  C_4
REMARK    3  A    between atoms: C_4  and  N_5
REMARK    4  A    between atoms: C_8  and  C_12
REMARK    5  A    between atoms: C_8  and  C_20
REMARK    6  A    between atoms: C_12  and  C_13
REMARK    7  A    between atoms: C_13  and  C_14
REMARK    8  A    between atoms: C_25  and  C_26
REMARK    9  A    between atoms: C_25  and  N_66
REMARK                            x       y       z     vdW  Elec       q    Type
REMARK                         _______ _______ _______ _____ _____    ______ ____
ROOT
ATOM      1  N   UNL     1      -1.960   3.879   3.404  0.00  0.00    -0.212 N 
ATOM      2  C   UNL     1      -2.941   4.625   2.860  0.00  0.00    +0.248 C 
ATOM      3  O   UNL     1      -3.936   4.227   2.293  0.00  0.00    -0.273 OA
ATOM      4  C   UNL     1      -2.542   6.067   3.105  0.00  0.00    +0.115 C 
ATOM      5  N   UNL     1      -1.263   5.955   3.827  0.00  0.00    -0.285 N 
ATOM      6  C   UNL     1      -1.009   4.640   3.958  0.00  0.00    +0.310 C 
ATOM      7  O   UNL     1      -0.025   4.194   4.514  0.00  0.00    -0.252 OA
ATOM      8  H   UNL     1      -0.713   6.686   4.148  0.00  0.00    +0.151 HD
ENDROOT
BRANCH   4   9
ATOM      9  C   UNL     1      -2.349   6.805   1.779  0.00  0.00    +0.018 C 
ATOM     10  C   UNL     1      -3.691   6.903   1.048  0.00  0.00    -0.013 C 
ATOM     11  C   UNL     1      -3.481   7.586  -0.305  0.00  0.00    -0.078 C 
ATOM     12  C   UNL     1      -1.212   6.747  -0.443  0.00  0.00    -0.078 C 
ATOM     13  C   UNL     1      -1.354   6.037   0.906  0.00  0.00    -0.013 C 
ATOM     14  N   UNL     1      -2.532   6.784  -1.107  0.00  0.00    +0.384 N 
ATOM     15  H   UNL     1      -2.891   5.826  -1.188  0.00  0.00    -0.081 HD
BRANCH  14  16
ATOM     16  C   UNL     1      -2.399   7.363  -2.460  0.00  0.00    -0.003 C 
BRANCH  16  17
ATOM     17  C   UNL     1      -3.705   7.189  -3.192  0.00  0.00    +0.091 A 
ATOM     18  N   UNL     1      -4.684   8.130  -3.273  0.00  0.00    -0.343 N 
ATOM     19  H   UNL     1      -4.665   9.043  -2.863  0.00  0.00    +0.167 HD
ATOM     20  C   UNL     1      -5.709   7.593  -4.025  0.00  0.00    +0.066 A 
ATOM     21  C   UNL     1      -6.947   8.060  -4.446  0.00  0.00    +0.028 A 
ATOM     22  C   UNL     1      -7.761   7.247  -5.206  0.00  0.00    +0.002 A 
ATOM     23  C   UNL     1      -7.352   5.966  -5.551  0.00  0.00    +0.002 A 
ATOM     24  C   UNL     1      -6.137   5.490  -5.145  0.00  0.00    +0.030 A 
ATOM     25  C   UNL     1      -5.295   6.297  -4.375  0.00  0.00    +0.089 A 
ATOM     26  N   UNL     1      -4.063   6.116  -3.834  0.00  0.00    -0.234 NA
ENDBRANCH  16  17
ENDBRANCH  14  16
ENDBRANCH   4   9
BRANCH   1  27
ATOM     27  C   UNL     1      -1.940   2.414   3.396  0.00  0.00    +0.206 C 
BRANCH  27  30
ATOM     28  C   UNL     1      -0.013   1.086   0.008  0.00  0.00    +0.106 C 
ATOM     29  C   UNL     1      -0.702   1.560   1.219  0.00  0.00    -0.104 C 
ATOM     30  C   UNL     1      -1.251   1.939   2.185  0.00  0.00    -0.083 C 
ENDBRANCH  27  30
ENDBRANCH   1  27
BRANCH   4  31
ATOM     31  C   UNL     1      -3.587   6.775   3.970  0.00  0.00    +0.040 C 
BRANCH  31  32
ATOM     32  C   UNL     1      -3.630   6.125   5.354  0.00  0.00    +0.038 C 
BRANCH  32  33
ATOM     33  C   UNL     1      -4.659   6.822   6.205  0.00  0.00    -0.047 A 
ATOM     34  C   UNL     1      -4.294   7.903   6.985  0.00  0.00    +0.003 A 
ATOM     35  C   UNL     1      -5.239   8.546   7.763  0.00  0.00    +0.000 A 
ATOM     36  C   UNL     1      -6.548   8.101   7.768  0.00  0.00    +0.000 A 
ATOM     37  C   UNL     1      -6.912   7.016   6.992  0.00  0.00    +0.000 A 
ATOM     38  C   UNL     1      -5.968   6.377   6.211  0.00  0.00    +0.003 A 
ENDBRANCH  32  33
ENDBRANCH  31  32
ENDBRANCH   4  31
TORSDOF 8
