REMARK  Name = ZINC17014928
REMARK  8 active torsions:
REMARK  status: ('A' for Active; 'I' for Inactive)
REMARK    1  A    between atoms: C_1  and  C_2
REMARK    2  A    between atoms: C_4  and  O_40
REMARK    3  A    between atoms: C_5  and  C_9
REMARK    4  A    between atoms: N_17  and  C_33
REMARK    5  A    between atoms: C_18  and  C_20
REMARK    6  A    between atoms: C_24  and  O_26
REMARK    7  A    between atoms: O_26  and  C_27
REMARK    8  A    between atoms: C_33  and  C_34
REMARK                            x       y       z     vdW  Elec       q    Type
REMARK                         _______ _______ _______ _____ _____    ______ ____
ROOT
ATOM      1  C   UNL     1      -0.250  -3.551  -0.549  0.00  0.00    +0.075 A 
ATOM      2  C   UNL     1       0.675  -4.542  -0.644  0.00  0.00    +0.035 A 
ATOM      3  C   UNL     1       0.003  -5.735  -0.294  0.00  0.00    +0.153 A 
ATOM      4  N   UNL     1      -1.243  -5.407  -0.017  0.00  0.00    -0.168 NA
ATOM      5  N   UNL     1      -1.416  -4.140  -0.152  0.00  0.00    -0.276 N 
ATOM      6  H   UNL     1      -2.252  -3.673   0.002  0.00  0.00    +0.189 HD
ATOM      7  C   UNL     1       0.972  -6.842  -0.383  0.00  0.00    +0.268 C 
ATOM      8  O   UNL     1       0.718  -8.007  -0.146  0.00  0.00    -0.268 OA
ATOM      9  N   UNL     1       2.176  -6.383  -0.764  0.00  0.00    -0.281 N 
ATOM     10  C   UNL     1       2.094  -4.930  -0.957  0.00  0.00    +0.142 C 
ENDROOT
BRANCH   1  15
ATOM     11  C   UNL     1       0.589   2.051  -1.590  0.00  0.00    +0.045 C 
ATOM     12  C   UNL     1       0.371   0.585  -1.320  0.00  0.00    -0.029 A 
ATOM     13  C   UNL     1       0.480  -0.328  -2.352  0.00  0.00    +0.050 A 
ATOM     14  C   UNL     1       0.279  -1.677  -2.110  0.00  0.00    +0.126 A 
ATOM     15  C   UNL     1      -0.034  -2.112  -0.817  0.00  0.00    +0.043 A 
ATOM     16  C   UNL     1      -0.141  -1.183   0.217  0.00  0.00    +0.034 A 
ATOM     17  C   UNL     1       0.067   0.158  -0.038  0.00  0.00    +0.045 A 
ATOM     18 CL   UNL     1      -0.060   1.314   1.251  0.00  0.00    -0.083 Cl
BRANCH  14  19
ATOM     19  O   UNL     1       0.386  -2.575  -3.124  0.00  0.00    -0.506 OA
ATOM     20  H   UNL     1       1.277  -2.931  -3.243  0.00  0.00    +0.292 HD
ENDBRANCH  14  19
ENDBRANCH   1  15
BRANCH  10  21
ATOM     21  C   UNL     1       3.041  -4.230  -0.017  0.00  0.00    -0.019 A 
ATOM     22  C   UNL     1       3.238  -4.722   1.260  0.00  0.00    +0.006 A 
ATOM     23  C   UNL     1       4.107  -4.082   2.124  0.00  0.00    +0.004 A 
ATOM     24  C   UNL     1       4.780  -2.948   1.714  0.00  0.00    +0.046 A 
ATOM     25  C   UNL     1       4.585  -2.452   0.433  0.00  0.00    +0.129 A 
ATOM     26  C   UNL     1       3.717  -3.099  -0.435  0.00  0.00    +0.052 A 
BRANCH  25  27
ATOM     27  O   UNL     1       5.246  -1.336   0.027  0.00  0.00    -0.456 OA
BRANCH  27  28
ATOM     28  C   UNL     1       6.096  -0.743   0.906  0.00  0.00    +0.128 A 
ATOM     29  C   UNL     1       7.430  -1.121   0.946  0.00  0.00    +0.046 A 
ATOM     30  C   UNL     1       8.292  -0.517   1.840  0.00  0.00    +0.004 A 
ATOM     31  C   UNL     1       7.826   0.465   2.695  0.00  0.00    +0.000 A 
ATOM     32  C   UNL     1       6.497   0.843   2.658  0.00  0.00    +0.004 A 
ATOM     33  C   UNL     1       5.632   0.246   1.761  0.00  0.00    +0.046 A 
ENDBRANCH  27  28
ENDBRANCH  25  27
ENDBRANCH  10  21
BRANCH   9  34
ATOM     34  C   UNL     1       3.377  -7.200  -0.957  0.00  0.00    +0.145 C 
BRANCH  34  35
ATOM     35  C   UNL     1       3.434  -7.680  -2.384  0.00  0.00    -0.012 A 
ATOM     36  C   UNL     1       2.839  -8.879  -2.746  0.00  0.00    +0.008 A 
ATOM     37  C   UNL     1       2.917  -9.280  -4.071  0.00  0.00    +0.020 A 
ATOM     38  C   UNL     1       3.581  -8.478  -4.980  0.00  0.00    +0.111 A 
ATOM     39  N   UNL     1       4.136  -7.344  -4.600  0.00  0.00    -0.263 NA
ATOM     40  C   UNL     1       4.076  -6.928  -3.350  0.00  0.00    +0.115 A 
ENDBRANCH  34  35
ENDBRANCH   9  34
TORSDOF 7
