REMARK  Name = ZINC33579099
REMARK  10 active torsions:
REMARK  status: ('A' for Active; 'I' for Inactive)
REMARK    1  A    between atoms: C_1  and  C_2
REMARK    2  A    between atoms: C_5  and  N_8
REMARK    3  A    between atoms: C_9  and  C_21
REMARK    4  A    between atoms: C_12  and  S_13
REMARK    5  A    between atoms: S_13  and  C_14
REMARK    6  A    between atoms: C_14  and  C_15
REMARK    7  A    between atoms: C_21  and  C_23
REMARK    8  A    between atoms: C_21  and  N_30
REMARK    9  A    between atoms: C_23  and  C_24
REMARK   10  A    between atoms: C_31  and  C_33
REMARK                            x       y       z     vdW  Elec       q    Type
REMARK                         _______ _______ _______ _____ _____    ______ ____
ROOT
ATOM      1  N   UNL     1      -4.218  -1.498   1.776  0.00  0.00    -0.273 N 
ATOM      2  C   UNL     1      -4.172  -0.164   1.465  0.00  0.00    +0.159 A 
ATOM      3  N   UNL     1      -5.387   0.209   1.179  0.00  0.00    -0.131 NA
ATOM      4  N   UNL     1      -6.191  -0.789   1.276  0.00  0.00    -0.122 NA
ATOM      5  C   UNL     1      -5.529  -1.863   1.643  0.00  0.00    +0.196 A 
ENDROOT
BRANCH   1  10
ATOM      6  C   UNL     1       0.129  -4.816   3.298  0.00  0.00    +0.044 C 
ATOM      7  C   UNL     1      -1.025  -3.935   2.894  0.00  0.00    -0.050 A 
ATOM      8  C   UNL     1      -2.044  -3.677   3.792  0.00  0.00    +0.005 A 
ATOM      9  C   UNL     1      -3.103  -2.870   3.425  0.00  0.00    +0.026 A 
ATOM     10  C   UNL     1      -3.144  -2.318   2.152  0.00  0.00    +0.050 A 
ATOM     11  C   UNL     1      -2.122  -2.583   1.250  0.00  0.00    +0.026 A 
ATOM     12  C   UNL     1      -1.063  -3.386   1.625  0.00  0.00    +0.005 A 
ENDBRANCH   1  10
BRANCH   5  13
ATOM     13  S   UNL     1      -6.203  -3.468   1.913  0.00  0.00    -0.081 S 
BRANCH  13  14
ATOM     14  C   UNL     1      -7.945  -3.144   1.543  0.00  0.00    +0.112 C 
BRANCH  14  15
ATOM     15  C   UNL     1      -8.739  -4.414   1.713  0.00  0.00    -0.037 A 
ATOM     16  C   UNL     1      -8.915  -5.267   0.640  0.00  0.00    +0.004 A 
ATOM     17  C   UNL     1      -9.639  -6.434   0.797  0.00  0.00    +0.000 A 
ATOM     18  C   UNL     1     -10.196  -6.742   2.024  0.00  0.00    +0.000 A 
ATOM     19  C   UNL     1     -10.025  -5.886   3.095  0.00  0.00    +0.000 A 
ATOM     20  C   UNL     1      -9.296  -4.722   2.940  0.00  0.00    +0.004 A 
ENDBRANCH  14  15
ENDBRANCH  13  14
ENDBRANCH   5  13
BRANCH   2  21
ATOM     21  C   UNL     1      -2.945   0.711   1.462  0.00  0.00    +0.146 C 
BRANCH  21  22
ATOM     22  N   UNL     1      -3.249   1.981   2.126  0.00  0.00    -0.301 N 
ATOM     23  C   UNL     1      -2.260   2.700   2.692  0.00  0.00    +0.245 C 
ATOM     24  O   UNL     1      -1.115   2.294   2.652  0.00  0.00    -0.270 OA
ATOM     25  H   UNL     1      -4.286   2.348   2.162  0.00  0.00    +0.150 HD
BRANCH  23  26
ATOM     26  C   UNL     1      -2.567   3.982   3.361  0.00  0.00    +0.039 A 
ATOM     27  C   UNL     1      -1.544   4.728   3.949  0.00  0.00    +0.013 A 
ATOM     28  C   UNL     1      -1.836   5.924   4.572  0.00  0.00    +0.004 A 
ATOM     29  C   UNL     1      -3.140   6.384   4.617  0.00  0.00    +0.038 A 
ATOM     30  C   UNL     1      -4.161   5.649   4.036  0.00  0.00    +0.124 A 
ATOM     31  C   UNL     1      -3.880   4.453   3.404  0.00  0.00    +0.051 A 
ATOM     32  F   UNL     1      -5.432   6.105   4.083  0.00  0.00    -0.205 F 
ENDBRANCH  23  26
ENDBRANCH  21  22
BRANCH  21  33
ATOM     33  C   UNL     1      -2.514   0.980   0.019  0.00  0.00    +0.065 C 
BRANCH  33  34
ATOM     34  C   UNL     1      -1.219   1.751   0.017  0.00  0.00    -0.045 A 
ATOM     35  C   UNL     1      -0.013   1.076   0.008  0.00  0.00    +0.004 A 
ATOM     36  C   UNL     1       1.175   1.783   0.000  0.00  0.00    +0.000 A 
ATOM     37  C   UNL     1       1.156   3.165   0.008  0.00  0.00    +0.000 A 
ATOM     38  C   UNL     1      -0.050   3.840   0.022  0.00  0.00    +0.000 A 
ATOM     39  C   UNL     1      -1.238   3.133   0.030  0.00  0.00    +0.004 A 
ENDBRANCH  33  34
ENDBRANCH  21  33
ENDBRANCH   2  21
TORSDOF 9
