REMARK  Name = ZINC30978599
REMARK  8 active torsions:
REMARK  status: ('A' for Active; 'I' for Inactive)
REMARK    1  A    between atoms: C_3  and  C_8
REMARK    2  A    between atoms: C_10  and  C_13
REMARK    3  A    between atoms: C_13  and  N_14
REMARK    4  A    between atoms: C_17  and  C_20
REMARK    5  A    between atoms: N_22  and  C_23
REMARK    6  A    between atoms: C_23  and  C_24
REMARK    7  A    between atoms: C_24  and  C_25
REMARK    8  A    between atoms: C_25  and  N_26
REMARK                            x       y       z     vdW  Elec       q    Type
REMARK                         _______ _______ _______ _____ _____    ______ ____
ROOT
ATOM      1  N   UNL     1      -2.425   1.184  -6.074  0.00  0.00    +0.386 N 
ATOM      2  C   UNL     1      -1.060   1.723  -6.126  0.00  0.00    -0.077 C 
ATOM      3  C   UNL     1      -0.281   1.264  -4.891  0.00  0.00    -0.006 C 
ATOM      4  C   UNL     1      -0.997   1.758  -3.630  0.00  0.00    +0.071 C 
ATOM      5  C   UNL     1      -2.431   1.222  -3.624  0.00  0.00    -0.006 C 
ATOM      6  C   UNL     1      -3.147   1.682  -4.896  0.00  0.00    -0.077 C 
ATOM      7  H   UNL     1      -2.350   0.090  -5.984  0.00  0.00    -0.081 HD
ENDROOT
BRANCH   4   8
ATOM      8  C   UNL     1      -0.268   1.258  -2.409  0.00  0.00    +0.216 C 
ATOM      9  O   UNL     1       0.726   0.575  -2.534  0.00  0.00    -0.276 OA
ATOM     10  N   UNL     1      -0.721   1.571  -1.179  0.00  0.00    -0.315 N 
ATOM     11  H   UNL     1      -1.623   2.191  -1.066  0.00  0.00    +0.149 HD
BRANCH  10  12
ATOM     12  C   UNL     1      -0.013   1.086   0.008  0.00  0.00    +0.106 C 
BRANCH  12  13
ATOM     13  C   UNL     1      -0.729   1.579   1.267  0.00  0.00    +0.040 C 
BRANCH  13  14
ATOM     14  C   UNL     1       0.011   1.072   2.506  0.00  0.00    +0.124 C 
BRANCH  14  15
ATOM     15  N   UNL     1      -0.675   1.545   3.712  0.00  0.00    -0.337 N 
ATOM     16  C   UNL     1      -0.427   2.712   4.382  0.00  0.00    +0.106 A 
ATOM     17  C   UNL     1      -1.280   2.752   5.423  0.00  0.00    +0.130 A 
ATOM     18  N   UNL     1      -2.022   1.635   5.395  0.00  0.00    -0.244 NA
ATOM     19  C   UNL     1      -1.665   0.907   4.372  0.00  0.00    +0.199 A 
ENDBRANCH  14  15
ENDBRANCH  13  14
ENDBRANCH  12  13
ENDBRANCH  10  12
ENDBRANCH   4   8
BRANCH   1  20
ATOM     20  C   UNL     1      -3.158   1.488  -7.309  0.00  0.00    +0.022 C 
BRANCH  20  23
ATOM     21  C   UNL     1      -6.472   0.114  -7.086  0.00  0.00    +0.202 A 
ATOM     22  N   UNL     1      -5.606   1.125  -6.851  0.00  0.00    -0.193 NA
ATOM     23  C   UNL     1      -4.455   0.720  -7.326  0.00  0.00    +0.211 A 
ATOM     24  O   UNL     1      -4.647  -0.502  -7.834  0.00  0.00    -0.340 OA
ATOM     25  N   UNL     1      -5.803  -0.837  -7.685  0.00  0.00    -0.056 NA
BRANCH  21  28
ATOM     26  C   UNL     1     -10.028  -1.047  -6.707  0.00  0.00    +0.002 A 
ATOM     27  C   UNL     1      -8.688  -1.028  -7.038  0.00  0.00    +0.012 A 
ATOM     28  C   UNL     1      -7.913   0.089  -6.733  0.00  0.00    +0.023 A 
ATOM     29  C   UNL     1      -8.495   1.179  -6.088  0.00  0.00    +0.027 A 
ATOM     30  C   UNL     1      -9.837   1.152  -5.766  0.00  0.00    +0.019 A 
ATOM     31  C   UNL     1     -10.602   0.040  -6.073  0.00  0.00    +0.015 A 
ATOM     32 BR   UNL     1     -10.630   2.633  -4.899  0.00  0.00    -0.050 Br
ENDBRANCH  21  28
ENDBRANCH  20  23
ENDBRANCH   1  20
TORSDOF 8
