REMARK  Name = ZINC19940872
REMARK  7 active torsions:
REMARK  status: ('A' for Active; 'I' for Inactive)
REMARK    1  A    between atoms: C_1  and  C_2
REMARK    2  A    between atoms: C_5  and  C_40
REMARK    3  A    between atoms: C_9  and  C_14
REMARK    4  A    between atoms: C_14  and  C_16
REMARK    5  A    between atoms: C_14  and  N_27
REMARK    6  A    between atoms: N_20  and  C_21
REMARK    7  A    between atoms: N_30  and  C_33
REMARK                            x       y       z     vdW  Elec       q    Type
REMARK                         _______ _______ _______ _____ _____    ______ ____
ROOT
ATOM      1  C   UNL     1       1.750   3.127   0.002  0.00  0.00    +0.162 C 
ENDROOT
BRANCH   1  10
ATOM      2  C   UNL     1       0.347   6.439   3.767  0.00  0.00    +0.044 C 
ATOM      3  C   UNL     1       1.571   5.704   4.250  0.00  0.00    -0.041 A 
ATOM      4  C   UNL     1       2.092   5.977   5.483  0.00  0.00    +0.004 A 
ATOM      5  C   UNL     1       3.218   5.305   5.938  0.00  0.00    +0.005 A 
ATOM      6  C   UNL     1       3.832   4.350   5.156  0.00  0.00    -0.026 A 
ATOM      7  C   UNL     1       3.319   4.056   3.897  0.00  0.00    +0.052 A 
ATOM      8  C   UNL     1       2.176   4.739   3.439  0.00  0.00    +0.002 A 
ATOM      9  C   UNL     1       1.643   4.422   2.113  0.00  0.00    +0.021 A 
ATOM     10  C   UNL     1       2.273   3.477   1.371  0.00  0.00    +0.042 A 
ATOM     11  C   UNL     1       3.412   2.817   1.879  0.00  0.00    +0.254 A 
ATOM     12  O   UNL     1       3.959   1.967   1.198  0.00  0.00    -0.268 OA
ATOM     13  N   UNL     1       3.912   3.105   3.093  0.00  0.00    -0.322 N 
ATOM     14  H   UNL     1       4.808   2.571   3.443  0.00  0.00    +0.169 HD
ATOM     15  C   UNL     1       5.053   3.627   5.662  0.00  0.00    +0.046 C 
ENDBRANCH   1  10
BRANCH   1  16
ATOM     16  N   UNL     1       2.825   3.280  -0.987  0.00  0.00    -0.286 NA
ATOM     17  C   UNL     1       3.385   4.639  -0.950  0.00  0.00    +0.104 C 
ATOM     18  C   UNL     1       4.552   4.734  -1.935  0.00  0.00    +0.120 C 
ATOM     19  N   UNL     1       4.078   4.400  -3.286  0.00  0.00    -0.325 N 
ATOM     20  C   UNL     1       3.518   3.042  -3.323  0.00  0.00    +0.120 C 
ATOM     21  C   UNL     1       2.351   2.946  -2.337  0.00  0.00    +0.104 C 
BRANCH  19  22
ATOM     22  C   UNL     1       5.101   4.546  -4.227  0.00  0.00    +0.065 A 
ATOM     23  C   UNL     1       4.840   4.349  -5.576  0.00  0.00    +0.026 A 
ATOM     24  C   UNL     1       5.852   4.498  -6.504  0.00  0.00    +0.002 A 
ATOM     25  C   UNL     1       7.128   4.834  -6.090  0.00  0.00    +0.003 A 
ATOM     26  C   UNL     1       7.395   5.027  -4.747  0.00  0.00    +0.040 A 
ATOM     27  C   UNL     1       6.386   4.884  -3.813  0.00  0.00    +0.144 A 
ATOM     28  F   UNL     1       6.647   5.071  -2.501  0.00  0.00    -0.204 F 
ENDBRANCH  19  22
ENDBRANCH   1  16
BRANCH   1  29
ATOM     29  C   UNL     1       1.265   1.700  -0.001  0.00  0.00    +0.173 A 
ATOM     30  N   UNL     1       2.009   0.621  -0.014  0.00  0.00    -0.111 NA
ATOM     31  N   UNL     1       1.226  -0.403  -0.012  0.00  0.00    -0.023 NA
ATOM     32  N   UNL     1       0.002  -0.004   0.002  0.00  0.00    -0.044 NA
ATOM     33  N   UNL     1      -0.015   1.286   0.009  0.00  0.00    -0.224 N 
BRANCH  33  34
ATOM     34  C   UNL     1      -1.206   2.140   0.020  0.00  0.00    +0.111 C 
ATOM     35  C   UNL     1      -2.034   1.845   1.272  0.00  0.00    +0.027 C 
ATOM     36  C   UNL     1      -3.277   2.737   1.283  0.00  0.00    +0.002 C 
ATOM     37  C   UNL     1      -4.118   2.455   0.036  0.00  0.00    +0.000 C 
ATOM     38  C   UNL     1      -3.290   2.750  -1.216  0.00  0.00    +0.002 C 
ATOM     39  C   UNL     1      -2.047   1.858  -1.227  0.00  0.00    +0.027 C 
ENDBRANCH  33  34
ENDBRANCH   1  29
TORSDOF 5
