REMARK  Name = ZINC06269238
REMARK  15 active torsions:
REMARK  status: ('A' for Active; 'I' for Inactive)
REMARK    1  A    between atoms: C_1  and  C_2
REMARK    2  A    between atoms: C_4  and  C_34
REMARK    3  A    between atoms: C_5  and  S_9
REMARK    4  A    between atoms: C_6  and  C_8
REMARK    5  A    between atoms: S_9  and  N_12
REMARK    6  A    between atoms: N_12  and  C_13
REMARK    7  A    between atoms: C_16  and  O_33
REMARK    8  A    between atoms: C_17  and  C_19
REMARK    9  A    between atoms: C_19  and  C_21
REMARK   10  A    between atoms: C_19  and  C_27
REMARK   11  A    between atoms: C_21  and  C_23
REMARK   12  A    between atoms: C_27  and  O_29
REMARK   13  A    between atoms: O_29  and  C_30
REMARK   14  A    between atoms: C_30  and  C_31
REMARK   15  A    between atoms: C_30  and  C_32
REMARK                            x       y       z     vdW  Elec       q    Type
REMARK                         _______ _______ _______ _____ _____    ______ ____
ROOT
ATOM      1  C   UNL     1       5.426  -1.072  -1.887  0.00  0.00    +0.049 A 
ATOM      2  C   UNL     1       4.585  -0.060  -2.334  0.00  0.00    +0.028 A 
ATOM      3  C   UNL     1       4.942   0.698  -3.432  0.00  0.00    +0.047 A 
ATOM      4  C   UNL     1       6.132   0.440  -4.096  0.00  0.00    +0.121 A 
ATOM      5  C   UNL     1       6.969  -0.573  -3.654  0.00  0.00    +0.017 A 
ATOM      6  C   UNL     1       6.617  -1.328  -2.552  0.00  0.00    +0.033 A 
ENDROOT
BRANCH   1   7
ATOM      7  N   UNL     1       5.068  -1.836  -0.771  0.00  0.00    -0.216 N 
ATOM      8  H   UNL     1       5.137  -2.803  -0.802  0.00  0.00    +0.174 HD
BRANCH   7   9
ATOM      9  S   UNL     1       4.528  -1.089   0.605  0.00  0.00    +0.073 S 
ATOM     10  O   UNL     1       5.409  -0.002   0.850  0.00  0.00    -0.150 OA
ATOM     11  O   UNL     1       4.301  -2.115   1.562  0.00  0.00    -0.150 OA
BRANCH   9  16
ATOM     12  C   UNL     1      -0.862   1.309  -0.660  0.00  0.00    +0.044 C 
ATOM     13  C   UNL     1       0.485   0.709  -0.348  0.00  0.00    -0.050 A 
ATOM     14  C   UNL     1       0.590  -0.636  -0.047  0.00  0.00    +0.008 A 
ATOM     15  C   UNL     1       1.824  -1.185   0.245  0.00  0.00    -0.023 A 
ATOM     16  C   UNL     1       2.954  -0.389   0.235  0.00  0.00    +0.114 A 
ATOM     17  C   UNL     1       2.850   0.956  -0.067  0.00  0.00    -0.023 A 
ATOM     18  C   UNL     1       1.615   1.505  -0.359  0.00  0.00    +0.008 A 
ATOM     19  C   UNL     1       4.082   1.823  -0.079  0.00  0.00    +0.046 C 
ATOM     20  C   UNL     1       1.938  -2.651   0.574  0.00  0.00    +0.046 C 
ENDBRANCH   9  16
ENDBRANCH   7   9
ENDBRANCH   1   7
BRANCH   4  21
ATOM     21  O   UNL     1       6.479   1.183  -5.181  0.00  0.00    -0.506 OA
ATOM     22  H   UNL     1       6.163   0.824  -6.022  0.00  0.00    +0.292 HD
ENDBRANCH   4  21
BRANCH   5  23
ATOM     23  C   UNL     1       8.262  -0.852  -4.376  0.00  0.00    +0.206 C 
BRANCH  23  24
ATOM     24  C   UNL     1       8.254  -2.268  -4.892  0.00  0.00    +0.254 C 
ATOM     25  O   UNL     1       7.569  -3.103  -4.353  0.00  0.00    -0.287 OA
BRANCH  24  26
ATOM     26  C   UNL     1       9.103  -2.642  -6.080  0.00  0.00    +0.452 C 
ATOM     27  F   UNL     1       8.929  -3.999  -6.369  0.00  0.00    -0.163 F 
ATOM     28  F   UNL     1       8.718  -1.877  -7.187  0.00  0.00    -0.163 F 
ATOM     29  F   UNL     1      10.449  -2.395  -5.788  0.00  0.00    -0.163 F 
ENDBRANCH  24  26
ENDBRANCH  23  24
BRANCH  23  30
ATOM     30  C   UNL     1       9.417  -0.669  -3.426  0.00  0.00    +0.323 C 
ATOM     31  O   UNL     1       9.212  -0.346  -2.280  0.00  0.00    -0.250 OA
BRANCH  30  32
ATOM     32  O   UNL     1      10.675  -0.866  -3.853  0.00  0.00    -0.461 OA
BRANCH  32  33
ATOM     33  C   UNL     1      11.738  -0.672  -2.883  0.00  0.00    +0.170 C 
ATOM     34  C   UNL     1      12.022  -1.994  -2.167  0.00  0.00    +0.052 C 
ATOM     35  C   UNL     1      13.003  -0.199  -3.601  0.00  0.00    +0.052 C 
ENDBRANCH  32  33
ENDBRANCH  30  32
ENDBRANCH  23  30
ENDBRANCH   5  23
TORSDOF 10
