REMARK  Name = ZINC39469691
REMARK  8 active torsions:
REMARK  status: ('A' for Active; 'I' for Inactive)
REMARK    1  A    between atoms: C_1  and  C_2
REMARK    2  A    between atoms: C_2  and  O_3
REMARK    3  A    between atoms: O_3  and  C_4
REMARK    4  A    between atoms: C_16  and  S_17
REMARK    5  A    between atoms: S_17  and  C_18
REMARK    6  A    between atoms: P_21  and  S_24
REMARK    7  A    between atoms: S_24  and  O_27
REMARK    8  A    between atoms: O_27  and  C_28
REMARK                            x       y       z     vdW  Elec       q    Type
REMARK                         _______ _______ _______ _____ _____    ______ ____
ROOT
ATOM      1  C   UNL     1      -1.498  -1.848   0.006  0.00  0.00    +0.130 C 
ATOM      2  C   UNL     1      -0.433  -2.653  -0.003  0.00  0.00    +0.022 C 
ATOM      3  C   UNL     1      -0.630  -4.144  -0.019  0.00  0.00    +0.008 C 
ATOM      4  C   UNL     1       0.600  -4.841  -0.583  0.00  0.00    -0.046 C 
ATOM      5  N   UNL     1       0.848  -4.439  -1.977  0.00  0.00    +0.398 N 
ATOM      6  C   UNL     1      -0.293  -4.802  -2.821  0.00  0.00    -0.020 C 
ATOM      7  C   UNL     1      -1.563  -4.104  -2.323  0.00  0.00    -0.003 C 
ATOM      8  C   UNL     1      -1.839  -4.494  -0.890  0.00  0.00    +0.017 C 
ATOM      9  C   UNL     1      -3.030  -3.694  -0.418  0.00  0.00    -0.005 C 
ATOM     10  C   UNL     1      -2.855  -2.440   0.016  0.00  0.00    +0.045 C 
ATOM     11  C   UNL     1      -0.082  -4.359  -4.275  0.00  0.00    +0.158 C 
ATOM     12  O   UNL     1       1.074  -5.022  -4.817  0.00  0.00    -0.301 OA
ATOM     13  P   UNL     1       2.451  -4.965  -3.953  0.00  0.00    +0.431 P 
ATOM     14  O   UNL     1       3.136  -3.670  -4.163  0.00  0.00    -0.246 OA
ATOM     15  N   UNL     1       1.979  -5.120  -2.374  0.00  0.00    -0.271 NA
ATOM     16  H   UNL     1       2.481  -5.665  -1.748  0.00  0.00    +0.113 HD
ATOM     17  H   UNL     1       1.016  -3.445  -2.020  0.00  0.00    -0.055 HD
ENDROOT
BRANCH  13  18
ATOM     18  S   UNL     1       3.728  -6.567  -4.498  0.00  0.00    +0.209 S 
ATOM     19  O   UNL     1       4.954  -6.361  -3.810  0.00  0.00    -0.126 OA
ATOM     20  O   UNL     1       2.967  -7.759  -4.359  0.00  0.00    -0.126 OA
BRANCH  18  21
ATOM     21  O   UNL     1       4.032  -6.415  -5.982  0.00  0.00    -0.339 OA
BRANCH  21  22
ATOM     22  C   UNL     1       4.916  -5.423  -6.267  0.00  0.00    +0.157 A 
ATOM     23  C   UNL     1       4.461  -4.136  -6.513  0.00  0.00    +0.048 A 
ATOM     24  C   UNL     1       5.362  -3.129  -6.801  0.00  0.00    +0.004 A 
ATOM     25  C   UNL     1       6.716  -3.404  -6.846  0.00  0.00    +0.000 A 
ATOM     26  C   UNL     1       7.173  -4.686  -6.601  0.00  0.00    +0.004 A 
ATOM     27  C   UNL     1       6.276  -5.695  -6.306  0.00  0.00    +0.048 A 
ENDBRANCH  21  22
ENDBRANCH  18  21
ENDBRANCH  13  18
BRANCH  10  28
ATOM     28  S   UNL     1      -4.228  -1.497   0.590  0.00  0.00    -0.125 S 
ATOM     29  C   UNL     1      -5.639  -2.625   0.413  0.00  0.00    +0.090 C 
ENDBRANCH  10  28
BRANCH   1  30
ATOM     30  O   UNL     1      -1.339  -0.499   0.012  0.00  0.00    -0.491 OA
BRANCH  30  32
ATOM     31  C   UNL     1      -0.019   1.526   0.010  0.00  0.00    +0.048 C 
ATOM     32  C   UNL     1       0.002  -0.004   0.002  0.00  0.00    +0.226 C 
ENDBRANCH  30  32
ENDBRANCH   1  30
TORSDOF 6
