REMARK  Name = ZINC18021374
REMARK  3 active torsions:
REMARK  status: ('A' for Active; 'I' for Inactive)
REMARK    1  A    between atoms: C_13  and  C_14
REMARK    2  A    between atoms: C_13  and  O_40
REMARK    3  A    between atoms: N_16  and  N_17
REMARK                            x       y       z     vdW  Elec       q    Type
REMARK                         _______ _______ _______ _____ _____    ______ ____
ROOT
ATOM      1  N   UNL     1       6.492  -0.996   2.311  0.00  0.00    -0.155 N 
ATOM      2  C   UNL     1       6.958   0.195   2.708  0.00  0.00    +0.243 C 
ATOM      3  O   UNL     1       6.757   1.251   2.147  0.00  0.00    -0.273 OA
ATOM      4  C   UNL     1       7.775   0.013   3.969  0.00  0.00    +0.102 C 
ATOM      5  C   UNL     1       7.701  -1.501   4.233  0.00  0.00    +0.102 C 
ATOM      6  C   UNL     1       6.844  -2.020   3.098  0.00  0.00    +0.243 C 
ATOM      7  O   UNL     1       6.530  -3.178   2.928  0.00  0.00    -0.273 OA
ATOM      8  C   UNL     1       6.995  -1.798   5.573  0.00  0.00    +0.062 C 
ATOM      9  C   UNL     1       7.769  -1.013   6.621  0.00  0.00    -0.035 A 
ATOM     10  C   UNL     1       8.367  -1.560   7.720  0.00  0.00    +0.004 A 
ATOM     11  C   UNL     1       9.044  -0.723   8.599  0.00  0.00    +0.000 A 
ATOM     12  C   UNL     1       9.108   0.637   8.362  0.00  0.00    +0.000 A 
ATOM     13  C   UNL     1       8.497   1.186   7.242  0.00  0.00    +0.004 A 
ATOM     14  C   UNL     1       7.834   0.358   6.382  0.00  0.00    -0.035 A 
ATOM     15  C   UNL     1       7.116   0.822   5.106  0.00  0.00    +0.062 C 
ATOM     16  C   UNL     1       5.699   0.282   5.219  0.00  0.00    -0.035 A 
ATOM     17  C   UNL     1       5.642  -1.110   5.479  0.00  0.00    -0.035 A 
ATOM     18  C   UNL     1       4.437  -1.738   5.611  0.00  0.00    +0.004 A 
ATOM     19  C   UNL     1       3.275  -0.986   5.501  0.00  0.00    +0.000 A 
ATOM     20  C   UNL     1       3.340   0.374   5.263  0.00  0.00    +0.000 A 
ATOM     21  C   UNL     1       4.566   1.035   5.095  0.00  0.00    +0.004 A 
ENDROOT
BRANCH   1  24
ATOM     22  C   UNL     1       4.403  -0.776   1.190  0.00  0.00    +0.271 C 
ATOM     23  O   UNL     1       3.929  -0.295   2.197  0.00  0.00    -0.270 OA
ATOM     24  N   UNL     1       5.696  -1.156   1.169  0.00  0.00    -0.222 N 
ATOM     25  H   UNL     1       6.075  -1.540   0.363  0.00  0.00    +0.174 HD
BRANCH  22  38
ATOM     26  C   UNL     1      -0.017   1.375   0.010  0.00  0.00    +0.001 A 
ATOM     27  C   UNL     1       1.169   2.088   0.002  0.00  0.00    +0.000 A 
ATOM     28  C   UNL     1       2.380   1.420  -0.013  0.00  0.00    +0.008 A 
ATOM     29  C   UNL     1       2.408   0.042  -0.021  0.00  0.00    +0.005 A 
ATOM     30  C   UNL     1       1.221  -0.685  -0.013  0.00  0.00    -0.011 A 
ATOM     31  C   UNL     1       0.002  -0.004   0.002  0.00  0.00    +0.009 A 
ATOM     32  C   UNL     1       1.530  -2.136  -0.025  0.00  0.00    -0.011 A 
ATOM     33  C   UNL     1       0.694  -3.254  -0.023  0.00  0.00    +0.009 A 
ATOM     34  C   UNL     1       1.238  -4.521  -0.035  0.00  0.00    +0.001 A 
ATOM     35  C   UNL     1       2.611  -4.690  -0.050  0.00  0.00    +0.000 A 
ATOM     36  C   UNL     1       3.445  -3.587  -0.052  0.00  0.00    +0.008 A 
ATOM     37  C   UNL     1       2.910  -2.316  -0.040  0.00  0.00    +0.005 A 
ATOM     38  C   UNL     1       3.547  -0.948  -0.038  0.00  0.00    +0.195 C 
BRANCH  38  39
ATOM     39  O   UNL     1       4.335  -0.771  -1.217  0.00  0.00    -0.371 OA
ATOM     40  H   UNL     1       5.083  -1.380  -1.285  0.00  0.00    +0.212 HD
ENDBRANCH  38  39
ENDBRANCH  22  38
ENDBRANCH   1  24
TORSDOF 3
