REMARK  Name = ZINC64581730
REMARK  11 active torsions:
REMARK  status: ('A' for Active; 'I' for Inactive)
REMARK    1  A    between atoms: C_1  and  C_2
REMARK    2  A    between atoms: C_2  and  C_3
REMARK    3  A    between atoms: C_3  and  C_5
REMARK    4  A    between atoms: C_3  and  N_6
REMARK    5  A    between atoms: C_7  and  C_9
REMARK    6  A    between atoms: N_18  and  C_21
REMARK    7  A    between atoms: C_21  and  C_22
REMARK    8  A    between atoms: N_29  and  C_32
REMARK    9  A    between atoms: C_32  and  C_33
REMARK   10  A    between atoms: C_33  and  C_34
REMARK   11  A    between atoms: C_33  and  C_35
REMARK                            x       y       z     vdW  Elec       q    Type
REMARK                         _______ _______ _______ _____ _____    ______ ____
ROOT
ATOM      1  C   UNL     1       4.246   0.462  -2.305  0.00  0.00    +0.039 A 
ATOM      2  C   UNL     1       4.862   0.696  -1.073  0.00  0.00    +0.014 A 
ATOM      3  C   UNL     1       6.184   1.078  -1.020  0.00  0.00    +0.016 A 
ATOM      4  C   UNL     1       6.909   1.232  -2.201  0.00  0.00    +0.064 A 
ATOM      5  C   UNL     1       6.295   0.999  -3.440  0.00  0.00    +0.067 A 
ATOM      6  C   UNL     1       4.966   0.609  -3.488  0.00  0.00    +0.040 A 
ATOM      7  N   UNL     1       7.036   1.159  -4.611  0.00  0.00    -0.229 N 
ATOM      8  C   UNL     1       8.357   1.541  -4.556  0.00  0.00    +0.240 A 
ATOM      9  N   UNL     1       8.816   1.617  -5.776  0.00  0.00    -0.129 NA
ATOM     10  N   UNL     1       7.779   1.279  -6.654  0.00  0.00    -0.206 N 
ATOM     11  C   UNL     1       6.692   1.000  -5.907  0.00  0.00    +0.353 A 
ATOM     12  O   UNL     1       5.598   0.666  -6.325  0.00  0.00    -0.244 OA
ATOM     13  N   UNL     1       8.989   1.778  -3.342  0.00  0.00    -0.276 N 
ATOM     14  C   UNL     1       8.327   1.642  -2.176  0.00  0.00    +0.263 A 
ATOM     15  O   UNL     1       8.890   1.853  -1.119  0.00  0.00    -0.267 OA
ENDROOT
BRANCH   1  17
ATOM     16  N   UNL     1       2.125  -0.091  -1.209  0.00  0.00    -0.309 N 
ATOM     17  C   UNL     1       2.824   0.051  -2.353  0.00  0.00    +0.244 C 
ATOM     18  O   UNL     1       2.288  -0.157  -3.423  0.00  0.00    -0.270 OA
ATOM     19  H   UNL     1       2.553   0.075  -0.355  0.00  0.00    +0.149 HD
BRANCH  16  20
ATOM     20  C   UNL     1       0.718  -0.497  -1.257  0.00  0.00    +0.070 C 
ATOM     21  C   UNL     1       0.630  -2.023  -1.329  0.00  0.00    +0.028 C 
BRANCH  20  23
ATOM     22  C   UNL     1      -0.019   1.526   0.010  0.00  0.00    +0.005 C 
ATOM     23  C   UNL     1       0.002  -0.004   0.002  0.00  0.00    +0.018 C 
ENDBRANCH  20  23
ENDBRANCH  16  20
ENDBRANCH   1  17
BRANCH  10  24
ATOM     24  C   UNL     1       7.861   1.235  -8.116  0.00  0.00    +0.184 C 
BRANCH  24  25
ATOM     25  C   UNL     1       7.497   2.585  -8.680  0.00  0.00    -0.026 A 
ATOM     26  C   UNL     1       6.180   2.873  -8.987  0.00  0.00    +0.007 A 
ATOM     27  C   UNL     1       5.846   4.110  -9.504  0.00  0.00    +0.020 A 
ATOM     28  C   UNL     1       6.829   5.061  -9.714  0.00  0.00    +0.041 A 
ATOM     29  C   UNL     1       8.146   4.772  -9.406  0.00  0.00    +0.020 A 
ATOM     30  C   UNL     1       8.479   3.536  -8.884  0.00  0.00    +0.007 A 
ATOM     31 CL   UNL     1       6.410   6.615 -10.364  0.00  0.00    -0.084 Cl
ENDBRANCH  24  25
ENDBRANCH  10  24
BRANCH  13  32
ATOM     32  C   UNL     1      10.396   2.184  -3.329  0.00  0.00    +0.131 C 
BRANCH  32  33
ATOM     33  C   UNL     1      10.488   3.710  -3.388  0.00  0.00    +0.003 C 
ATOM     34  C   UNL     1       9.883   4.306  -2.115  0.00  0.00    +0.009 C 
ATOM     35  C   UNL     1      11.955   4.129  -3.500  0.00  0.00    +0.009 C 
ENDBRANCH  32  33
ENDBRANCH  13  32
TORSDOF 7
