REMARK  Name = ZINC02758279
REMARK  12 active torsions:
REMARK  status: ('A' for Active; 'I' for Inactive)
REMARK    1  A    between atoms: C_1  and  C_2
REMARK    2  A    between atoms: C_3  and  C_30
REMARK    3  A    between atoms: C_4  and  C_16
REMARK    4  A    between atoms: C_10  and  C_14
REMARK    5  A    between atoms: C_10  and  C_15
REMARK    6  A    between atoms: C_19  and  O_22
REMARK    7  A    between atoms: O_22  and  C_23
REMARK    8  A    between atoms: C_23  and  C_24
REMARK    9  A    between atoms: C_30  and  O_32
REMARK   10  A    between atoms: O_32  and  C_33
REMARK   11  A    between atoms: C_33  and  C_34
REMARK   12  A    between atoms: C_34  and  C_35
REMARK                            x       y       z     vdW  Elec       q    Type
REMARK                         _______ _______ _______ _____ _____    ______ ____
ROOT
ATOM      1  C   UNL     1       0.079   5.585   0.879  0.00  0.00    +0.061 C 
ATOM      2  C   UNL     1      -0.023   4.147   0.440  0.00  0.00    +0.016 C 
ATOM      3  C   UNL     1      -1.215   3.526   0.459  0.00  0.00    +0.065 C 
ATOM      4  C   UNL     1      -1.355   2.097   0.020  0.00  0.00    +0.092 C 
ATOM      5  C   UNL     1      -0.017   1.402   0.010  0.00  0.00    +0.024 C 
ATOM      6  C   UNL     1       1.130   2.114   0.003  0.00  0.00    +0.016 C 
ATOM      7  N   UNL     1       1.098   3.483   0.025  0.00  0.00    -0.321 N 
ATOM      8  C   UNL     1       2.472   1.426  -0.027  0.00  0.00    +0.058 C 
ATOM      9  C   UNL     1       2.374   0.079   0.693  0.00  0.00    -0.023 C 
ATOM     10  C   UNL     1       1.299  -0.766   0.000  0.00  0.00    +0.086 C 
ATOM     11  C   UNL     1       0.002  -0.004   0.002  0.00  0.00    +0.162 C 
ATOM     12  O   UNL     1      -1.048  -0.615  -0.004  0.00  0.00    -0.292 OA
ATOM     13  C   UNL     1       1.988   0.304   2.156  0.00  0.00    +0.011 C 
ATOM     14  C   UNL     1       3.721  -0.645   0.622  0.00  0.00    +0.011 C 
ATOM     15  H   UNL     1       1.985   4.048  -0.295  0.00  0.00    +0.152 HD
ENDROOT
BRANCH   4  16
ATOM     16  C   UNL     1      -1.944   2.058  -1.367  0.00  0.00    -0.035 A 
ATOM     17  C   UNL     1      -1.268   2.648  -2.420  0.00  0.00    +0.008 A 
ATOM     18  C   UNL     1      -1.803   2.609  -3.693  0.00  0.00    +0.046 A 
ATOM     19  C   UNL     1      -3.024   1.988  -3.913  0.00  0.00    +0.121 A 
ATOM     20  C   UNL     1      -3.702   1.402  -2.854  0.00  0.00    +0.046 A 
ATOM     21  C   UNL     1      -3.160   1.438  -1.583  0.00  0.00    +0.008 A 
BRANCH  19  22
ATOM     22  O   UNL     1      -3.555   1.953  -5.163  0.00  0.00    -0.487 OA
BRANCH  22  23
ATOM     23  C   UNL     1      -2.801   2.577  -6.205  0.00  0.00    +0.264 C 
BRANCH  23  24
ATOM     24  C   UNL     1      -3.541   2.440  -7.511  0.00  0.00    -0.010 A 
ATOM     25  C   UNL     1      -3.312   1.345  -8.324  0.00  0.00    +0.007 A 
ATOM     26  C   UNL     1      -3.995   1.217  -9.519  0.00  0.00    +0.000 A 
ATOM     27  C   UNL     1      -4.898   2.189  -9.907  0.00  0.00    +0.000 A 
ATOM     28  C   UNL     1      -5.123   3.287  -9.097  0.00  0.00    +0.000 A 
ATOM     29  C   UNL     1      -4.444   3.412  -7.899  0.00  0.00    +0.007 A 
ENDBRANCH  23  24
ENDBRANCH  22  23
ENDBRANCH  19  22
ENDBRANCH   4  16
BRANCH   3  30
ATOM     30  C   UNL     1      -2.358   4.233   0.899  0.00  0.00    +0.338 C 
ATOM     31  O   UNL     1      -2.258   5.392   1.254  0.00  0.00    -0.245 OA
BRANCH  30  32
ATOM     32  O   UNL     1      -3.561   3.621   0.923  0.00  0.00    -0.461 OA
BRANCH  32  33
ATOM     33  C   UNL     1      -4.673   4.395   1.378  0.00  0.00    +0.237 C 
BRANCH  33  34
ATOM     34  C   UNL     1      -5.941   3.540   1.336  0.00  0.00    +0.076 C 
BRANCH  34  35
ATOM     35  C   UNL     1      -7.114   4.356   1.816  0.00  0.00    -0.044 A 
ATOM     36  C   UNL     1      -7.448   4.364   3.157  0.00  0.00    +0.004 A 
ATOM     37  C   UNL     1      -8.520   5.116   3.598  0.00  0.00    +0.000 A 
ATOM     38  C   UNL     1      -9.265   5.853   2.696  0.00  0.00    +0.000 A 
ATOM     39  C   UNL     1      -8.934   5.841   1.354  0.00  0.00    +0.000 A 
ATOM     40  C   UNL     1      -7.859   5.093   0.914  0.00  0.00    +0.004 A 
ENDBRANCH  34  35
ENDBRANCH  33  34
ENDBRANCH  32  33
ENDBRANCH  30  32
ENDBRANCH   3  30
TORSDOF 9
