REMARK  Name = ZINC05310814
REMARK  9 active torsions:
REMARK  status: ('A' for Active; 'I' for Inactive)
REMARK    1  A    between atoms: C_1  and  C_2
REMARK    2  A    between atoms: C_6  and  N_8
REMARK    3  A    between atoms: C_9  and  C_30
REMARK    4  A    between atoms: C_12  and  S_13
REMARK    5  A    between atoms: S_13  and  C_14
REMARK    6  A    between atoms: C_14  and  C_16
REMARK    7  A    between atoms: C_14  and  C_17
REMARK    8  A    between atoms: C_23  and  C_29
REMARK    9  A    between atoms: C_24  and  C_28
REMARK                            x       y       z     vdW  Elec       q    Type
REMARK                         _______ _______ _______ _____ _____    ______ ____
ROOT
ATOM      1  C   UNL     1      -2.554   3.943   0.045  0.00  0.00    +0.117 C 
ATOM      2  C   UNL     1      -2.959   4.300  -1.387  0.00  0.00    +0.027 C 
ENDROOT
BRANCH   1   3
ATOM      3  C   UNL     1      -1.221   3.240   0.029  0.00  0.00    +0.124 A 
ATOM      4  N   UNL     1      -1.183   1.883   0.018  0.00  0.00    -0.309 N 
ATOM      5  H   UNL     1      -2.015   1.384   0.019  0.00  0.00    +0.170 HD
ATOM      6  C   UNL     1      -0.015   1.215   0.009  0.00  0.00    +0.260 A 
ATOM      7  O   UNL     1       0.002  -0.004   0.002  0.00  0.00    -0.267 OA
ATOM      8  C   UNL     1       1.210   1.959   0.001  0.00  0.00    +0.075 A 
ATOM      9  C   UNL     1       2.579   1.479  -0.014  0.00  0.00    -0.026 A 
ATOM     10  C   UNL     1       3.585   2.369  -0.018  0.00  0.00    -0.008 A 
ATOM     11  S   UNL     1       2.746   3.942  -0.003  0.00  0.00    -0.073 S 
ATOM     12  C   UNL     1       1.070   3.359   0.009  0.00  0.00    +0.116 A 
ATOM     13  N   UNL     1      -0.122   3.947   0.023  0.00  0.00    -0.225 NA
ATOM     14  C   UNL     1       5.068   2.101  -0.033  0.00  0.00    +0.052 C 
ATOM     15  C   UNL     1       2.869   0.001  -0.023  0.00  0.00    +0.045 C 
ENDBRANCH   1   3
BRANCH   1  16
ATOM     16  S   UNL     1      -3.803   2.853   0.772  0.00  0.00    -0.075 S 
BRANCH  16  21
ATOM     17  N   UNL     1      -6.440   3.660   1.260  0.00  0.00    -0.274 N 
ATOM     18  C   UNL     1      -7.166   4.809   1.093  0.00  0.00    +0.135 A 
ATOM     19  N   UNL     1      -6.371   5.696   0.565  0.00  0.00    -0.133 NA
ATOM     20  N   UNL     1      -5.200   5.195   0.393  0.00  0.00    -0.122 NA
ATOM     21  C   UNL     1      -5.182   3.948   0.805  0.00  0.00    +0.197 A 
ATOM     22  C   UNL     1      -8.617   5.008   1.447  0.00  0.00    +0.088 C 
BRANCH  17  28
ATOM     23  C   UNL     1      -7.432  -1.119   0.647  0.00  0.00    +0.044 C 
ATOM     24  C   UNL     1      -7.380   0.112   1.516  0.00  0.00    -0.048 A 
ATOM     25  C   UNL     1      -7.778   0.040   2.838  0.00  0.00    +0.003 A 
ATOM     26  C   UNL     1      -7.733   1.167   3.638  0.00  0.00    +0.002 A 
ATOM     27  C   UNL     1      -7.290   2.368   3.118  0.00  0.00    +0.026 A 
ATOM     28  C   UNL     1      -6.890   2.442   1.791  0.00  0.00    +0.050 A 
ATOM     29  C   UNL     1      -6.942   1.310   0.989  0.00  0.00    +0.029 A 
ENDBRANCH  17  28
ENDBRANCH  16  21
ENDBRANCH   1  16
TORSDOF 4
