REMARK  Name = ZINC39143346
REMARK  7 active torsions:
REMARK  status: ('A' for Active; 'I' for Inactive)
REMARK    1  A    between atoms: C_1  and  C_2
REMARK    2  A    between atoms: C_5  and  C_8
REMARK    3  A    between atoms: C_8  and  C_9
REMARK    4  A    between atoms: C_16  and  S_20
REMARK    5  A    between atoms: S_20  and  C_21
REMARK    6  A    between atoms: C_21  and  C_22
REMARK    7  A    between atoms: C_22  and  C_24
REMARK                            x       y       z     vdW  Elec       q    Type
REMARK                         _______ _______ _______ _____ _____    ______ ____
ROOT
ATOM      1  C   UNL     1       1.487  -4.759  -0.032  0.00  0.00    +0.132 A 
ATOM      2  C   UNL     1       2.364  -4.485  -1.174  0.00  0.00    +0.297 A 
ATOM      3  O   UNL     1       1.958  -3.859  -2.140  0.00  0.00    -0.264 OA
ATOM      4  N   UNL     1       3.627  -4.941  -1.128  0.00  0.00    -0.169 NA
ATOM      5  C   UNL     1       4.037  -5.616  -0.067  0.00  0.00    +0.272 A 
ATOM      6  N   UNL     1       3.186  -5.846   0.969  0.00  0.00    -0.193 N 
ATOM      7  N   UNL     1       1.974  -5.429   0.979  0.00  0.00    -0.165 NA
ATOM      8  C   UNL     1       3.979  -6.611   1.948  0.00  0.00    +0.307 C 
ATOM      9  N   UNL     1       5.297  -6.740   1.308  0.00  0.00    -0.146 NA
ATOM     10  N   UNL     1       5.255  -6.175   0.214  0.00  0.00    -0.111 NA
ENDROOT
BRANCH   1  11
ATOM     11  C   UNL     1       0.059  -4.275  -0.021  0.00  0.00    +0.098 C 
BRANCH  11  16
ATOM     12  C   UNL     1      -0.018   1.503   0.010  0.00  0.00    +0.044 C 
ATOM     13  C   UNL     1       0.002  -0.004   0.002  0.00  0.00    -0.050 A 
ATOM     14  C   UNL     1       0.006  -0.689  -1.199  0.00  0.00    +0.003 A 
ATOM     15  C   UNL     1       0.025  -2.071  -1.206  0.00  0.00    +0.004 A 
ATOM     16  C   UNL     1       0.040  -2.768  -0.013  0.00  0.00    -0.041 A 
ATOM     17  C   UNL     1       0.037  -2.084   1.188  0.00  0.00    +0.004 A 
ATOM     18  C   UNL     1       0.023  -0.702   1.195  0.00  0.00    +0.003 A 
ENDBRANCH  11  16
ENDBRANCH   1  11
BRANCH   8  19
ATOM     19  S   UNL     1       4.112  -5.699   3.510  0.00  0.00    -0.102 S 
BRANCH  19  20
ATOM     20  C   UNL     1       4.934  -4.150   3.046  0.00  0.00    +0.152 C 
BRANCH  20  21
ATOM     21  C   UNL     1       5.109  -3.288   4.270  0.00  0.00    +0.173 C 
ATOM     22  O   UNL     1       4.717  -3.680   5.349  0.00  0.00    -0.291 OA
BRANCH  21  23
ATOM     23  C   UNL     1       5.754  -1.971   4.156  0.00  0.00    +0.018 A 
ATOM     24  C   UNL     1       6.202  -1.513   2.912  0.00  0.00    +0.013 A 
ATOM     25  C   UNL     1       6.805  -0.278   2.812  0.00  0.00    +0.020 A 
ATOM     26  C   UNL     1       6.969   0.509   3.941  0.00  0.00    +0.041 A 
ATOM     27  C   UNL     1       6.528   0.062   5.176  0.00  0.00    +0.020 A 
ATOM     28  C   UNL     1       5.918  -1.168   5.290  0.00  0.00    +0.013 A 
ATOM     29 CL   UNL     1       7.731   2.063   3.806  0.00  0.00    -0.084 Cl
ENDBRANCH  21  23
ENDBRANCH  20  21
ENDBRANCH  19  20
ENDBRANCH   8  19
TORSDOF 6
