REMARK  Name = ZINC62417808
REMARK  9 active torsions:
REMARK  status: ('A' for Active; 'I' for Inactive)
REMARK    1  A    between atoms: C_1  and  C_2
REMARK    2  A    between atoms: C_2  and  N_3
REMARK    3  A    between atoms: N_6  and  C_9
REMARK    4  A    between atoms: C_12  and  N_16
REMARK    5  A    between atoms: C_13  and  C_15
REMARK    6  A    between atoms: N_16  and  C_17
REMARK    7  A    between atoms: C_20  and  S_26
REMARK    8  A    between atoms: C_22  and  N_23
REMARK    9  A    between atoms: S_26  and  N_29
REMARK                            x       y       z     vdW  Elec       q    Type
REMARK                         _______ _______ _______ _____ _____    ______ ____
ROOT
ATOM      1  N   UNL     1      -6.643  -5.334  -3.979  0.00  0.00    -0.313 N 
ATOM      2  H   UNL     1      -6.600  -6.285  -3.792  0.00  0.00    +0.152 HD
ENDROOT
BRANCH   1   6
ATOM      3  C   UNL     1      -4.627  -2.631  -1.528  0.00  0.00    +0.030 A 
ATOM      4  C   UNL     1      -5.459  -2.165  -2.538  0.00  0.00    +0.025 A 
ATOM      5  C   UNL     1      -6.127  -3.060  -3.349  0.00  0.00    +0.025 A 
ATOM      6  C   UNL     1      -5.966  -4.426  -3.156  0.00  0.00    +0.034 A 
ATOM      7  C   UNL     1      -5.133  -4.892  -2.147  0.00  0.00    -0.028 A 
ATOM      8  C   UNL     1      -4.462  -3.996  -1.338  0.00  0.00    +0.028 A 
ATOM      9  C   UNL     1      -4.959  -6.374  -1.938  0.00  0.00    +0.046 C 
BRANCH   3  13
ATOM     10  N   UNL     1      -3.448   0.046   1.400  0.00  0.00    +0.382 N 
ATOM     11  C   UNL     1      -3.572  -1.390   1.680  0.00  0.00    -0.060 C 
ATOM     12  C   UNL     1      -3.154  -2.189   0.441  0.00  0.00    +0.086 C 
ATOM     13  N   UNL     1      -3.950  -1.723  -0.705  0.00  0.00    -0.333 N 
ATOM     14  C   UNL     1      -4.014  -0.276  -0.962  0.00  0.00    +0.086 C 
ATOM     15  C   UNL     1      -4.391   0.433   0.343  0.00  0.00    -0.060 C 
ATOM     16  H   UNL     1      -2.506   0.247   1.098  0.00  0.00    -0.082 HD
BRANCH  10  18
ATOM     17  C   UNL     1      -2.686   0.500   3.682  0.00  0.00    -0.017 C 
ATOM     18  C   UNL     1      -3.743   0.809   2.620  0.00  0.00    -0.082 C 
ENDBRANCH  10  18
ENDBRANCH   3  13
ENDBRANCH   1   6
BRANCH   1  19
ATOM     19  C   UNL     1      -7.382  -4.871  -5.071  0.00  0.00    +0.062 A 
ATOM     20  C   UNL     1      -8.760  -4.729  -4.969  0.00  0.00    +0.027 A 
ATOM     21  C   UNL     1      -9.487  -4.271  -6.050  0.00  0.00    +0.030 A 
ATOM     22  C   UNL     1      -8.844  -3.954  -7.233  0.00  0.00    +0.108 A 
ATOM     23  C   UNL     1      -7.473  -4.095  -7.338  0.00  0.00    +0.063 A 
ATOM     24  C   UNL     1      -6.739  -4.547  -6.259  0.00  0.00    +0.149 A 
BRANCH  24  25
ATOM     25  N   UNL     1      -5.270  -4.691  -6.370  0.00  0.00    +0.058 N 
ATOM     26  O   UNL     1      -4.717  -4.458  -7.420  0.00  0.00    -0.126 OA
ATOM     27  O   UNL     1      -4.623  -5.042  -5.411  0.00  0.00    -0.126 OA
ENDBRANCH  24  25
BRANCH  22  28
ATOM     28  S   UNL     1      -9.776  -3.371  -8.611  0.00  0.00    +0.061 S 
ATOM     29  O   UNL     1      -9.010  -3.663  -9.772  0.00  0.00    -0.153 OA
ATOM     30  O   UNL     1     -11.103  -3.846  -8.434  0.00  0.00    -0.153 OA
BRANCH  28  31
ATOM     31  N   UNL     1      -9.844  -1.721  -8.492  0.00  0.00    -0.172 NA
ATOM     32  C   UNL     1     -10.932  -1.059  -7.755  0.00  0.00    +0.137 C 
ATOM     33  C   UNL     1     -10.312  -0.059  -6.772  0.00  0.00    +0.177 C 
ATOM     34  O   UNL     1      -9.411   0.797  -7.478  0.00  0.00    -0.377 OA
ATOM     35  C   UNL     1      -8.302   0.118  -8.071  0.00  0.00    +0.177 C 
ATOM     36  C   UNL     1      -8.816  -0.873  -9.115  0.00  0.00    +0.137 C 
ENDBRANCH  28  31
ENDBRANCH  22  28
ENDBRANCH   1  19
TORSDOF 7
