REMARK  Name = ZINC39653910
REMARK  12 active torsions:
REMARK  status: ('A' for Active; 'I' for Inactive)
REMARK    1  A    between atoms: C_1  and  C_2
REMARK    2  A    between atoms: C_2  and  O_3
REMARK    3  A    between atoms: O_3  and  C_4
REMARK    4  A    between atoms: C_7  and  C_10
REMARK    5  A    between atoms: C_10  and  C_11
REMARK    6  A    between atoms: C_11  and  N_12
REMARK    7  A    between atoms: C_13  and  C_15
REMARK    8  A    between atoms: C_26  and  C_28
REMARK    9  A    between atoms: C_32  and  O_35
REMARK   10  A    between atoms: C_33  and  C_34
REMARK   11  A    between atoms: O_35  and  C_36
REMARK   12  A    between atoms: C_36  and  C_38
REMARK                            x       y       z     vdW  Elec       q    Type
REMARK                         _______ _______ _______ _____ _____    ______ ____
ROOT
ATOM      1  C   UNL     1      -1.136 -10.658  -3.612  0.00  0.00    +0.100 C 
ATOM      2  C   UNL     1       0.071 -10.843  -4.559  0.00  0.00    +0.121 C 
ATOM      3  N   UNL     1      -0.281 -12.019  -5.389  0.00  0.00    -0.296 N 
ATOM      4  C   UNL     1      -1.728 -11.856  -5.664  0.00  0.00    +0.115 C 
ATOM      5  C   UNL     1      -2.315 -11.323  -4.341  0.00  0.00    -0.004 C 
ATOM      6  C   UNL     1      -3.408 -10.297  -4.626  0.00  0.00    -0.010 C 
ATOM      7  C   UNL     1      -4.594 -10.994  -5.298  0.00  0.00    -0.082 C 
ATOM      8  N   UNL     1      -5.105 -12.053  -4.419  0.00  0.00    +0.379 N 
ATOM      9  C   UNL     1      -4.078 -13.083  -4.226  0.00  0.00    -0.082 C 
ATOM     10  C   UNL     1      -2.870 -12.475  -3.508  0.00  0.00    -0.010 C 
ATOM     11  C   UNL     1       0.532 -13.013  -5.800  0.00  0.00    +0.247 C 
ATOM     12  O   UNL     1       0.114 -13.865  -6.560  0.00  0.00    -0.270 OA
ATOM     13  H   UNL     1      -5.353 -11.655  -3.525  0.00  0.00    -0.086 HD
ATOM     14  H   UNL     1      -5.923 -12.469  -4.837  0.00  0.00    -0.086 HD
ENDROOT
BRANCH  11  15
ATOM     15  C   UNL     1       1.932 -13.066  -5.328  0.00  0.00    +0.043 A 
ATOM     16  C   UNL     1       2.651 -11.886  -5.131  0.00  0.00    +0.013 A 
ATOM     17  C   UNL     1       3.957 -11.939  -4.690  0.00  0.00    +0.004 A 
ATOM     18  C   UNL     1       4.558 -13.160  -4.442  0.00  0.00    +0.047 A 
ATOM     19  C   UNL     1       3.851 -14.339  -4.635  0.00  0.00    +0.135 A 
ATOM     20  C   UNL     1       2.538 -14.296  -5.072  0.00  0.00    +0.004 A 
ATOM     21  C   UNL     1       1.767 -15.575  -5.277  0.00  0.00    +0.048 C 
BRANCH  19  22
ATOM     22  O   UNL     1       4.447 -15.536  -4.389  0.00  0.00    -0.426 OA
BRANCH  22  23
ATOM     23  C   UNL     1       5.040 -16.167  -5.415  0.00  0.00    +0.309 C 
ATOM     24  O   UNL     1       5.114 -15.628  -6.494  0.00  0.00    -0.251 OA
ATOM     25  C   UNL     1       5.612 -17.548  -5.221  0.00  0.00    +0.136 C 
ENDBRANCH  22  23
ENDBRANCH  19  22
ENDBRANCH  11  15
BRANCH   1  27
ATOM     26  N   UNL     1      -2.006  -8.780  -2.258  0.00  0.00    -0.315 N 
ATOM     27  C   UNL     1      -1.413  -9.193  -3.396  0.00  0.00    +0.218 C 
ATOM     28  O   UNL     1      -1.102  -8.384  -4.245  0.00  0.00    -0.275 OA
ATOM     29  H   UNL     1      -2.254  -9.426  -1.578  0.00  0.00    +0.149 HD
BRANCH  26  30
ATOM     30  C   UNL     1      -2.275  -7.355  -2.047  0.00  0.00    +0.109 C 
BRANCH  30  31
ATOM     31  C   UNL     1      -2.948  -7.159  -0.687  0.00  0.00    +0.054 C 
BRANCH  31  35
ATOM     32  C   UNL     1      -3.733  -3.004  -0.072  0.00  0.00    +0.121 A 
ATOM     33  C   UNL     1      -4.683  -3.807  -0.687  0.00  0.00    +0.046 A 
ATOM     34  C   UNL     1      -4.426  -5.149  -0.885  0.00  0.00    +0.007 A 
ATOM     35  C   UNL     1      -3.225  -5.694  -0.470  0.00  0.00    -0.046 A 
ATOM     36  C   UNL     1      -2.277  -4.896   0.143  0.00  0.00    +0.007 A 
ATOM     37  C   UNL     1      -2.526  -3.551   0.338  0.00  0.00    +0.046 A 
BRANCH  32  38
ATOM     38  O   UNL     1      -3.983  -1.682   0.123  0.00  0.00    -0.492 OA
BRANCH  38  40
ATOM     39  C   UNL     1      -5.345   0.309  -0.021  0.00  0.00    +0.048 C 
ATOM     40  C   UNL     1      -5.247  -1.188  -0.324  0.00  0.00    +0.225 C 
ENDBRANCH  38  40
ENDBRANCH  32  38
ENDBRANCH  31  35
ENDBRANCH  30  31
ENDBRANCH  26  30
ENDBRANCH   1  27
TORSDOF 9
