REMARK  Name = ZINC05494834
REMARK  4 active torsions:
REMARK  status: ('A' for Active; 'I' for Inactive)
REMARK    1  A    between atoms: C_10  and  O_24
REMARK    2  A    between atoms: C_12  and  O_23
REMARK    3  A    between atoms: C_14  and  O_22
REMARK    4  A    between atoms: C_16  and  O_21
REMARK                            x       y       z     vdW  Elec       q    Type
REMARK                         _______ _______ _______ _____ _____    ______ ____
ROOT
ATOM      1  C   UNL     1       6.813   2.700   2.857  0.00  0.00    +0.000 C 
ATOM      2  C   UNL     1       5.920   1.623   2.235  0.00  0.00    +0.005 C 
ATOM      3  C   UNL     1       4.468   2.103   2.232  0.00  0.00    +0.065 C 
ATOM      4  C   UNL     1       4.360   3.391   1.410  0.00  0.00    +0.171 C 
ATOM      5  C   UNL     1       5.251   4.469   2.037  0.00  0.00    +0.065 C 
ATOM      6  C   UNL     1       6.703   3.988   2.040  0.00  0.00    +0.005 C 
ATOM      7  O   UNL     1       3.003   3.844   1.408  0.00  0.00    -0.340 OA
ATOM      8  C   UNL     1       2.514   3.729   0.075  0.00  0.00    +0.184 C 
ATOM      9  C   UNL     1       1.155   3.087  -0.017  0.00  0.00    +0.177 C 
ATOM     10  C   UNL     1       1.286   1.562  -0.002  0.00  0.00    +0.176 C 
ATOM     11  C   UNL     1       2.035   1.159  -1.270  0.00  0.00    +0.176 C 
ATOM     12  C   UNL     1       3.429   1.734  -1.295  0.00  0.00    +0.177 C 
ATOM     13  C   UNL     1       3.613   3.140  -0.780  0.00  0.00    +0.184 C 
ATOM     14  O   UNL     1       4.786   3.143   0.069  0.00  0.00    -0.340 OA
ENDROOT
BRANCH  12  15
ATOM     15  O   UNL     1       4.294   0.859  -0.566  0.00  0.00    -0.386 OA
ATOM     16  H   UNL     1       4.339  -0.038  -0.924  0.00  0.00    +0.210 HD
ENDBRANCH  12  15
BRANCH  11  17
ATOM     17  O   UNL     1       2.112  -0.267  -1.335  0.00  0.00    -0.386 OA
ATOM     18  H   UNL     1       1.251  -0.706  -1.356  0.00  0.00    +0.210 HD
ENDBRANCH  11  17
BRANCH  10  19
ATOM     19  O   UNL     1      -0.011   0.963   0.007  0.00  0.00    -0.386 OA
ATOM     20  H   UNL     1       0.002  -0.004   0.002  0.00  0.00    +0.210 HD
ENDBRANCH  10  19
BRANCH   9  21
ATOM     21  O   UNL     1       0.363   3.502   1.098  0.00  0.00    -0.386 OA
ATOM     22  H   UNL     1      -0.532   3.136   1.103  0.00  0.00    +0.210 HD
ENDBRANCH   9  21
TORSDOF 4
