REMARK  Name = ZINC57991575
REMARK  4 active torsions:
REMARK  status: ('A' for Active; 'I' for Inactive)
REMARK    1  A    between atoms: C_4  and  N_20
REMARK    2  A    between atoms: C_5  and  C_7
REMARK    3  A    between atoms: C_7  and  N_8
REMARK    4  A    between atoms: N_11  and  C_12
REMARK                            x       y       z     vdW  Elec       q    Type
REMARK                         _______ _______ _______ _____ _____    ______ ____
ROOT
ATOM      1  N   UNL     1       1.505  -2.679   1.331  0.00  0.00    -0.295 N 
ATOM      2  C   UNL     1       1.559  -4.005   1.568  0.00  0.00    +0.304 C 
ATOM      3  O   UNL     1       1.395  -4.792   0.656  0.00  0.00    -0.252 OA
ATOM      4  N   UNL     1       1.793  -4.457   2.815  0.00  0.00    -0.268 N 
ATOM      5  H   UNL     1       1.636  -2.051   2.058  0.00  0.00    +0.151 HD
ATOM      6  H   UNL     1       1.988  -3.831   3.530  0.00  0.00    +0.156 HD
ENDROOT
BRANCH   4   7
ATOM      7  C   UNL     1       1.755  -5.832   3.080  0.00  0.00    +0.049 A 
ATOM      8  C   UNL     1       2.190  -6.737   2.121  0.00  0.00    +0.025 A 
ATOM      9  C   UNL     1       2.152  -8.092   2.385  0.00  0.00    +0.017 A 
ATOM     10  C   UNL     1       1.681  -8.549   3.603  0.00  0.00    +0.019 A 
ATOM     11  C   UNL     1       1.246  -7.650   4.560  0.00  0.00    +0.032 A 
ATOM     12  C   UNL     1       1.287  -6.293   4.304  0.00  0.00    +0.040 A 
ATOM     13 BR   UNL     1       0.700  -5.064   5.616  0.00  0.00    -0.048 Br
ATOM     14 BR   UNL     1       1.630 -10.405   3.959  0.00  0.00    -0.050 Br
ENDBRANCH   4   7
BRANCH   1  15
ATOM     15  C   UNL     1       1.251  -2.187  -0.025  0.00  0.00    +0.143 C 
BRANCH  15  20
ATOM     16  C   UNL     1       0.031   1.386  -0.004  0.00  0.00    +0.000 A 
ATOM     17  C   UNL     1       1.224   2.085  -0.010  0.00  0.00    +0.002 A 
ATOM     18  C   UNL     1       2.425   1.402  -0.022  0.00  0.00    +0.033 A 
ATOM     19  C   UNL     1       2.434   0.019  -0.026  0.00  0.00    +0.131 A 
ATOM     20  C   UNL     1       1.241  -0.680  -0.019  0.00  0.00    -0.000 A 
ATOM     21  C   UNL     1       0.040   0.004  -0.009  0.00  0.00    +0.007 A 
BRANCH  19  22
ATOM     22  N   UNL     1       3.720  -0.713  -0.040  0.00  0.00    +0.057 N 
ATOM     23  O   UNL     1       4.763  -0.102  -0.047  0.00  0.00    -0.126 OA
ATOM     24  O   UNL     1       3.728  -1.922  -0.044  0.00  0.00    -0.126 OA
ENDBRANCH  19  22
ENDBRANCH  15  20
ENDBRANCH   1  15
TORSDOF 4
