REMARK  Name = ZINC09210816
REMARK  10 active torsions:
REMARK  status: ('A' for Active; 'I' for Inactive)
REMARK    1  A    between atoms: C_1  and  O_2
REMARK    2  A    between atoms: O_2  and  C_3
REMARK    3  A    between atoms: C_7  and  C_9
REMARK    4  A    between atoms: C_16  and  N_33
REMARK    5  A    between atoms: C_17  and  C_31
REMARK    6  A    between atoms: C_18  and  C_20
REMARK    7  A    between atoms: C_22  and  O_29
REMARK    8  A    between atoms: C_23  and  O_27
REMARK    9  A    between atoms: O_27  and  C_28
REMARK   10  A    between atoms: O_29  and  C_30
REMARK                            x       y       z     vdW  Elec       q    Type
REMARK                         _______ _______ _______ _____ _____    ______ ____
ROOT
ATOM      1  C   UNL     1       1.543  -4.533  -2.366  0.00  0.00    +0.074 A 
ATOM      2  C   UNL     1       1.036  -5.084  -3.496  0.00  0.00    +0.054 A 
ATOM      3  C   UNL     1       1.115  -6.485  -3.372  0.00  0.00    +0.245 A 
ATOM      4  N   UNL     1       1.647  -6.766  -2.217  0.00  0.00    -0.135 NA
ATOM      5  N   UNL     1       1.935  -5.561  -1.556  0.00  0.00    -0.273 N 
ATOM      6  H   UNL     1       2.339  -5.474  -0.678  0.00  0.00    +0.189 HD
ATOM      7  O   UNL     1       0.677  -7.320  -4.354  0.00  0.00    -0.421 OA
ATOM      8  C   UNL     1      -0.080  -6.786  -5.332  0.00  0.00    +0.201 C 
ATOM      9  C   UNL     1      -0.221  -5.463  -5.554  0.00  0.00    +0.098 C 
ATOM     10  C   UNL     1       0.469  -4.413  -4.720  0.00  0.00    +0.103 C 
ENDROOT
BRANCH  10  11
ATOM     11  C   UNL     1       1.581  -3.781  -5.516  0.00  0.00    -0.017 A 
ATOM     12  C   UNL     1       2.669  -4.542  -5.906  0.00  0.00    +0.055 A 
ATOM     13  C   UNL     1       3.692  -3.963  -6.638  0.00  0.00    +0.162 A 
ATOM     14  C   UNL     1       3.624  -2.616  -6.981  0.00  0.00    +0.163 A 
ATOM     15  C   UNL     1       2.532  -1.859  -6.588  0.00  0.00    +0.065 A 
ATOM     16  C   UNL     1       1.511  -2.444  -5.861  0.00  0.00    +0.026 A 
ATOM     17 BR   UNL     1       0.018  -1.411  -5.331  0.00  0.00    -0.050 Br
BRANCH  14  18
ATOM     18  O   UNL     1       4.627  -2.043  -7.699  0.00  0.00    -0.491 OA
ATOM     19  C   UNL     1       4.489  -0.656  -8.014  0.00  0.00    +0.277 C 
ENDBRANCH  14  18
BRANCH  13  20
ATOM     20  O   UNL     1       4.762  -4.710  -7.021  0.00  0.00    -0.491 OA
ATOM     21  C   UNL     1       4.765  -6.085  -6.634  0.00  0.00    +0.277 C 
ENDBRANCH  13  20
ENDBRANCH  10  11
BRANCH   1  26
ATOM     22  C   UNL     1       2.963  -1.207  -1.339  0.00  0.00    +0.121 A 
ATOM     23  C   UNL     1       1.862  -0.380  -1.512  0.00  0.00    +0.045 A 
ATOM     24  C   UNL     1       0.663  -0.902  -1.961  0.00  0.00    +0.004 A 
ATOM     25  C   UNL     1       0.554  -2.250  -2.240  0.00  0.00    +0.010 A 
ATOM     26  C   UNL     1       1.656  -3.088  -2.068  0.00  0.00    +0.004 A 
ATOM     27  C   UNL     1       2.866  -2.559  -1.621  0.00  0.00    +0.055 A 
BRANCH  22  29
ATOM     28  C   UNL     1       4.169   0.715  -0.626  0.00  0.00    +0.277 C 
ATOM     29  O   UNL     1       4.140  -0.688  -0.898  0.00  0.00    -0.495 OA
ENDBRANCH  22  29
ENDBRANCH   1  26
BRANCH   8  30
ATOM     30  N   UNL     1      -0.755  -7.648  -6.160  0.00  0.00    -0.328 N 
ATOM     31  H   UNL     1      -0.677  -8.606  -6.030  0.00  0.00    +0.145 HD
ATOM     32  H   UNL     1      -1.310  -7.299  -6.875  0.00  0.00    +0.145 HD
ENDBRANCH   8  30
BRANCH   9  33
ATOM     33  C   UNL     1      -1.064  -5.036  -6.630  0.00  0.00    +0.101 C 
ATOM     34  N   UNL     1      -1.732  -4.697  -7.484  0.00  0.00    -0.191 NA
ENDBRANCH   9  33
TORSDOF 7
