REMARK  Name = ZINC20907017
REMARK  7 active torsions:
REMARK  status: ('A' for Active; 'I' for Inactive)
REMARK    1  A    between atoms: C_1  and  C_2
REMARK    2  A    between atoms: C_6  and  C_8
REMARK    3  A    between atoms: C_8  and  S_9
REMARK    4  A    between atoms: S_9  and  C_10
REMARK    5  A    between atoms: N_16  and  N_17
REMARK    6  A    between atoms: C_18  and  C_19
REMARK    7  A    between atoms: C_28  and  O_29
REMARK                            x       y       z     vdW  Elec       q    Type
REMARK                         _______ _______ _______ _____ _____    ______ ____
ROOT
ATOM      1  C   UNL     1       1.622  -4.015   4.517  0.00  0.00    +0.191 A 
ATOM      2  N   UNL     1       2.655  -4.453   5.295  0.00  0.00    -0.303 N 
ATOM      3  H   UNL     1       3.599  -4.331   5.111  0.00  0.00    +0.171 HD
ATOM      4  C   UNL     1       2.124  -5.095   6.380  0.00  0.00    +0.235 A 
ATOM      5  N   UNL     1       0.818  -5.053   6.276  0.00  0.00    -0.111 NA
ATOM      6  N   UNL     1       0.499  -4.365   5.098  0.00  0.00    -0.121 NA
ATOM      7  N   UNL     1       2.842  -5.685   7.410  0.00  0.00    -0.205 N 
ATOM      8  H   UNL     1       3.812  -5.665   7.399  0.00  0.00    +0.177 HD
ENDROOT
BRANCH   7   9
ATOM      9  N   UNL     1       2.166  -6.311   8.465  0.00  0.00    -0.187 NA
ATOM     10  C   UNL     1       2.839  -6.865   9.430  0.00  0.00    +0.142 C 
BRANCH  10  11
ATOM     11  C   UNL     1       2.130  -7.522  10.538  0.00  0.00    +0.044 A 
ATOM     12  C   UNL     1       2.870  -8.144  11.634  0.00  0.00    -0.006 A 
ATOM     13  C   UNL     1       4.270  -8.136  11.667  0.00  0.00    +0.009 A 
ATOM     14  C   UNL     1       4.923  -8.727  12.708  0.00  0.00    +0.001 A 
ATOM     15  C   UNL     1       4.216  -9.340  13.740  0.00  0.00    +0.001 A 
ATOM     16  C   UNL     1       2.854  -9.366  13.738  0.00  0.00    +0.008 A 
ATOM     17  C   UNL     1       2.149  -8.766  12.681  0.00  0.00    -0.017 A 
ATOM     18  C   UNL     1       0.743  -8.774  12.646  0.00  0.00    +0.012 A 
ATOM     19  C   UNL     1       0.070  -8.191  11.618  0.00  0.00    +0.046 A 
ATOM     20  C   UNL     1       0.736  -7.560  10.568  0.00  0.00    +0.126 A 
BRANCH  20  21
ATOM     21  O   UNL     1       0.023  -6.985   9.566  0.00  0.00    -0.506 OA
ATOM     22  H   UNL     1      -0.172  -7.581   8.830  0.00  0.00    +0.292 HD
ENDBRANCH  20  21
ENDBRANCH  10  11
ENDBRANCH   7   9
BRANCH   1  23
ATOM     23  S   UNL     1       1.770  -3.127   3.002  0.00  0.00    -0.081 S 
BRANCH  23  24
ATOM     24  C   UNL     1       0.054  -2.845   2.489  0.00  0.00    +0.112 C 
BRANCH  24  30
ATOM     25  C   UNL     1      -0.018   1.503   0.010  0.00  0.00    +0.044 C 
ATOM     26  C   UNL     1       0.002  -0.004   0.002  0.00  0.00    -0.050 A 
ATOM     27  C   UNL     1       0.006  -0.689  -1.199  0.00  0.00    +0.003 A 
ATOM     28  C   UNL     1       0.025  -2.071  -1.207  0.00  0.00    +0.001 A 
ATOM     29  C   UNL     1       0.040  -2.768  -0.013  0.00  0.00    +0.004 A 
ATOM     30  C   UNL     1       0.037  -2.084   1.188  0.00  0.00    -0.037 A 
ATOM     31  C   UNL     1       0.023  -0.702   1.195  0.00  0.00    +0.007 A 
ENDBRANCH  24  30
ENDBRANCH  23  24
ENDBRANCH   1  23
TORSDOF 6
