REMARK  Name = ZINC61638354
REMARK  5 active torsions:
REMARK  status: ('A' for Active; 'I' for Inactive)
REMARK    1  A    between atoms: C_1  and  C_2
REMARK    2  A    between atoms: C_2  and  C_3
REMARK    3  A    between atoms: C_3  and  C_19
REMARK    4  A    between atoms: N_6  and  C_10
REMARK    5  A    between atoms: C_10  and  C_11
REMARK                            x       y       z     vdW  Elec       q    Type
REMARK                         _______ _______ _______ _____ _____    ______ ____
ROOT
ATOM      1  C   UNL     1       0.718  -0.497  -1.257  0.00  0.00    +0.110 C 
ATOM      2  C   UNL     1       0.848  -2.008  -1.239  0.00  0.00    +0.247 C 
ATOM      3  O   UNL     1      -0.051  -2.820  -1.221  0.00  0.00    -0.273 OA
ATOM      4  N   UNL     1       2.172  -2.259  -1.248  0.00  0.00    -0.218 N 
ATOM      5  C   UNL     1       2.889  -1.130  -1.269  0.00  0.00    +0.310 C 
ATOM      6  O   UNL     1       4.104  -1.101  -1.280  0.00  0.00    -0.252 OA
ATOM      7  N   UNL     1       2.115  -0.030  -1.275  0.00  0.00    -0.285 N 
ATOM      8  C   UNL     1      -0.022  -0.032  -2.513  0.00  0.00    +0.041 C 
ATOM      9  H   UNL     1       2.418   0.892  -1.290  0.00  0.00    +0.151 HD
ENDROOT
BRANCH   1  11
ATOM     10  C   UNL     1      -0.019   1.526   0.010  0.00  0.00    +0.006 C 
ATOM     11  C   UNL     1       0.002  -0.004   0.002  0.00  0.00    +0.031 C 
ENDBRANCH   1  11
BRANCH   4  12
ATOM     12  C   UNL     1       2.754  -3.604  -1.236  0.00  0.00    +0.174 C 
BRANCH  12  13
ATOM     13  C   UNL     1       2.941  -4.083  -2.652  0.00  0.00    +0.079 A 
ATOM     14  C   UNL     1       1.920  -4.774  -3.280  0.00  0.00    +0.064 A 
ATOM     15  C   UNL     1       2.102  -5.210  -4.585  0.00  0.00    +0.025 A 
ATOM     16  C   UNL     1       3.307  -4.936  -5.211  0.00  0.00    +0.041 A 
ATOM     17  C   UNL     1       4.283  -4.240  -4.519  0.00  0.00    +0.130 A 
ATOM     18  N   UNL     1       4.073  -3.835  -3.280  0.00  0.00    -0.237 NA
ATOM     19 CL   UNL     1       5.798  -3.890  -5.291  0.00  0.00    -0.062 Cl
ATOM     20 CL   UNL     1       0.430  -5.090  -2.447  0.00  0.00    -0.082 Cl
ENDBRANCH  12  13
ENDBRANCH   4  12
TORSDOF 3
