REMARK  Name = ZINC09425223
REMARK  19 active torsions:
REMARK  status: ('A' for Active; 'I' for Inactive)
REMARK    1  A    between atoms: C_1  and  C_2
REMARK    2  A    between atoms: C_2  and  C_3
REMARK    3  A    between atoms: C_3  and  C_4
REMARK    4  A    between atoms: C_4  and  C_5
REMARK    5  A    between atoms: C_5  and  O_6
REMARK    6  A    between atoms: O_6  and  C_7
REMARK    7  A    between atoms: C_11  and  C_13
REMARK    8  A    between atoms: C_15  and  C_28
REMARK    9  A    between atoms: C_16  and  O_27
REMARK   10  A    between atoms: N_19  and  C_20
REMARK   11  A    between atoms: C_20  and  C_21
REMARK   12  A    between atoms: C_21  and  C_22
REMARK   13  A    between atoms: C_22  and  N_81
REMARK   14  A    between atoms: C_23  and  C_24
REMARK   15  A    between atoms: C_23  and  N_81
REMARK   16  A    between atoms: C_25  and  C_26
REMARK   17  A    between atoms: C_25  and  N_81
REMARK   18  A    between atoms: C_28  and  C_30
REMARK   19  A    between atoms: C_37  and  C_40
REMARK                            x       y       z     vdW  Elec       q    Type
REMARK                         _______ _______ _______ _____ _____    ______ ____
ROOT
ATOM      1  C   UNL     1      -0.160  -0.965  -0.824  0.00  0.00    +0.145 C 
ATOM      2  C   UNL     1       0.905   0.097  -0.966  0.00  0.00    +0.071 C 
ATOM      3  C   UNL     1       2.094  -0.511  -0.750  0.00  0.00    +0.188 C 
ATOM      4  C   UNL     1       1.862  -1.942  -0.460  0.00  0.00    +0.282 C 
ATOM      5  O   UNL     1       2.733  -2.755  -0.219  0.00  0.00    -0.267 OA
ATOM      6  N   UNL     1       0.545  -2.212  -0.505  0.00  0.00    -0.284 N 
ENDROOT
BRANCH   1  11
ATOM      7  C   UNL     1      -3.248   0.184   1.026  0.00  0.00    +0.121 A 
ATOM      8  C   UNL     1      -2.841   0.057   2.346  0.00  0.00    +0.045 A 
ATOM      9  C   UNL     1      -1.569  -0.401   2.634  0.00  0.00    +0.004 A 
ATOM     10  C   UNL     1      -0.705  -0.736   1.608  0.00  0.00    +0.006 A 
ATOM     11  C   UNL     1      -1.107  -0.604   0.292  0.00  0.00    -0.019 A 
ATOM     12  C   UNL     1      -2.377  -0.147  -0.001  0.00  0.00    +0.051 A 
BRANCH   7  13
ATOM     13  O   UNL     1      -4.499   0.633   0.740  0.00  0.00    -0.492 OA
BRANCH  13  14
ATOM     14  C   UNL     1      -5.341   0.956   1.849  0.00  0.00    +0.229 C 
BRANCH  14  15
ATOM     15  C   UNL     1      -6.698   1.440   1.333  0.00  0.00    +0.041 C 
BRANCH  15  16
ATOM     16  C   UNL     1      -7.600   1.786   2.520  0.00  0.00    +0.003 C 
BRANCH  16  18
ATOM     17  C   UNL     1      -9.859   2.616   3.191  0.00  0.00    +0.004 C 
ATOM     18  C   UNL     1      -8.957   2.270   2.005  0.00  0.00    -0.003 C 
ENDBRANCH  16  18
ENDBRANCH  15  16
ENDBRANCH  14  15
ENDBRANCH  13  14
ENDBRANCH   7  13
ENDBRANCH   1  11
BRANCH   3  19
ATOM     19  O   UNL     1       3.303   0.094  -0.790  0.00  0.00    -0.502 OA
ATOM     20  H   UNL     1       4.019  -0.576  -0.595  0.00  0.00    +0.292 HD
ENDBRANCH   3  19
BRANCH   2  21
ATOM     21  C   UNL     1       0.691   1.513  -1.283  0.00  0.00    +0.195 C 
ATOM     22  O   UNL     1       0.953   2.367  -0.457  0.00  0.00    -0.287 OA
BRANCH  21  23
ATOM     23  C   UNL     1       0.159   1.901  -2.603  0.00  0.00    +0.023 A 
ATOM     24  C   UNL     1      -0.063   0.932  -3.587  0.00  0.00    +0.015 A 
ATOM     25  C   UNL     1      -0.550   1.296  -4.819  0.00  0.00    +0.046 A 
ATOM     26  C   UNL     1      -0.838   2.634  -5.098  0.00  0.00    +0.124 A 
ATOM     27  C   UNL     1      -0.621   3.594  -4.113  0.00  0.00    -0.002 A 
ATOM     28  C   UNL     1      -0.128   3.242  -2.882  0.00  0.00    +0.019 A 
ATOM     29  C   UNL     1      -1.030   4.931  -4.700  0.00  0.00    +0.083 C 
ATOM     30  C   UNL     1      -1.851   4.499  -5.938  0.00  0.00    +0.175 C 
ATOM     31  O   UNL     1      -1.313   3.200  -6.240  0.00  0.00    -0.488 OA
ATOM     32  C   UNL     1      -3.339   4.402  -5.595  0.00  0.00    +0.052 C 
ENDBRANCH  21  23
ENDBRANCH   2  21
BRANCH   6  33
ATOM     33  C   UNL     1      -0.075  -3.519  -0.277  0.00  0.00    +0.107 C 
BRANCH  33  34
ATOM     34  C   UNL     1      -0.182  -4.272  -1.604  0.00  0.00    +0.000 C 
BRANCH  34  35
ATOM     35  C   UNL     1      -0.830  -5.638  -1.365  0.00  0.00    -0.077 C 
BRANCH  35  36
ATOM     36  N   UNL     1      -0.945  -6.343  -2.659  0.00  0.00    +0.379 N 
ATOM     37  H   UNL     1      -1.406  -5.725  -3.337  0.00  0.00    -0.082 HD
BRANCH  36  38
ATOM     38  C   UNL     1       0.399  -6.692  -3.166  0.00  0.00    -0.082 C 
ATOM     39  C   UNL     1       1.123  -7.611  -2.179  0.00  0.00    -0.017 C 
ENDBRANCH  36  38
BRANCH  36  40
ATOM     40  C   UNL     1      -1.757  -7.568  -2.496  0.00  0.00    -0.082 C 
ATOM     41  C   UNL     1      -2.086  -8.129  -3.881  0.00  0.00    -0.017 C 
ENDBRANCH  36  40
ENDBRANCH  35  36
ENDBRANCH  34  35
ENDBRANCH  33  34
ENDBRANCH   6  33
TORSDOF 15
