REMARK  Name = ZINC59385589
REMARK  5 active torsions:
REMARK  status: ('A' for Active; 'I' for Inactive)
REMARK    1  A    between atoms: C_1  and  C_2
REMARK    2  A    between atoms: C_3  and  C_16
REMARK    3  A    between atoms: C_4  and  C_10
REMARK    4  A    between atoms: N_18  and  N_19
REMARK    5  A    between atoms: C_20  and  C_21
REMARK                            x       y       z     vdW  Elec       q    Type
REMARK                         _______ _______ _______ _____ _____    ______ ____
ROOT
ATOM      1  C   UNL     1      -0.039   1.491   0.091  0.00  0.00    +0.061 C 
ATOM      2  C   UNL     1      -0.009  -0.015   0.030  0.00  0.00    +0.019 C 
ATOM      3  C   UNL     1      -1.170  -0.703   0.033  0.00  0.00    +0.057 C 
ATOM      4  C   UNL     1      -1.094  -2.215  -0.030  0.00  0.00    +0.142 C 
ATOM      5  N   UNL     1       0.250  -2.814  -0.090  0.00  0.00    -0.288 N 
ATOM      6  C   UNL     1       1.319  -1.993  -0.085  0.00  0.00    +0.304 C 
ATOM      7  O   UNL     1       2.433  -2.478  -0.134  0.00  0.00    -0.252 OA
ATOM      8  N   UNL     1       1.194  -0.661  -0.034  0.00  0.00    -0.273 N 
ATOM      9  H   UNL     1       0.363  -3.776  -0.131  0.00  0.00    +0.151 HD
ATOM     10  H   UNL     1       2.002  -0.124  -0.038  0.00  0.00    +0.156 HD
ENDROOT
BRANCH   4  11
ATOM     11  C   UNL     1      -1.794  -2.766   1.185  0.00  0.00    -0.023 A 
ATOM     12  C   UNL     1      -1.188  -2.690   2.425  0.00  0.00    +0.006 A 
ATOM     13  C   UNL     1      -1.830  -3.195   3.541  0.00  0.00    +0.000 A 
ATOM     14  C   UNL     1      -3.078  -3.776   3.415  0.00  0.00    +0.000 A 
ATOM     15  C   UNL     1      -3.684  -3.851   2.175  0.00  0.00    +0.000 A 
ATOM     16  C   UNL     1      -3.044  -3.342   1.061  0.00  0.00    +0.006 A 
ENDBRANCH   4  11
BRANCH   3  17
ATOM     17  C   UNL     1      -2.417  -0.034   0.093  0.00  0.00    +0.263 C 
ATOM     18  O   UNL     1      -3.077   0.117  -0.919  0.00  0.00    -0.269 OA
ATOM     19  N   UNL     1      -2.873   0.436   1.271  0.00  0.00    -0.203 N 
ATOM     20  H   UNL     1      -2.316   0.383   2.063  0.00  0.00    +0.178 HD
BRANCH  19  21
ATOM     21  N   UNL     1      -4.152   1.001   1.351  0.00  0.00    -0.187 NA
ATOM     22  C   UNL     1      -4.592   1.454   2.486  0.00  0.00    +0.138 C 
BRANCH  22  23
ATOM     23  C   UNL     1      -5.939   2.049   2.570  0.00  0.00    -0.004 A 
ATOM     24  C   UNL     1      -6.747   2.121   1.433  0.00  0.00    +0.009 A 
ATOM     25  C   UNL     1      -8.005   2.679   1.518  0.00  0.00    +0.002 A 
ATOM     26  C   UNL     1      -8.469   3.166   2.728  0.00  0.00    +0.015 A 
ATOM     27  C   UNL     1      -7.674   3.098   3.859  0.00  0.00    +0.018 A 
ATOM     28  C   UNL     1      -6.415   2.537   3.789  0.00  0.00    +0.024 A 
ATOM     29 BR   UNL     1      -8.318   3.767   5.506  0.00  0.00    -0.050 Br
ENDBRANCH  22  23
ENDBRANCH  19  21
ENDBRANCH   3  17
TORSDOF 4
