REMARK  Name = ZINC12410105
REMARK  4 active torsions:
REMARK  status: ('A' for Active; 'I' for Inactive)
REMARK    1  A    between atoms: C_1  and  C_2
REMARK    2  A    between atoms: C_6  and  N_9
REMARK    3  A    between atoms: C_11  and  C_18
REMARK    4  A    between atoms: C_14  and  C_17
REMARK                            x       y       z     vdW  Elec       q    Type
REMARK                         _______ _______ _______ _____ _____    ______ ____
ROOT
ATOM      1  N   UNL     1      -0.095  -2.280   2.859  0.00  0.00    +0.385 N 
ATOM      2  C   UNL     1      -0.672  -3.626   2.991  0.00  0.00    -0.047 C 
ATOM      3  C   UNL     1      -0.885  -3.943   4.474  0.00  0.00    +0.099 C 
ATOM      4  O   UNL     1       0.363  -3.836   5.163  0.00  0.00    -0.378 OA
ATOM      5  C   UNL     1       0.977  -2.549   5.044  0.00  0.00    +0.099 C 
ATOM      6  C   UNL     1       1.194  -2.230   3.562  0.00  0.00    -0.047 C 
ATOM      7  C   UNL     1       2.324  -2.556   5.769  0.00  0.00    +0.036 C 
ATOM      8  C   UNL     1      -1.430  -5.365   4.619  0.00  0.00    +0.036 C 
ATOM      9  H   UNL     1      -0.725  -1.603   3.261  0.00  0.00    -0.081 HD
ENDROOT
BRANCH   1  14
ATOM     10  C   UNL     1      -0.019   1.526   0.010  0.00  0.00    +0.007 C 
ATOM     11  C   UNL     1       0.002  -0.004   0.002  0.00  0.00    -0.016 C 
ATOM     12  C   UNL     1      -1.434  -0.573   0.112  0.00  0.00    +0.001 C 
ATOM     13  C   UNL     1      -1.237  -1.988   0.694  0.00  0.00    -0.015 C 
ATOM     14  C   UNL     1       0.111  -1.974   1.437  0.00  0.00    -0.068 C 
ATOM     15  C   UNL     1       0.690  -0.551   1.278  0.00  0.00    -0.012 C 
ENDBRANCH   1  14
TORSDOF 1
