REMARK  Name = ZINC02205298
REMARK  3 active torsions:
REMARK  status: ('A' for Active; 'I' for Inactive)
REMARK    1  A    between atoms: C_1  and  C_2
REMARK    2  A    between atoms: C_5  and  C_8
REMARK    3  A    between atoms: C_11  and  O_28
REMARK                            x       y       z     vdW  Elec       q    Type
REMARK                         _______ _______ _______ _____ _____    ______ ____
ROOT
ATOM      1  C   UNL     1       0.059  -4.275  -0.021  0.00  0.00    +0.062 C 
ATOM      2  C   UNL     1      -1.167  -4.812   0.717  0.00  0.00    +0.108 C 
ATOM      3  C   UNL     1      -1.036  -4.669   2.206  0.00  0.00    +0.189 C 
ATOM      4  N   UNL     1       0.107  -4.813   2.820  0.00  0.00    -0.210 NA
ATOM      5  C   UNL     1       1.215  -5.003   2.082  0.00  0.00    +0.111 A 
ATOM      6  C   UNL     1       1.306  -4.779   0.703  0.00  0.00    +0.015 A 
ATOM      7  C   UNL     1       2.521  -5.033   0.099  0.00  0.00    +0.054 A 
ATOM      8  C   UNL     1       3.573  -5.470   0.927  0.00  0.00    +0.097 A 
ATOM      9  S   UNL     1       2.843  -5.527   2.539  0.00  0.00    -0.062 S 
ATOM     10  C   UNL     1       4.858  -5.758   0.471  0.00  0.00    +0.254 C 
ATOM     11  O   UNL     1       5.697  -6.255   1.202  0.00  0.00    -0.270 OA
ATOM     12  N   UNL     1       5.133  -5.461  -0.824  0.00  0.00    -0.290 N 
ATOM     13  C   UNL     1       4.222  -4.652  -1.634  0.00  0.00    +0.099 C 
ATOM     14  N   UNL     1       2.817  -4.894  -1.277  0.00  0.00    -0.322 N 
ATOM     15  C   UNL     1       4.423  -4.998  -3.113  0.00  0.00    +0.045 C 
ATOM     16  C   UNL     1       5.877  -4.731  -3.504  0.00  0.00    +0.004 C 
ATOM     17  C   UNL     1       6.202  -3.252  -3.284  0.00  0.00    +0.000 C 
ATOM     18  C   UNL     1       5.995  -2.899  -1.810  0.00  0.00    +0.004 C 
ATOM     19  C   UNL     1       4.540  -3.169  -1.419  0.00  0.00    +0.045 C 
ATOM     20  H   UNL     1       5.953  -5.792  -1.222  0.00  0.00    +0.151 HD
ATOM     21  H   UNL     1       2.124  -4.955  -1.954  0.00  0.00    +0.148 HD
ENDROOT
BRANCH   1  26
ATOM     22  C   UNL     1      -0.018   1.503   0.010  0.00  0.00    +0.044 C 
ATOM     23  C   UNL     1       0.002  -0.004   0.002  0.00  0.00    -0.050 A 
ATOM     24  C   UNL     1       0.006  -0.689  -1.199  0.00  0.00    +0.003 A 
ATOM     25  C   UNL     1       0.025  -2.071  -1.206  0.00  0.00    +0.004 A 
ATOM     26  C   UNL     1       0.040  -2.768  -0.013  0.00  0.00    -0.039 A 
ATOM     27  C   UNL     1       0.037  -2.084   1.188  0.00  0.00    +0.004 A 
ATOM     28  C   UNL     1       0.023  -0.702   1.195  0.00  0.00    +0.003 A 
ENDBRANCH   1  26
BRANCH   3  29
ATOM     29  O   UNL     1      -2.135  -4.382   2.932  0.00  0.00    -0.495 OA
ATOM     30  H   UNL     1      -1.970  -4.306   3.882  0.00  0.00    +0.293 HD
ENDBRANCH   3  29
TORSDOF 2
