REMARK  Name = ZINC64218925
REMARK  9 active torsions:
REMARK  status: ('A' for Active; 'I' for Inactive)
REMARK    1  A    between atoms: C_1  and  C_2
REMARK    2  A    between atoms: C_4  and  C_12
REMARK    3  A    between atoms: C_17  and  C_19
REMARK    4  A    between atoms: C_21  and  O_29
REMARK    5  A    between atoms: C_22  and  O_27
REMARK    6  A    between atoms: C_23  and  O_25
REMARK    7  A    between atoms: O_25  and  C_26
REMARK    8  A    between atoms: O_27  and  C_28
REMARK    9  A    between atoms: O_29  and  C_30
REMARK                            x       y       z     vdW  Elec       q    Type
REMARK                         _______ _______ _______ _____ _____    ______ ____
ROOT
ATOM      1  C   UNL     1       0.571  -0.262  -2.681  0.00  0.00    +0.041 C 
ATOM      2  C   UNL     1       1.354  -0.911  -3.631  0.00  0.00    +0.152 C 
ATOM      3  C   UNL     1       2.390  -1.943  -3.386  0.00  0.00    +0.364 C 
ATOM      4  O   UNL     1       2.736  -2.401  -2.315  0.00  0.00    -0.243 OA
ATOM      5  O   UNL     1       2.865  -2.263  -4.610  0.00  0.00    -0.402 OA
ATOM      6  C   UNL     1       2.211  -1.525  -5.527  0.00  0.00    +0.232 C 
ATOM      7  N   UNL     1       1.325  -0.737  -4.966  0.00  0.00    -0.205 NA
ENDROOT
BRANCH   1  10
ATOM      8  C   UNL     1       0.371  -3.336  -1.938  0.00  0.00    +0.035 C 
ATOM      9  C   UNL     1       0.803  -2.221  -0.984  0.00  0.00    +0.107 C 
ATOM     10  C   UNL     1       0.282  -0.887  -1.472  0.00  0.00    -0.014 C 
ATOM     11  C   UNL     1      -0.549  -0.416  -0.454  0.00  0.00    +0.003 A 
ATOM     12  C   UNL     1      -1.317   0.759  -0.315  0.00  0.00    +0.010 A 
ATOM     13  C   UNL     1      -2.047   0.958   0.812  0.00  0.00    +0.001 A 
ATOM     14  C   UNL     1      -2.061   0.022   1.852  0.00  0.00    +0.002 A 
ATOM     15  C   UNL     1      -1.349  -1.127   1.789  0.00  0.00    +0.026 A 
ATOM     16  C   UNL     1      -0.559  -1.407   0.639  0.00  0.00    +0.043 A 
ATOM     17  N   UNL     1       0.208  -2.431   0.339  0.00  0.00    -0.378 N 
ATOM     18  H   UNL     1       0.358  -3.205   0.905  0.00  0.00    +0.160 HD
ENDBRANCH   1  10
BRANCH   6  19
ATOM     19  C   UNL     1       2.457  -1.597  -6.976  0.00  0.00    +0.044 A 
ATOM     20  C   UNL     1       1.729  -0.783  -7.852  0.00  0.00    +0.062 A 
ATOM     21  C   UNL     1       1.962  -0.853  -9.212  0.00  0.00    +0.166 A 
ATOM     22  C   UNL     1       2.920  -1.733  -9.712  0.00  0.00    +0.204 A 
ATOM     23  C   UNL     1       3.646  -2.545  -8.842  0.00  0.00    +0.166 A 
ATOM     24  C   UNL     1       3.422  -2.475  -7.481  0.00  0.00    +0.062 A 
BRANCH  23  25
ATOM     25  O   UNL     1       4.579  -3.403  -9.335  0.00  0.00    -0.491 OA
ATOM     26  C   UNL     1       5.286  -4.206  -8.387  0.00  0.00    +0.277 C 
ENDBRANCH  23  25
BRANCH  22  27
ATOM     27  O   UNL     1       3.146  -1.800 -11.050  0.00  0.00    -0.488 OA
ATOM     28  C   UNL     1       4.142  -0.925 -11.584  0.00  0.00    +0.277 C 
ENDBRANCH  22  27
BRANCH  21  29
ATOM     29  O   UNL     1       1.256  -0.062 -10.063  0.00  0.00    -0.491 OA
ATOM     30  C   UNL     1       0.290   0.816  -9.483  0.00  0.00    +0.277 C 
ENDBRANCH  21  29
ENDBRANCH   6  19
TORSDOF 5
