REMARK  Name = ZINC02656144
REMARK  5 active torsions:
REMARK  status: ('A' for Active; 'I' for Inactive)
REMARK    1  A    between atoms: C_9  and  C_11
REMARK    2  A    between atoms: C_11  and  S_12
REMARK    3  A    between atoms: S_12  and  C_13
REMARK    4  A    between atoms: C_20  and  C_22
REMARK    5  A    between atoms: C_22  and  N_54
REMARK                            x       y       z     vdW  Elec       q    Type
REMARK                         _______ _______ _______ _____ _____    ______ ____
ROOT
ATOM      1  C   UNL     1       6.502   0.357   1.583  0.00  0.00    +0.109 A 
ATOM      2  C   UNL     1       6.680   1.506   2.403  0.00  0.00    +0.043 A 
ATOM      3  C   UNL     1       7.888   2.328   2.577  0.00  0.00    -0.025 A 
ATOM      4  C   UNL     1       7.796   3.372   3.416  0.00  0.00    -0.004 A 
ATOM      5  S   UNL     1       6.125   3.333   4.022  0.00  0.00    -0.073 S 
ATOM      6  C   UNL     1       5.552   1.905   3.142  0.00  0.00    +0.113 A 
ATOM      7  N   UNL     1       4.411   1.246   3.069  0.00  0.00    -0.227 NA
ATOM      8  C   UNL     1       4.305   0.186   2.291  0.00  0.00    +0.115 A 
ATOM      9  N   UNL     1       5.324  -0.248   1.573  0.00  0.00    -0.227 NA
ATOM     10  C   UNL     1       9.087   4.140   3.511  0.00  0.00    +0.043 C 
ATOM     11  C   UNL     1       9.898   3.689   2.277  0.00  0.00    +0.010 C 
ATOM     12  C   UNL     1       9.310   2.290   2.010  0.00  0.00    +0.037 C 
ENDROOT
BRANCH   1  13
ATOM     13  S   UNL     1       7.831  -0.255   0.601  0.00  0.00    -0.099 S 
BRANCH  13  14
ATOM     14  C   UNL     1       7.018  -1.670  -0.182  0.00  0.00    +0.131 C 
BRANCH  14  23
ATOM     15  C   UNL     1      10.640  -4.121  -3.733  0.00  0.00    +0.104 A 
ATOM     16  C   UNL     1      10.865  -3.464  -4.871  0.00  0.00    +0.067 A 
ATOM     17  S   UNL     1       9.820  -2.029  -4.676  0.00  0.00    -0.058 S 
ATOM     18  C   UNL     1       9.165  -2.434  -3.072  0.00  0.00    +0.180 A 
ATOM     19  N   UNL     1       9.776  -3.626  -2.786  0.00  0.00    -0.262 N 
ATOM     20  C   UNL     1       9.463  -4.199  -1.586  0.00  0.00    +0.259 A 
ATOM     21  O   UNL     1       9.970  -5.263  -1.266  0.00  0.00    -0.267 OA
ATOM     22  C   UNL     1       8.567  -3.565  -0.725  0.00  0.00    +0.095 A 
ATOM     23  C   UNL     1       7.993  -2.368  -1.095  0.00  0.00    +0.059 A 
ATOM     24  N   UNL     1       8.319  -1.836  -2.271  0.00  0.00    -0.227 NA
ENDBRANCH  14  23
ENDBRANCH  13  14
ENDBRANCH   1  13
BRANCH   8  25
ATOM     25  C   UNL     1       2.991  -0.550   2.226  0.00  0.00    -0.001 C 
BRANCH  25  31
ATOM     26  C   UNL     1       0.793  -0.505   1.212  0.00  0.00    -0.078 C 
ATOM     27  C   UNL     1       0.002  -0.004   0.002  0.00  0.00    -0.019 C 
ATOM     28  C   UNL     1      -0.019   1.527   0.010  0.00  0.00    -0.004 C 
ATOM     29  C   UNL     1       1.421   2.049  -0.001  0.00  0.00    -0.019 C 
ATOM     30  C   UNL     1       2.171   1.488   1.210  0.00  0.00    -0.078 C 
ATOM     31  N   UNL     1       2.176   0.012   1.129  0.00  0.00    +0.384 N 
ATOM     32  H   UNL     1       2.584  -0.271   0.231  0.00  0.00    -0.081 HD
ENDBRANCH  25  31
ENDBRANCH   8  25
TORSDOF 5
