REMARK  Name = ZINC09580742
REMARK  4 active torsions:
REMARK  status: ('A' for Active; 'I' for Inactive)
REMARK    1  A    between atoms: C_10  and  C_13
REMARK    2  A    between atoms: C_13  and  C_14
REMARK    3  A    between atoms: N_16  and  C_17
REMARK    4  A    between atoms: C_20  and  C_23
REMARK                            x       y       z     vdW  Elec       q    Type
REMARK                         _______ _______ _______ _____ _____    ______ ____
ROOT
ATOM      1  C   UNL     1       3.474   3.213  -0.342  0.00  0.00    +0.219 C 
ATOM      2  O   UNL     1       3.400   2.061  -0.716  0.00  0.00    -0.275 OA
ATOM      3  N   UNL     1       2.356   3.883   0.001  0.00  0.00    -0.285 N 
ATOM      4  H   UNL     1       2.405   4.825   0.227  0.00  0.00    +0.155 HD
ENDROOT
BRANCH   3   5
ATOM      5  C   UNL     1       1.125   3.221   0.030  0.00  0.00    +0.033 A 
ATOM      6  C   UNL     1       1.080   1.851   0.261  0.00  0.00    +0.024 A 
ATOM      7  C   UNL     1      -0.132   1.195   0.290  0.00  0.00    +0.013 A 
ATOM      8  C   UNL     1      -1.314   1.907   0.081  0.00  0.00    +0.019 A 
ATOM      9  C   UNL     1      -1.266   3.284  -0.146  0.00  0.00    +0.013 A 
ATOM     10  C   UNL     1      -0.051   3.934  -0.173  0.00  0.00    +0.024 A 
BRANCH   8  11
ATOM     11  C   UNL     1      -2.616   1.206   0.105  0.00  0.00    +0.164 A 
ATOM     12  N   UNL     1      -3.800   1.754   0.275  0.00  0.00    -0.129 NA
ATOM     13  N   UNL     1      -4.711   0.845   0.230  0.00  0.00    -0.134 NA
ATOM     14  C   UNL     1      -4.165  -0.322   0.035  0.00  0.00    +0.134 A 
ATOM     15  N   UNL     1      -2.820  -0.136  -0.040  0.00  0.00    -0.311 N 
ATOM     16  C   UNL     1      -1.806  -1.173  -0.227  0.00  0.00    +0.125 C 
ATOM     17  C   UNL     1      -2.416  -2.346  -1.000  0.00  0.00    +0.022 C 
ATOM     18  C   UNL     1      -3.036  -3.342  -0.021  0.00  0.00    +0.002 C 
ATOM     19  C   UNL     1      -4.156  -2.683   0.777  0.00  0.00    +0.008 C 
ATOM     20  C   UNL     1      -4.871  -1.647  -0.096  0.00  0.00    +0.076 C 
ENDBRANCH   8  11
ENDBRANCH   3   5
BRANCH   1  21
ATOM     21  C   UNL     1       4.816   3.893  -0.260  0.00  0.00    +0.120 C 
BRANCH  21  31
ATOM     22  C   UNL     1       7.193   6.239  -4.533  0.00  0.00    +0.002 A 
ATOM     23  C   UNL     1       6.210   5.470  -5.130  0.00  0.00    +0.001 A 
ATOM     24  C   UNL     1       5.748   4.331  -4.498  0.00  0.00    +0.016 A 
ATOM     25  C   UNL     1       6.269   3.964  -3.268  0.00  0.00    +0.030 A 
ATOM     26  C   UNL     1       7.256   4.737  -2.657  0.00  0.00    +0.047 A 
ATOM     27  C   UNL     1       7.715   5.878  -3.307  0.00  0.00    +0.024 A 
ATOM     28  N   UNL     1       7.784   4.406  -1.412  0.00  0.00    -0.284 N 
ATOM     29  C   UNL     1       7.261   3.563  -0.528  0.00  0.00    +0.231 C 
ATOM     30  O   UNL     1       7.902   3.300   0.467  0.00  0.00    -0.274 OA
ATOM     31  C   UNL     1       5.910   2.919  -0.700  0.00  0.00    +0.146 C 
ATOM     32  S   UNL     1       5.689   2.506  -2.458  0.00  0.00    -0.110 S 
ATOM     33  H   UNL     1       8.618   4.834  -1.165  0.00  0.00    +0.155 HD
ENDBRANCH  21  31
ENDBRANCH   1  21
TORSDOF 4
