REMARK  Name = ZINC39838437
REMARK  8 active torsions:
REMARK  status: ('A' for Active; 'I' for Inactive)
REMARK    1  A    between atoms: C_1  and  C_2
REMARK    2  A    between atoms: C_2  and  C_3
REMARK    3  A    between atoms: C_3  and  C_4
REMARK    4  A    between atoms: C_4  and  C_5
REMARK    5  A    between atoms: C_5  and  C_6
REMARK    6  A    between atoms: C_6  and  O_7
REMARK    7  A    between atoms: O_7  and  C_8
REMARK    8  A    between atoms: C_11  and  C_14
REMARK                            x       y       z     vdW  Elec       q    Type
REMARK                         _______ _______ _______ _____ _____    ______ ____
ROOT
ATOM      1  C   UNL     1       2.666 -10.133   4.226  0.00  0.00    +0.151 C 
ATOM      2  C   UNL     1       1.653 -10.628   5.206  0.00  0.00    +0.072 A 
ATOM      3  C   UNL     1       0.188 -10.569   5.194  0.00  0.00    +0.199 A 
ATOM      4  O   UNL     1      -0.458 -10.218   4.223  0.00  0.00    -0.287 OA
ATOM      5  C   UNL     1      -0.433 -10.977   6.480  0.00  0.00    +0.066 A 
ATOM      6  C   UNL     1      -1.798 -10.786   6.695  0.00  0.00    +0.035 A 
ATOM      7  C   UNL     1      -2.357 -11.166   7.896  0.00  0.00    +0.042 A 
ATOM      8  C   UNL     1      -1.563 -11.735   8.884  0.00  0.00    +0.023 A 
ATOM      9  C   UNL     1      -0.216 -11.929   8.681  0.00  0.00    +0.048 A 
ATOM     10  C   UNL     1       0.373 -11.555   7.473  0.00  0.00    +0.140 A 
ATOM     11  O   UNL     1       1.698 -11.766   7.297  0.00  0.00    -0.450 OA
ATOM     12  C   UNL     1       2.326 -11.210   6.243  0.00  0.00    +0.199 A 
ATOM     13  C   UNL     1       3.770 -11.104   5.973  0.00  0.00    +0.288 C 
ATOM     14  O   UNL     1       4.647 -11.521   6.704  0.00  0.00    -0.266 OA
ATOM     15  N   UNL     1       3.979 -10.477   4.796  0.00  0.00    -0.238 N 
ATOM     16  C   UNL     1       5.218 -10.204   4.220  0.00  0.00    +0.129 A 
ATOM     17  C   UNL     1       5.284  -9.452   3.052  0.00  0.00    +0.045 A 
ATOM     18  C   UNL     1       6.520  -9.188   2.491  0.00  0.00    +0.025 A 
ATOM     19  C   UNL     1       7.654  -9.687   3.120  0.00  0.00    +0.059 A 
ATOM     20  C   UNL     1       7.514 -10.427   4.279  0.00  0.00    +0.132 A 
ATOM     21  N   UNL     1       6.321 -10.659   4.793  0.00  0.00    -0.238 NA
ATOM     22 CL   UNL     1       9.230  -9.385   2.457  0.00  0.00    -0.082 Cl
ATOM     23 CL   UNL     1      -4.055 -10.934   8.175  0.00  0.00    -0.084 Cl
ENDROOT
BRANCH   1  27
ATOM     24  C   UNL     1       2.324  -5.897   3.768  0.00  0.00    +0.121 A 
ATOM     25  C   UNL     1       1.781  -6.746   2.813  0.00  0.00    +0.046 A 
ATOM     26  C   UNL     1       1.893  -8.114   2.964  0.00  0.00    +0.009 A 
ATOM     27  C   UNL     1       2.545  -8.639   4.065  0.00  0.00    -0.022 A 
ATOM     28  C   UNL     1       3.086  -7.796   5.018  0.00  0.00    +0.009 A 
ATOM     29  C   UNL     1       2.982  -6.426   4.869  0.00  0.00    +0.046 A 
BRANCH  24  30
ATOM     30  O   UNL     1       2.215  -4.551   3.622  0.00  0.00    -0.492 OA
BRANCH  30  31
ATOM     31  C   UNL     1       1.524  -4.077   2.464  0.00  0.00    +0.229 C 
BRANCH  31  32
ATOM     32  C   UNL     1       1.503  -2.548   2.473  0.00  0.00    +0.041 C 
BRANCH  32  33
ATOM     33  C   UNL     1       0.763  -2.041   1.233  0.00  0.00    +0.003 C 
BRANCH  33  34
ATOM     34  C   UNL     1       0.742  -0.511   1.242  0.00  0.00    -0.000 C 
BRANCH  34  36
ATOM     35  C   UNL     1      -0.019   1.526   0.010  0.00  0.00    +0.004 C 
ATOM     36  C   UNL     1       0.002  -0.004   0.002  0.00  0.00    -0.003 C 
ENDBRANCH  34  36
ENDBRANCH  33  34
ENDBRANCH  32  33
ENDBRANCH  31  32
ENDBRANCH  30  31
ENDBRANCH  24  30
ENDBRANCH   1  27
TORSDOF 7
