REMARK  Name = ZINC39322039
REMARK  9 active torsions:
REMARK  status: ('A' for Active; 'I' for Inactive)
REMARK    1  A    between atoms: C_1  and  C_2
REMARK    2  A    between atoms: C_3  and  C_14
REMARK    3  A    between atoms: C_4  and  O_5
REMARK    4  A    between atoms: N_6  and  C_8
REMARK    5  A    between atoms: C_14  and  C_16
REMARK    6  A    between atoms: C_14  and  C_22
REMARK    7  A    between atoms: C_23  and  C_35
REMARK    8  A    between atoms: N_25  and  C_29
REMARK    9  A    between atoms: C_26  and  O_28
REMARK                            x       y       z     vdW  Elec       q    Type
REMARK                         _______ _______ _______ _____ _____    ______ ____
ROOT
ATOM      1  C   UNL     1       0.025  -0.256  -2.766  0.00  0.00    +0.087 C 
ENDROOT
BRANCH   1   2
ATOM      2  C   UNL     1       1.267  -0.566  -3.560  0.00  0.00    +0.008 C 
ATOM      3  C   UNL     1       2.037   0.308  -4.174  0.00  0.00    +0.023 C 
ATOM      4  N   UNL     1       3.099  -0.301  -4.813  0.00  0.00    -0.266 N 
ATOM      5  N   UNL     1       3.052  -1.690  -4.622  0.00  0.00    -0.221 N 
ATOM      6  C   UNL     1       1.861  -1.938  -3.791  0.00  0.00    +0.250 C 
ATOM      7  C   UNL     1       1.788   1.794  -4.179  0.00  0.00    +0.062 C 
ATOM      8  H   UNL     1       3.781   0.165  -5.322  0.00  0.00    +0.170 HD
BRANCH   5   9
ATOM      9  C   UNL     1       3.950  -2.640  -5.113  0.00  0.00    +0.051 A 
ATOM     10  C   UNL     1       3.758  -3.987  -4.837  0.00  0.00    +0.025 A 
ATOM     11  C   UNL     1       4.647  -4.924  -5.325  0.00  0.00    +0.002 A 
ATOM     12  C   UNL     1       5.729  -4.522  -6.086  0.00  0.00    +0.000 A 
ATOM     13  C   UNL     1       5.924  -3.181  -6.362  0.00  0.00    +0.002 A 
ATOM     14  C   UNL     1       5.035  -2.239  -5.883  0.00  0.00    +0.025 A 
ENDBRANCH   5   9
BRANCH   6  15
ATOM     15  O   UNL     1       0.934  -2.771  -4.489  0.00  0.00    -0.369 OA
ATOM     16  H   UNL     1       1.263  -3.664  -4.664  0.00  0.00    +0.212 HD
ENDBRANCH   6  15
ENDBRANCH   1   2
BRANCH   1  19
ATOM     17  C   UNL     1       2.748  -0.295  -1.151  0.00  0.00    +0.068 C 
ATOM     18  C   UNL     1       1.407  -0.744  -0.631  0.00  0.00    +0.068 A 
ATOM     19  C   UNL     1       0.205  -0.726  -1.346  0.00  0.00    +0.048 A 
ATOM     20  C   UNL     1      -0.772  -1.209  -0.533  0.00  0.00    +0.220 A 
ATOM     21  N   UNL     1      -0.195  -1.520   0.659  0.00  0.00    -0.200 N 
ATOM     22  N   UNL     1       1.171  -1.223   0.564  0.00  0.00    -0.168 NA
BRANCH  21  23
ATOM     23  C   UNL     1      -0.849  -2.048   1.780  0.00  0.00    +0.069 A 
ATOM     24  C   UNL     1      -2.154  -1.668   2.068  0.00  0.00    +0.028 A 
ATOM     25  C   UNL     1      -2.796  -2.191   3.174  0.00  0.00    +0.002 A 
ATOM     26  C   UNL     1      -2.141  -3.091   3.994  0.00  0.00    +0.000 A 
ATOM     27  C   UNL     1      -0.842  -3.471   3.710  0.00  0.00    +0.002 A 
ATOM     28  C   UNL     1      -0.197  -2.957   2.602  0.00  0.00    +0.028 A 
ENDBRANCH  21  23
BRANCH  20  29
ATOM     29  O   UNL     1      -2.083  -1.354  -0.852  0.00  0.00    -0.492 OA
ATOM     30  H   UNL     1      -2.318  -2.241  -1.156  0.00  0.00    +0.294 HD
ENDBRANCH  20  29
ENDBRANCH   1  19
BRANCH   1  31
ATOM     31  C   UNL     1      -1.155  -0.961  -3.383  0.00  0.00    -0.036 A 
ATOM     32  C   UNL     1      -1.261  -2.337  -3.296  0.00  0.00    +0.004 A 
ATOM     33  C   UNL     1      -2.343  -2.984  -3.862  0.00  0.00    +0.000 A 
ATOM     34  C   UNL     1      -3.320  -2.256  -4.515  0.00  0.00    +0.000 A 
ATOM     35  C   UNL     1      -3.214  -0.881  -4.602  0.00  0.00    +0.000 A 
ATOM     36  C   UNL     1      -2.135  -0.233  -4.032  0.00  0.00    +0.004 A 
ENDBRANCH   1  31
TORSDOF 7
