REMARK  Name = ZINC06720176
REMARK  5 active torsions:
REMARK  status: ('A' for Active; 'I' for Inactive)
REMARK    1  A    between atoms: C_4  and  C_7
REMARK    2  A    between atoms: N_16  and  C_28
REMARK    3  A    between atoms: C_17  and  N_27
REMARK    4  A    between atoms: C_18  and  C_19
REMARK    5  A    between atoms: C_19  and  C_21
REMARK                            x       y       z     vdW  Elec       q    Type
REMARK                         _______ _______ _______ _____ _____    ______ ____
ROOT
ATOM      1  C   UNL     1      -2.681   2.226  -2.252  0.00  0.00    +0.091 C 
ATOM      2  C   UNL     1      -1.820   1.971  -1.040  0.00  0.00    +0.024 C 
ATOM      3  C   UNL     1      -0.481   1.851  -1.151  0.00  0.00    +0.024 C 
ATOM      4  C   UNL     1       0.377   1.575   0.060  0.00  0.00    +0.052 C 
ATOM      5  C   UNL     1      -0.266   2.204   1.298  0.00  0.00    +0.014 C 
ATOM      6  C   UNL     1      -1.670   1.617   1.468  0.00  0.00    +0.080 C 
ATOM      7  C   UNL     1      -2.457   1.859   0.209  0.00  0.00    +0.162 C 
ATOM      8  O   UNL     1      -3.666   1.960   0.273  0.00  0.00    -0.292 OA
ATOM      9  N   UNL     1       0.137   1.978  -2.368  0.00  0.00    -0.261 N 
ATOM     10  C   UNL     1      -0.498   2.603  -3.413  0.00  0.00    +0.100 C 
ATOM     11  C   UNL     1      -1.864   2.749  -3.397  0.00  0.00    +0.048 C 
ENDROOT
BRANCH   1  15
ATOM     12  C   UNL     1      -4.560  -1.425  -3.428  0.00  0.00    +0.000 A 
ATOM     13  C   UNL     1      -5.329  -0.359  -2.998  0.00  0.00    +0.000 A 
ATOM     14  C   UNL     1      -4.721   0.823  -2.617  0.00  0.00    +0.004 A 
ATOM     15  C   UNL     1      -3.344   0.938  -2.666  0.00  0.00    -0.035 A 
ATOM     16  C   UNL     1      -2.576  -0.126  -3.101  0.00  0.00    +0.004 A 
ATOM     17  C   UNL     1      -3.184  -1.309  -3.478  0.00  0.00    +0.000 A 
ENDBRANCH   1  15
BRANCH   9  18
ATOM     18  C   UNL     1       1.427   1.465  -2.548  0.00  0.00    +0.040 A 
ATOM     19  C   UNL     1       2.515   2.325  -2.611  0.00  0.00    +0.024 A 
ATOM     20  C   UNL     1       3.788   1.816  -2.784  0.00  0.00    +0.002 A 
ATOM     21  C   UNL     1       3.977   0.451  -2.904  0.00  0.00    +0.000 A 
ATOM     22  C   UNL     1       2.895  -0.408  -2.846  0.00  0.00    +0.002 A 
ATOM     23  C   UNL     1       1.621   0.095  -2.669  0.00  0.00    +0.024 A 
ENDBRANCH   9  18
BRANCH  10  24
ATOM     24  N   UNL     1       0.231   3.083  -4.470  0.00  0.00    -0.346 N 
ATOM     25  H   UNL     1      -0.223   3.463  -5.238  0.00  0.00    +0.143 HD
ATOM     26  H   UNL     1       1.199   3.041  -4.450  0.00  0.00    +0.143 HD
ENDBRANCH  10  24
BRANCH  11  27
ATOM     27  C   UNL     1      -2.504   3.395  -4.464  0.00  0.00    +0.193 C 
ATOM     28  O   UNL     1      -2.484   2.897  -5.578  0.00  0.00    -0.287 OA
BRANCH  27  29
ATOM     29  C   UNL     1      -3.203   4.681  -4.240  0.00  0.00    +0.022 A 
ATOM     30  C   UNL     1      -3.168   5.287  -2.984  0.00  0.00    +0.012 A 
ATOM     31  C   UNL     1      -3.817   6.488  -2.783  0.00  0.00    +0.001 A 
ATOM     32  C   UNL     1      -4.511   7.085  -3.821  0.00  0.00    +0.000 A 
ATOM     33  C   UNL     1      -4.554   6.486  -5.067  0.00  0.00    +0.001 A 
ATOM     34  C   UNL     1      -3.904   5.288  -5.282  0.00  0.00    +0.012 A 
ENDBRANCH  27  29
ENDBRANCH  11  27
TORSDOF 5
