REMARK  Name = ZINC67264242
REMARK  4 active torsions:
REMARK  status: ('A' for Active; 'I' for Inactive)
REMARK    1  A    between atoms: C_1  and  C_2
REMARK    2  A    between atoms: C_2  and  C_3
REMARK    3  A    between atoms: C_6  and  N_9
REMARK    4  A    between atoms: C_24  and  N_27
REMARK                            x       y       z     vdW  Elec       q    Type
REMARK                         _______ _______ _______ _____ _____    ______ ____
ROOT
ATOM      1  N   UNL     1       2.658  -1.833  -4.667  0.00  0.00    -0.227 N 
ATOM      2  C   UNL     1       4.008  -1.953  -4.670  0.00  0.00    +0.272 A 
ATOM      3  O   UNL     1       4.670  -1.675  -3.688  0.00  0.00    -0.266 OA
ATOM      4  C   UNL     1       4.637  -2.430  -5.904  0.00  0.00    +0.102 A 
ATOM      5  C   UNL     1       6.016  -2.595  -6.030  0.00  0.00    +0.131 A 
ATOM      6  N   UNL     1       6.493  -3.032  -7.183  0.00  0.00    -0.222 NA
ATOM      7  C   UNL     1       5.688  -3.311  -8.203  0.00  0.00    +0.220 A 
ATOM      8  N   UNL     1       4.373  -3.171  -8.133  0.00  0.00    -0.194 NA
ATOM      9  C   UNL     1       3.805  -2.736  -7.010  0.00  0.00    +0.175 A 
ATOM     10  N   UNL     1       2.476  -2.579  -6.890  0.00  0.00    -0.173 NA
ATOM     11  C   UNL     1       1.934  -2.155  -5.776  0.00  0.00    +0.358 A 
ATOM     12  O   UNL     1       0.592  -2.026  -5.725  0.00  0.00    -0.244 OA
ATOM     13  N   UNL     1       6.244  -3.764  -9.382  0.00  0.00    -0.300 N 
ATOM     14  C   UNL     1       5.394  -4.078 -10.539  0.00  0.00    +0.106 C 
ATOM     15  C   UNL     1       5.706  -5.504 -11.006  0.00  0.00    +0.004 C 
ATOM     16  C   UNL     1       7.207  -5.631 -11.276  0.00  0.00    -0.066 C 
ATOM     17  C   UNL     1       7.983  -5.366  -9.984  0.00  0.00    +0.004 C 
ATOM     18  C   UNL     1       7.698  -3.934  -9.507  0.00  0.00    +0.106 C 
ENDROOT
BRANCH  16  19
ATOM     19  N   UNL     1       7.504  -6.987 -11.756  0.00  0.00    +0.382 N 
ATOM     20  C   UNL     1       8.945  -7.111 -12.005  0.00  0.00    -0.078 C 
ATOM     21  C   UNL     1       9.272  -8.545 -12.428  0.00  0.00    -0.019 C 
ATOM     22  C   UNL     1       8.500  -8.883 -13.707  0.00  0.00    -0.004 C 
ATOM     23  C   UNL     1       7.003  -8.679 -13.456  0.00  0.00    -0.019 C 
ATOM     24  C   UNL     1       6.760  -7.240 -12.995  0.00  0.00    -0.078 C 
ATOM     25  H   UNL     1       7.227  -7.659 -11.056  0.00  0.00    -0.081 HD
ENDBRANCH  16  19
BRANCH   1  29
ATOM     26  C   UNL     1       0.708  -0.489  -1.238  0.00  0.00    -0.047 A 
ATOM     27  C   UNL     1       0.935  -1.841  -1.418  0.00  0.00    +0.005 A 
ATOM     28  C   UNL     1       1.580  -2.290  -2.553  0.00  0.00    +0.026 A 
ATOM     29  C   UNL     1       2.003  -1.381  -3.514  0.00  0.00    +0.054 A 
ATOM     30  C   UNL     1       1.774  -0.024  -3.331  0.00  0.00    +0.026 A 
ATOM     31  C   UNL     1       1.123   0.418  -2.196  0.00  0.00    +0.005 A 
BRANCH  26  33
ATOM     32  C   UNL     1      -1.506   0.032  -0.250  0.00  0.00    +0.009 C 
ATOM     33  C   UNL     1       0.003  -0.003   0.002  0.00  0.00    +0.032 C 
ENDBRANCH  26  33
ENDBRANCH   1  29
TORSDOF 3
