REMARK  Name = ZINC25415561
REMARK  8 active torsions:
REMARK  status: ('A' for Active; 'I' for Inactive)
REMARK    1  A    between atoms: C_1  and  C_2
REMARK    2  A    between atoms: C_5  and  C_8
REMARK    3  A    between atoms: C_9  and  C_34
REMARK    4  A    between atoms: C_17  and  C_19
REMARK    5  A    between atoms: C_19  and  N_20
REMARK    6  A    between atoms: C_24  and  C_26
REMARK    7  A    between atoms: C_29  and  O_32
REMARK    8  A    between atoms: O_32  and  C_33
REMARK                            x       y       z     vdW  Elec       q    Type
REMARK                         _______ _______ _______ _____ _____    ______ ____
ROOT
ATOM      1  C   UNL     1      -2.749   3.362   4.639  0.00  0.00    +0.007 A 
ATOM      2  C   UNL     1      -3.100   2.361   5.482  0.00  0.00    -0.003 A 
ATOM      3  S   UNL     1      -2.493   0.900   4.660  0.00  0.00    -0.073 S 
ATOM      4  C   UNL     1      -1.790   1.660   3.220  0.00  0.00    +0.116 A 
ATOM      5  C   UNL     1      -2.042   3.028   3.409  0.00  0.00    +0.080 A 
ATOM      6  C   UNL     1      -1.570   3.895   2.371  0.00  0.00    +0.260 A 
ATOM      7  O   UNL     1      -1.741   5.099   2.446  0.00  0.00    -0.267 OA
ATOM      8  N   UNL     1      -0.929   3.360   1.316  0.00  0.00    -0.312 N 
ATOM      9  H   UNL     1      -0.552   4.011   0.514  0.00  0.00    +0.170 HD
ATOM     10  C   UNL     1      -0.735   2.020   1.214  0.00  0.00    +0.094 A 
ATOM     11  N   UNL     1      -1.154   1.204   2.144  0.00  0.00    -0.229 NA
ATOM     12  C   UNL     1      -3.828   2.459   6.797  0.00  0.00    +0.052 C 
ENDROOT
BRANCH   1  17
ATOM     13  C   UNL     1      -4.029   8.834   5.894  0.00  0.00    +0.044 C 
ATOM     14  C   UNL     1      -3.694   7.402   5.565  0.00  0.00    -0.050 A 
ATOM     15  C   UNL     1      -4.710   6.494   5.329  0.00  0.00    +0.004 A 
ATOM     16  C   UNL     1      -4.410   5.181   5.028  0.00  0.00    +0.009 A 
ATOM     17  C   UNL     1      -3.079   4.771   4.962  0.00  0.00    -0.016 A 
ATOM     18  C   UNL     1      -2.059   5.690   5.207  0.00  0.00    +0.009 A 
ATOM     19  C   UNL     1      -2.372   7.001   5.501  0.00  0.00    +0.004 A 
ENDBRANCH   1  17
BRANCH  10  20
ATOM     20  C   UNL     1      -0.018   1.465   0.010  0.00  0.00    -0.002 C 
BRANCH  20  21
ATOM     21  N   UNL     1       0.198   0.023   0.190  0.00  0.00    +0.389 N 
ATOM     22  C   UNL     1       1.132  -0.238   1.306  0.00  0.00    -0.077 C 
ATOM     23  C   UNL     1       1.950  -1.487   0.928  0.00  0.00    -0.020 C 
ATOM     24  C   UNL     1       1.444  -1.891  -0.475  0.00  0.00    -0.013 C 
ATOM     25  C   UNL     1       0.828  -0.576  -1.014  0.00  0.00    -0.037 C 
ATOM     26  H   UNL     1      -0.796  -0.406   0.387  0.00  0.00    -0.080 HD
BRANCH  25  27
ATOM     27  C   UNL     1      -0.208  -0.866  -2.069  0.00  0.00    -0.061 A 
ATOM     28  C   UNL     1      -1.439  -1.379  -1.704  0.00  0.00    +0.005 A 
ATOM     29  C   UNL     1      -2.393  -1.641  -2.668  0.00  0.00    +0.046 A 
ATOM     30  C   UNL     1      -2.111  -1.400  -4.005  0.00  0.00    +0.120 A 
ATOM     31  C   UNL     1      -0.874  -0.890  -4.369  0.00  0.00    +0.046 A 
ATOM     32  C   UNL     1       0.075  -0.624  -3.400  0.00  0.00    +0.005 A 
BRANCH  30  33
ATOM     33  O   UNL     1      -3.046  -1.662  -4.956  0.00  0.00    -0.495 OA
ATOM     34  C   UNL     1      -4.298  -2.186  -4.508  0.00  0.00    +0.277 C 
ENDBRANCH  30  33
ENDBRANCH  25  27
ENDBRANCH  20  21
ENDBRANCH  10  20
TORSDOF 5
