REMARK  Name = ZINC12608515
REMARK  9 active torsions:
REMARK  status: ('A' for Active; 'I' for Inactive)
REMARK    1  A    between atoms: C_4  and  C_7
REMARK    2  A    between atoms: C_10  and  S_18
REMARK    3  A    between atoms: N_11  and  C_12
REMARK    4  A    between atoms: S_18  and  C_19
REMARK    5  A    between atoms: C_19  and  C_20
REMARK    6  A    between atoms: N_22  and  C_23
REMARK    7  A    between atoms: C_23  and  C_24
REMARK    8  A    between atoms: C_24  and  C_26
REMARK    9  A    between atoms: C_24  and  N_32
REMARK                            x       y       z     vdW  Elec       q    Type
REMARK                         _______ _______ _______ _____ _____    ______ ____
ROOT
ATOM      1  C   UNL     1       7.853  -3.279  -0.031  0.00  0.00    +0.173 C 
ENDROOT
BRANCH   1   2
ATOM      2  C   UNL     1       8.667  -4.546   0.028  0.00  0.00    +0.223 C 
ATOM      3  O   UNL     1       8.115  -5.615   0.180  0.00  0.00    -0.275 OA
ATOM      4  N   UNL     1      10.009  -4.490  -0.088  0.00  0.00    -0.316 N 
ATOM      5  H   UNL     1      10.450  -3.635  -0.209  0.00  0.00    +0.149 HD
BRANCH   4   6
ATOM      6  C   UNL     1      10.800  -5.722  -0.030  0.00  0.00    +0.093 C 
BRANCH   6   7
ATOM      7  C   UNL     1      12.272  -5.395  -0.293  0.00  0.00    -0.020 C 
BRANCH   7   8
ATOM      8  C   UNL     1      12.805  -4.541   0.829  0.00  0.00    -0.059 A 
ATOM      9  C   UNL     1      13.188  -5.127   2.021  0.00  0.00    +0.002 A 
ATOM     10  C   UNL     1      13.677  -4.344   3.050  0.00  0.00    +0.000 A 
ATOM     11  C   UNL     1      13.782  -2.975   2.887  0.00  0.00    +0.000 A 
ATOM     12  C   UNL     1      13.399  -2.390   1.694  0.00  0.00    +0.000 A 
ATOM     13  C   UNL     1      12.915  -3.173   0.664  0.00  0.00    +0.002 A 
ENDBRANCH   7   8
BRANCH   7  14
ATOM     14  N   UNL     1      13.044  -6.642  -0.368  0.00  0.00    +0.385 N 
ATOM     15  C   UNL     1      12.580  -7.464  -1.515  0.00  0.00    -0.078 C 
ATOM     16  C   UNL     1      13.788  -8.392  -1.799  0.00  0.00    -0.020 C 
ATOM     17  C   UNL     1      15.001  -7.467  -1.546  0.00  0.00    -0.020 C 
ATOM     18  C   UNL     1      14.468  -6.345  -0.636  0.00  0.00    -0.078 C 
ATOM     19  H   UNL     1      12.953  -7.161   0.492  0.00  0.00    -0.081 HD
ENDBRANCH   7  14
ENDBRANCH   6   7
ENDBRANCH   4   6
ENDBRANCH   1   2
BRANCH   1  20
ATOM     20  S   UNL     1       6.094  -3.681   0.154  0.00  0.00    -0.076 S 
BRANCH  20  24
ATOM     21  C   UNL     1       3.784  -0.529   0.030  0.00  0.00    +0.169 A 
ATOM     22  N   UNL     1       4.983  -0.016  -0.119  0.00  0.00    -0.128 NA
ATOM     23  N   UNL     1       5.867  -0.949  -0.099  0.00  0.00    -0.122 NA
ATOM     24  C   UNL     1       5.287  -2.117   0.065  0.00  0.00    +0.197 A 
ATOM     25  N   UNL     1       3.941  -1.892   0.159  0.00  0.00    -0.270 N 
BRANCH  21  29
ATOM     26  C   UNL     1       0.116   1.610   0.119  0.00  0.00    +0.000 A 
ATOM     27  C   UNL     1       1.313   2.289   0.261  0.00  0.00    +0.001 A 
ATOM     28  C   UNL     1       2.508   1.601   0.233  0.00  0.00    +0.011 A 
ATOM     29  C   UNL     1       2.508   0.215   0.062  0.00  0.00    +0.020 A 
ATOM     30  C   UNL     1       1.296  -0.464  -0.080  0.00  0.00    +0.011 A 
ATOM     31  C   UNL     1       0.109   0.237  -0.051  0.00  0.00    +0.001 A 
ENDBRANCH  21  29
BRANCH  25  32
ATOM     32  C   UNL     1       2.932  -2.848   0.343  0.00  0.00    +0.051 A 
ATOM     33  C   UNL     1       2.169  -2.838   1.503  0.00  0.00    +0.026 A 
ATOM     34  C   UNL     1       1.176  -3.781   1.682  0.00  0.00    +0.002 A 
ATOM     35  C   UNL     1       0.942  -4.734   0.708  0.00  0.00    +0.000 A 
ATOM     36  C   UNL     1       1.700  -4.746  -0.448  0.00  0.00    +0.002 A 
ATOM     37  C   UNL     1       2.691  -3.802  -0.636  0.00  0.00    +0.026 A 
ENDBRANCH  25  32
ENDBRANCH  20  24
ENDBRANCH   1  20
TORSDOF 9
