REMARK  Name = ZINC22451707
REMARK  5 active torsions:
REMARK  status: ('A' for Active; 'I' for Inactive)
REMARK    1  A    between atoms: C_1  and  C_2
REMARK    2  A    between atoms: C_5  and  C_26
REMARK    3  A    between atoms: C_16  and  C_18
REMARK    4  A    between atoms: C_21  and  O_24
REMARK    5  A    between atoms: O_24  and  C_25
REMARK                            x       y       z     vdW  Elec       q    Type
REMARK                         _______ _______ _______ _____ _____    ______ ____
ROOT
ATOM      1  C   UNL     1       3.511   2.120   1.240  0.00  0.00    +0.009 C 
ATOM      2  C   UNL     1       2.086   1.565   1.261  0.00  0.00    +0.004 C 
ATOM      3  C   UNL     1       2.133   0.035   1.302  0.00  0.00    +0.009 C 
ATOM      4  C   UNL     1       0.704  -0.513   1.263  0.00  0.00    +0.004 C 
ATOM      5  C   UNL     1       0.002  -0.004   0.002  0.00  0.00    +0.111 C 
ATOM      6  N   UNL     1      -0.018   1.464   0.010  0.00  0.00    -0.301 N 
ATOM      7  C   UNL     1       1.344   2.014   0.000  0.00  0.00    +0.111 C 
ATOM      8  C   UNL     1      -0.751   1.951  -1.039  0.00  0.00    +0.199 A 
ATOM      9  N   UNL     1      -0.797   3.294  -1.253  0.00  0.00    -0.295 N 
ATOM     10  H   UNL     1      -0.248   3.976  -0.587  0.00  0.00    +0.172 HD
ATOM     11  C   UNL     1      -1.514   3.793  -2.282  0.00  0.00    +0.253 A 
ATOM     12  O   UNL     1      -1.561   4.997  -2.480  0.00  0.00    -0.268 OA
ATOM     13  C   UNL     1      -2.205   2.905  -3.119  0.00  0.00    +0.098 A 
ATOM     14  C   UNL     1      -2.125   1.545  -2.857  0.00  0.00    +0.080 A 
ATOM     15  N   UNL     1      -1.392   1.109  -1.822  0.00  0.00    -0.216 NA
ATOM     16  C   UNL     1      -0.060  -0.037   2.500  0.00  0.00    +0.009 C 
ENDROOT
BRANCH  14  17
ATOM     17  C   UNL     1      -2.842   0.578  -3.719  0.00  0.00    +0.001 A 
ATOM     18  C   UNL     1      -3.605   1.033  -4.795  0.00  0.00    +0.013 A 
ATOM     19  C   UNL     1      -4.266   0.130  -5.599  0.00  0.00    +0.046 A 
ATOM     20  C   UNL     1      -4.184  -1.231  -5.332  0.00  0.00    +0.120 A 
ATOM     21  C   UNL     1      -3.429  -1.687  -4.258  0.00  0.00    +0.046 A 
ATOM     22  C   UNL     1      -2.760  -0.790  -3.454  0.00  0.00    +0.013 A 
BRANCH  20  23
ATOM     23  O   UNL     1      -4.841  -2.118  -6.123  0.00  0.00    -0.495 OA
ATOM     24  C   UNL     1      -5.599  -1.581  -7.209  0.00  0.00    +0.277 C 
ENDBRANCH  20  23
ENDBRANCH  14  17
TORSDOF 2
