REMARK  Name = ZINC37373502
REMARK  6 active torsions:
REMARK  status: ('A' for Active; 'I' for Inactive)
REMARK    1  A    between atoms: C_5  and  S_6
REMARK    2  A    between atoms: S_6  and  N_9
REMARK    3  A    between atoms: N_9  and  C_10
REMARK    4  A    between atoms: C_10  and  C_12
REMARK    5  A    between atoms: C_10  and  C_19
REMARK    6  A    between atoms: C_12  and  C_13
REMARK                            x       y       z     vdW  Elec       q    Type
REMARK                         _______ _______ _______ _____ _____    ______ ____
ROOT
ATOM      1  N   UNL     1      -1.744  -1.437  -1.570  0.00  0.00    -0.175 NA
ATOM      2  H   UNL     1      -2.606  -1.159  -1.918  0.00  0.00    +0.149 HD
ENDROOT
BRANCH   1   3
ATOM      3  S   UNL     1      -1.352  -1.132   0.010  0.00  0.00    +0.065 S 
ATOM      4  O   UNL     1      -0.861  -2.352   0.549  0.00  0.00    -0.153 OA
ATOM      5  O   UNL     1      -2.455  -0.438   0.576  0.00  0.00    -0.153 OA
BRANCH   3  10
ATOM      6  C   UNL     1      -0.016   1.351   0.009  0.00  0.00    +0.037 A 
ATOM      7  C   UNL     1       1.183   2.038   0.002  0.00  0.00    +0.025 A 
ATOM      8  C   UNL     1       2.343   1.335  -0.013  0.00  0.00    +0.057 A 
ATOM      9  S   UNL     1       1.753  -0.350  -0.017  0.00  0.00    -0.062 S 
ATOM     10  C   UNL     1       0.002  -0.004   0.002  0.00  0.00    +0.143 A 
ATOM     11 BR   UNL     1       4.123   1.974  -0.027  0.00  0.00    -0.043 Br
ENDBRANCH   3  10
ENDBRANCH   1   3
BRANCH   1  12
ATOM     12  C   UNL     1      -0.789  -2.127  -2.442  0.00  0.00    +0.195 C 
BRANCH  12  13
ATOM     13  C   UNL     1       0.012  -1.109  -3.213  0.00  0.00    +0.375 C 
ATOM     14  O   UNL     1       1.156  -1.363  -3.550  0.00  0.00    -0.245 OA
ATOM     15  O   UNL     1      -0.483  -0.033  -3.499  0.00  0.00    -0.245 OA
ENDBRANCH  12  13
BRANCH  12  16
ATOM     16  C   UNL     1      -1.549  -3.025  -3.420  0.00  0.00    +0.086 C 
BRANCH  16  17
ATOM     17  C   UNL     1      -2.252  -4.117  -2.656  0.00  0.00    +0.037 A 
ATOM     18  C   UNL     1      -1.722  -5.290  -2.261  0.00  0.00    +0.133 A 
ATOM     19  N   UNL     1      -2.673  -5.978  -1.612  0.00  0.00    -0.244 NA
ATOM     20  H   UNL     1      -4.194  -3.390  -2.354  0.00  0.00    +0.166 HD
ATOM     21  C   UNL     1      -3.772  -5.276  -1.589  0.00  0.00    +0.196 A 
ATOM     22  N   UNL     1      -3.551  -4.105  -2.225  0.00  0.00    -0.348 N 
ENDBRANCH  16  17
ENDBRANCH  12  16
ENDBRANCH   1  12
TORSDOF 6
