REMARK  Name = ZINC01741533
REMARK  7 active torsions:
REMARK  status: ('A' for Active; 'I' for Inactive)
REMARK    1  A    between atoms: C_6  and  C_7
REMARK    2  A    between atoms: C_9  and  C_22
REMARK    3  A    between atoms: C_10  and  O_21
REMARK    4  A    between atoms: N_13  and  C_14
REMARK    5  A    between atoms: C_14  and  C_15
REMARK    6  A    between atoms: C_15  and  N_53
REMARK    7  A    between atoms: C_22  and  C_24
REMARK                            x       y       z     vdW  Elec       q    Type
REMARK                         _______ _______ _______ _____ _____    ______ ____
ROOT
ATOM      1  C   UNL     1      -0.329   2.900   1.835  0.00  0.00    +0.144 C 
ATOM      2  C   UNL     1      -1.391   2.759   2.900  0.00  0.00    +0.071 C 
ATOM      3  C   UNL     1      -2.118   1.662   2.583  0.00  0.00    +0.188 C 
ATOM      4  C   UNL     1      -1.583   1.067   1.341  0.00  0.00    +0.282 C 
ATOM      5  O   UNL     1      -2.022   0.072   0.799  0.00  0.00    -0.267 OA
ATOM      6  N   UNL     1      -0.538   1.790   0.898  0.00  0.00    -0.285 N 
ENDROOT
BRANCH   1  12
ATOM      7  C   UNL     1      -1.586   4.438   0.312  0.00  0.00    +0.007 A 
ATOM      8  C   UNL     1      -1.733   5.649  -0.339  0.00  0.00    +0.015 A 
ATOM      9  C   UNL     1      -0.775   6.635  -0.190  0.00  0.00    +0.018 A 
ATOM     10  C   UNL     1       0.327   6.412   0.615  0.00  0.00    +0.015 A 
ATOM     11  C   UNL     1       0.471   5.204   1.270  0.00  0.00    +0.007 A 
ATOM     12  C   UNL     1      -0.486   4.218   1.121  0.00  0.00    -0.022 A 
ATOM     13 BR   UNL     1      -0.973   8.289  -1.086  0.00  0.00    -0.050 Br
ENDBRANCH   1  12
BRANCH   3  14
ATOM     14  O   UNL     1      -3.167   1.186   3.292  0.00  0.00    -0.502 OA
ATOM     15  H   UNL     1      -3.527   0.367   2.845  0.00  0.00    +0.292 HD
ENDBRANCH   3  14
BRANCH   2  16
ATOM     16  C   UNL     1      -1.592   3.637   4.056  0.00  0.00    +0.195 C 
ATOM     17  O   UNL     1      -2.606   4.305   4.145  0.00  0.00    -0.287 OA
BRANCH  16  18
ATOM     18  C   UNL     1      -0.563   3.712   5.115  0.00  0.00    +0.022 A 
ATOM     19  C   UNL     1       0.622   2.984   4.994  0.00  0.00    +0.013 A 
ATOM     20  C   UNL     1       1.580   3.062   5.982  0.00  0.00    +0.016 A 
ATOM     21  C   UNL     1       1.364   3.853   7.099  0.00  0.00    +0.018 A 
ATOM     22  C   UNL     1       0.188   4.573   7.228  0.00  0.00    +0.016 A 
ATOM     23  C   UNL     1      -0.775   4.508   6.244  0.00  0.00    +0.013 A 
ATOM     24 BR   UNL     1       2.680   3.949   8.453  0.00  0.00    -0.050 Br
ENDBRANCH  16  18
ENDBRANCH   2  16
BRANCH   6  25
ATOM     25  C   UNL     1       0.254   1.515  -0.303  0.00  0.00    +0.090 C 
BRANCH  25  26
ATOM     26  C   UNL     1      -0.367   2.238  -1.500  0.00  0.00    -0.059 C 
BRANCH  26  32
ATOM     27  C   UNL     1       1.767   2.558  -2.601  0.00  0.00    -0.050 C 
ATOM     28  C   UNL     1       2.579   2.197  -3.847  0.00  0.00    +0.141 C 
ATOM     29  O   UNL     1       1.878   2.641  -5.012  0.00  0.00    -0.383 OA
ATOM     30  C   UNL     1       0.569   2.079  -5.145  0.00  0.00    +0.141 C 
ATOM     31  C   UNL     1      -0.263   2.440  -3.912  0.00  0.00    -0.050 C 
ATOM     32  N   UNL     1       0.431   1.936  -2.708  0.00  0.00    +0.384 N 
ATOM     33  H   UNL     1       0.542   0.918  -2.788  0.00  0.00    -0.082 HD
ENDBRANCH  26  32
ENDBRANCH  25  26
ENDBRANCH   6  25
TORSDOF 7
