REMARK  Name = ZINC09579238
REMARK  7 active torsions:
REMARK  status: ('A' for Active; 'I' for Inactive)
REMARK    1  A    between atoms: C_13  and  C_17
REMARK    2  A    between atoms: C_17  and  O_19
REMARK    3  A    between atoms: O_19  and  C_20
REMARK    4  A    between atoms: C_20  and  C_21
REMARK    5  A    between atoms: N_23  and  C_24
REMARK    6  A    between atoms: C_24  and  C_25
REMARK    7  A    between atoms: C_25  and  N_66
REMARK                            x       y       z     vdW  Elec       q    Type
REMARK                         _______ _______ _______ _____ _____    ______ ____
ROOT
ATOM      1  O   UNL     1       3.872   6.104   0.194  0.00  0.00    -0.452 OA
ENDROOT
BRANCH   1   2
ATOM      2  C   UNL     1       2.745   5.367   0.181  0.00  0.00    +0.340 C 
ATOM      3  O   UNL     1       1.661   5.914   0.208  0.00  0.00    -0.245 OA
BRANCH   2  16
ATOM      4  C   UNL     1      -0.398   1.398   5.228  0.00  0.00    +0.001 A 
ATOM      5  C   UNL     1      -0.482   2.777   5.284  0.00  0.00    +0.001 A 
ATOM      6  C   UNL     1       0.135   3.557   4.321  0.00  0.00    +0.012 A 
ATOM      7  C   UNL     1       0.829   2.950   3.278  0.00  0.00    +0.033 A 
ATOM      8  C   UNL     1       0.910   1.547   3.218  0.00  0.00    +0.033 A 
ATOM      9  C   UNL     1       0.294   0.779   4.202  0.00  0.00    +0.012 A 
ATOM     10  C   UNL     1       1.651   0.895   2.118  0.00  0.00    +0.195 C 
ATOM     11  O   UNL     1       1.725  -0.316   2.069  0.00  0.00    -0.287 OA
ATOM     12  C   UNL     1       2.296   1.719   1.074  0.00  0.00    +0.034 A 
ATOM     13  C   UNL     1       2.992   1.110   0.030  0.00  0.00    +0.012 A 
ATOM     14  C   UNL     1       3.597   1.881  -0.946  0.00  0.00    +0.002 A 
ATOM     15  C   UNL     1       3.519   3.260  -0.901  0.00  0.00    +0.016 A 
ATOM     16  C   UNL     1       2.827   3.891   0.134  0.00  0.00    +0.070 A 
ATOM     17  C   UNL     1       2.211   3.118   1.130  0.00  0.00    +0.047 A 
ATOM     18  C   UNL     1       1.475   3.773   2.233  0.00  0.00    +0.195 C 
ATOM     19  O   UNL     1       1.401   4.984   2.281  0.00  0.00    -0.287 OA
ENDBRANCH   2  16
ENDBRANCH   1   2
BRANCH   1  20
ATOM     20  C   UNL     1       3.715   7.547   0.240  0.00  0.00    +0.328 C 
BRANCH  20  21
ATOM     21  C   UNL     1       5.074   8.200   0.248  0.00  0.00    +0.251 C 
ATOM     22  O   UNL     1       6.075   7.517   0.217  0.00  0.00    -0.272 OA
ATOM     23  N   UNL     1       5.176   9.543   0.289  0.00  0.00    -0.314 N 
ATOM     24  H   UNL     1       4.375  10.090   0.313  0.00  0.00    +0.149 HD
BRANCH  23  25
ATOM     25  C   UNL     1       6.496  10.178   0.296  0.00  0.00    +0.092 C 
BRANCH  25  26
ATOM     26  C   UNL     1       6.335  11.689   0.475  0.00  0.00    -0.049 C 
ATOM     27  C   UNL     1       7.706  12.362   0.390  0.00  0.00    -0.010 C 
ATOM     28  C   UNL     1       8.613  11.812   1.493  0.00  0.00    -0.001 C 
ATOM     29  C   UNL     1       7.987  12.100   2.859  0.00  0.00    -0.000 C 
ATOM     30  C   UNL     1       6.615  11.427   2.943  0.00  0.00    -0.001 C 
ATOM     31  C   UNL     1       5.709  11.977   1.841  0.00  0.00    -0.010 C 
BRANCH  26  37
ATOM     32  C   UNL     1       6.011  11.915  -1.915  0.00  0.00    -0.049 C 
ATOM     33  C   UNL     1       5.045  12.429  -2.986  0.00  0.00    +0.141 C 
ATOM     34  O   UNL     1       4.830  13.830  -2.794  0.00  0.00    -0.383 OA
ATOM     35  C   UNL     1       4.298  14.160  -1.509  0.00  0.00    +0.141 C 
ATOM     36  C   UNL     1       5.256  13.663  -0.423  0.00  0.00    -0.049 C 
ATOM     37  N   UNL     1       5.439  12.206  -0.583  0.00  0.00    +0.387 N 
ATOM     38  H   UNL     1       4.526  11.743  -0.503  0.00  0.00    -0.081 HD
ENDBRANCH  26  37
ENDBRANCH  25  26
ENDBRANCH  23  25
ENDBRANCH  20  21
ENDBRANCH   1  20
TORSDOF 7
