REMARK  Name = ZINC39542899
REMARK  9 active torsions:
REMARK  status: ('A' for Active; 'I' for Inactive)
REMARK    1  A    between atoms: C_1  and  C_2
REMARK    2  A    between atoms: C_2  and  O_3
REMARK    3  A    between atoms: O_3  and  C_4
REMARK    4  A    between atoms: C_6  and  C_18
REMARK    5  A    between atoms: N_20  and  C_21
REMARK    6  A    between atoms: N_20  and  S_28
REMARK    7  A    between atoms: C_21  and  C_22
REMARK    8  A    between atoms: S_28  and  O_31
REMARK    9  A    between atoms: O_31  and  C_32
REMARK                            x       y       z     vdW  Elec       q    Type
REMARK                         _______ _______ _______ _____ _____    ______ ____
ROOT
ATOM      1  C   UNL     1      -2.937  -4.645  -1.602  0.00  0.00    +0.256 C 
ATOM      2  O   UNL     1      -2.143  -5.104  -2.396  0.00  0.00    -0.272 OA
ATOM      3  N   UNL     1      -4.256  -4.670  -1.878  0.00  0.00    -0.137 N 
ENDROOT
BRANCH   1   6
ATOM      4  C   UNL     1      -1.501  -1.845  -0.099  0.00  0.00    +0.134 C 
ATOM      5  C   UNL     1      -2.829  -2.557  -0.223  0.00  0.00    +0.107 C 
ATOM      6  C   UNL     1      -2.449  -4.048  -0.307  0.00  0.00    +0.153 C 
ATOM      7  N   UNL     1      -0.978  -4.047  -0.259  0.00  0.00    -0.367 NA
ATOM      8  C   UNL     1      -0.531  -2.726  -0.121  0.00  0.00    +0.113 C 
ATOM      9  N   UNL     1       0.852  -2.448   0.004  0.00  0.00    -0.301 N 
ATOM     10  C   UNL     1       1.584  -3.409   0.720  0.00  0.00    +0.037 A 
ATOM     11  C   UNL     1       2.926  -3.188   0.998  0.00  0.00    +0.023 A 
ATOM     12  C   UNL     1       3.648  -4.138   1.694  0.00  0.00    +0.002 A 
ATOM     13  C   UNL     1       3.031  -5.303   2.110  0.00  0.00    +0.000 A 
ATOM     14  C   UNL     1       1.694  -5.521   1.836  0.00  0.00    +0.007 A 
ATOM     15  C   UNL     1       0.959  -4.574   1.143  0.00  0.00    -0.010 A 
ATOM     16  C   UNL     1      -0.507  -4.831   0.888  0.00  0.00    +0.124 C 
ATOM     17  H   UNL     1       1.262  -1.655  -0.376  0.00  0.00    +0.153 HD
ATOM     18  H   UNL     1      -0.610  -4.437  -1.113  0.00  0.00    +0.129 HD
BRANCH   4  19
ATOM     19  O   UNL     1      -1.339  -0.499   0.012  0.00  0.00    -0.493 OA
BRANCH  19  21
ATOM     20  C   UNL     1      -0.013   1.513   0.196  0.00  0.00    +0.048 C 
ATOM     21  C   UNL     1       0.002  -0.004   0.000  0.00  0.00    +0.225 C 
ENDBRANCH  19  21
ENDBRANCH   4  19
ENDBRANCH   1   6
BRANCH   3  22
ATOM     22  S   UNL     1      -5.340  -4.043  -0.795  0.00  0.00    +0.213 S 
ATOM     23  O   UNL     1      -6.585  -4.680  -1.051  0.00  0.00    -0.115 OA
ATOM     24  O   UNL     1      -4.712  -4.085   0.479  0.00  0.00    -0.115 OA
BRANCH  22  25
ATOM     25  O   UNL     1      -5.525  -2.573  -1.141  0.00  0.00    -0.331 OA
BRANCH  25  26
ATOM     26  C   UNL     1      -6.285  -2.357  -2.247  0.00  0.00    +0.158 A 
ATOM     27  C   UNL     1      -5.689  -2.290  -3.498  0.00  0.00    +0.048 A 
ATOM     28  C   UNL     1      -6.465  -2.070  -4.620  0.00  0.00    +0.004 A 
ATOM     29  C   UNL     1      -7.833  -1.917  -4.497  0.00  0.00    +0.000 A 
ATOM     30  C   UNL     1      -8.430  -1.983  -3.251  0.00  0.00    +0.004 A 
ATOM     31  C   UNL     1      -7.660  -2.208  -2.126  0.00  0.00    +0.048 A 
ENDBRANCH  25  26
ENDBRANCH  22  25
ENDBRANCH   3  22
BRANCH   3  32
ATOM     32  C   UNL     1      -4.730  -5.250  -3.137  0.00  0.00    +0.172 C 
BRANCH  32  33
ATOM     33  C   UNL     1      -4.883  -6.740  -2.977  0.00  0.00    -0.028 A 
ATOM     34  C   UNL     1      -3.819  -7.578  -3.253  0.00  0.00    +0.005 A 
ATOM     35  C   UNL     1      -3.959  -8.945  -3.107  0.00  0.00    +0.000 A 
ATOM     36  C   UNL     1      -5.164  -9.475  -2.683  0.00  0.00    +0.000 A 
ATOM     37  C   UNL     1      -6.228  -8.637  -2.405  0.00  0.00    +0.000 A 
ATOM     38  C   UNL     1      -6.086  -7.269  -2.548  0.00  0.00    +0.005 A 
ENDBRANCH  32  33
ENDBRANCH   3  32
TORSDOF 8
