REMARK  Name = ZINC63847744
REMARK  3 active torsions:
REMARK  status: ('A' for Active; 'I' for Inactive)
REMARK    1  A    between atoms: C_4  and  C_7
REMARK    2  A    between atoms: C_11  and  C_13
REMARK    3  A    between atoms: N_22  and  C_23
REMARK                            x       y       z     vdW  Elec       q    Type
REMARK                         _______ _______ _______ _____ _____    ______ ____
ROOT
ATOM      1  C   UNL     1       3.374  -2.715   1.387  0.00  0.00    +0.189 C 
ATOM      2  N   UNL     1       3.669  -4.171   1.510  0.00  0.00    -0.270 NA
ATOM      3  C   UNL     1       2.489  -4.748   0.855  0.00  0.00    +0.217 C 
ATOM      4  C   UNL     1       1.371  -3.760   1.184  0.00  0.00    +0.094 C 
ATOM      5  N   UNL     1       1.906  -2.611   1.428  0.00  0.00    -0.264 NA
ATOM      6  C   UNL     1       0.190  -4.621   1.211  0.00  0.00    +0.156 C 
ATOM      7  N   UNL     1       0.567  -5.863   1.340  0.00  0.00    -0.184 NA
ATOM      8  N   UNL     1       1.981  -5.985   1.450  0.00  0.00    -0.201 N 
ATOM      9  H   UNL     1       4.513  -4.413   1.013  0.00  0.00    +0.126 HD
ENDROOT
BRANCH   8  10
ATOM     10  C   UNL     1       2.719  -7.032   2.004  0.00  0.00    +0.054 A 
ATOM     11  C   UNL     1       4.107  -6.965   2.037  0.00  0.00    +0.025 A 
ATOM     12  C   UNL     1       4.834  -8.003   2.586  0.00  0.00    +0.002 A 
ATOM     13  C   UNL     1       4.183  -9.108   3.102  0.00  0.00    +0.000 A 
ATOM     14  C   UNL     1       2.802  -9.178   3.071  0.00  0.00    +0.002 A 
ATOM     15  C   UNL     1       2.068  -8.142   2.529  0.00  0.00    +0.025 A 
ENDBRANCH   8  10
BRANCH   1  20
ATOM     16  C   UNL     1       3.643  -0.689  -0.061  0.00  0.00    +0.082 C 
ATOM     17  N   UNL     1       4.816  -0.126  -0.147  0.00  0.00    -0.153 NA
ATOM     18  N   UNL     1       5.850  -1.056  -0.106  0.00  0.00    -0.161 NA
ATOM     19  C   UNL     1       5.419  -2.270   0.008  0.00  0.00    +0.121 C 
ATOM     20  C   UNL     1       3.907  -2.177   0.057  0.00  0.00    +0.122 C 
BRANCH  16  24
ATOM     21  C   UNL     1      -0.132   1.245  -0.088  0.00  0.00    +0.000 A 
ATOM     22  C   UNL     1      -0.038  -0.086  -0.456  0.00  0.00    +0.001 A 
ATOM     23  C   UNL     1       1.186  -0.722  -0.449  0.00  0.00    +0.010 A 
ATOM     24  C   UNL     1       2.333  -0.018  -0.071  0.00  0.00    -0.001 A 
ATOM     25  C   UNL     1       2.230   1.327   0.298  0.00  0.00    +0.010 A 
ATOM     26  C   UNL     1       0.999   1.949   0.288  0.00  0.00    +0.001 A 
ENDBRANCH  16  24
ENDBRANCH   1  20
TORSDOF 3
