REMARK  Name = ZINC40306522
REMARK  9 active torsions:
REMARK  status: ('A' for Active; 'I' for Inactive)
REMARK    1  A    between atoms: C_1  and  C_2
REMARK    2  A    between atoms: C_3  and  N_11
REMARK    3  A    between atoms: C_4  and  C_10
REMARK    4  A    between atoms: N_5  and  C_7
REMARK    5  A    between atoms: C_7  and  C_8
REMARK    6  A    between atoms: C_7  and  C_9
REMARK    7  A    between atoms: C_12  and  C_14
REMARK    8  A    between atoms: C_16  and  N_21
REMARK    9  A    between atoms: C_18  and  N_20
REMARK                            x       y       z     vdW  Elec       q    Type
REMARK                         _______ _______ _______ _____ _____    ______ ____
ROOT
ATOM      1  N   UNL     1      -0.221  -0.378  -2.464  0.00  0.00    -0.279 N 
ATOM      2  C   UNL     1       0.132   0.881  -2.793  0.00  0.00    +0.248 C 
ATOM      3  O   UNL     1       0.645   1.605  -1.962  0.00  0.00    -0.270 OA
ATOM      4  H   UNL     1      -0.571  -0.976  -3.143  0.00  0.00    +0.155 HD
ENDROOT
BRANCH   1   7
ATOM      5  C   UNL     1      -2.011   0.548  -0.090  0.00  0.00    +0.069 C 
ATOM      6  C   UNL     1      -0.866  -0.430  -0.045  0.00  0.00    +0.081 A 
ATOM      7  C   UNL     1      -0.079  -0.824  -1.137  0.00  0.00    +0.077 A 
ATOM      8  C   UNL     1       0.843  -1.713  -0.687  0.00  0.00    +0.058 A 
ATOM      9  N   UNL     1       0.641  -1.873   0.647  0.00  0.00    -0.264 N 
ATOM     10  N   UNL     1      -0.431  -1.053   1.021  0.00  0.00    -0.174 NA
ATOM     11  C   UNL     1       1.898  -2.399  -1.516  0.00  0.00    +0.067 C 
BRANCH   9  12
ATOM     12  C   UNL     1       1.412  -2.744   1.538  0.00  0.00    +0.101 C 
ATOM     13  C   UNL     1       2.064  -1.901   2.636  0.00  0.00    +0.032 C 
ATOM     14  C   UNL     1       0.480  -3.777   2.173  0.00  0.00    +0.032 C 
ENDBRANCH   9  12
ENDBRANCH   1   7
BRANCH   2  15
ATOM     15  C   UNL     1      -0.107   1.381  -4.164  0.00  0.00    +0.040 A 
ATOM     16  C   UNL     1      -0.702   0.554  -5.116  0.00  0.00    +0.036 A 
ATOM     17  C   UNL     1      -0.924   1.026  -6.401  0.00  0.00    +0.027 A 
ATOM     18  C   UNL     1      -0.555   2.322  -6.740  0.00  0.00    +0.045 A 
ATOM     19  C   UNL     1       0.037   3.148  -5.794  0.00  0.00    +0.027 A 
ATOM     20  C   UNL     1       0.257   2.684  -4.505  0.00  0.00    +0.036 A 
BRANCH  19  21
ATOM     21  N   UNL     1       0.407   4.450  -6.139  0.00  0.00    -0.358 N 
ATOM     22  H   UNL     1       0.251   4.777  -7.039  0.00  0.00    +0.142 HD
ATOM     23  H   UNL     1       0.821   5.028  -5.479  0.00  0.00    +0.142 HD
ENDBRANCH  19  21
BRANCH  17  24
ATOM     24  N   UNL     1      -1.520   0.199  -7.356  0.00  0.00    -0.358 N 
ATOM     25  H   UNL     1      -1.777  -0.706  -7.120  0.00  0.00    +0.142 HD
ATOM     26  H   UNL     1      -1.675   0.528  -8.255  0.00  0.00    +0.142 HD
ENDBRANCH  17  24
ENDBRANCH   2  15
TORSDOF 5
