REMARK  Name = ZINC60184438
REMARK  8 active torsions:
REMARK  status: ('A' for Active; 'I' for Inactive)
REMARK    1  A    between atoms: C_1  and  C_2
REMARK    2  A    between atoms: C_6  and  C_8
REMARK    3  A    between atoms: C_8  and  C_9
REMARK    4  A    between atoms: C_8  and  C_10
REMARK    5  A    between atoms: C_8  and  C_11
REMARK    6  A    between atoms: C_11  and  N_12
REMARK    7  A    between atoms: C_13  and  C_15
REMARK    8  A    between atoms: C_15  and  N_16
REMARK                            x       y       z     vdW  Elec       q    Type
REMARK                         _______ _______ _______ _____ _____    ______ ____
ROOT
ATOM      1  C   UNL     1       0.122  -7.194   4.759  0.00  0.00    +0.213 C 
ENDROOT
BRANCH   1   2
ATOM      2  N   UNL     1       0.139  -8.633   4.483  0.00  0.00    -0.215 N 
ATOM      3  C   UNL     1      -0.969  -9.393   4.341  0.00  0.00    +0.251 C 
ATOM      4  O   UNL     1      -2.124  -9.030   4.413  0.00  0.00    -0.272 OA
ATOM      5  C   UNL     1      -0.463 -10.786   4.073  0.00  0.00    +0.138 C 
ATOM      6  C   UNL     1      -0.953 -11.771   5.141  0.00  0.00    +0.045 C 
ATOM      7  C   UNL     1      -1.102 -13.080   4.333  0.00  0.00    +0.038 C 
ATOM      8  C   UNL     1      -1.331 -12.640   2.902  0.00  0.00    -0.042 A 
ATOM      9  C   UNL     1      -0.959 -11.314   2.754  0.00  0.00    -0.012 A 
ATOM     10  C   UNL     1      -1.083 -10.700   1.518  0.00  0.00    +0.006 A 
ATOM     11  C   UNL     1      -1.576 -11.404   0.437  0.00  0.00    +0.000 A 
ATOM     12  C   UNL     1      -1.948 -12.727   0.585  0.00  0.00    +0.000 A 
ATOM     13  C   UNL     1      -1.824 -13.342   1.816  0.00  0.00    +0.004 A 
ATOM     14  N   UNL     1       0.995 -10.659   4.093  0.00  0.00    -0.281 N 
ATOM     15  C   UNL     1       1.255  -9.358   4.335  0.00  0.00    +0.310 C 
ATOM     16  O   UNL     1       2.377  -8.897   4.415  0.00  0.00    -0.252 OA
ATOM     17  H   UNL     1       1.643 -11.368   3.956  0.00  0.00    +0.152 HD
ENDBRANCH   1   2
BRANCH   1  19
ATOM     18  N   UNL     1       0.088  -5.086   3.465  0.00  0.00    -0.313 N 
ATOM     19  C   UNL     1       0.105  -6.434   3.458  0.00  0.00    +0.231 C 
ATOM     20  O   UNL     1       0.108  -7.035   2.404  0.00  0.00    -0.274 OA
ATOM     21  H   UNL     1       0.086  -4.606   4.308  0.00  0.00    +0.149 HD
BRANCH  18  22
ATOM     22  C   UNL     1       0.072  -4.347   2.201  0.00  0.00    +0.115 C 
BRANCH  22  23
ATOM     23  C   UNL     1       0.054  -2.845   2.489  0.00  0.00    +0.006 C 
ATOM     24  C   UNL     1       1.302  -2.463   3.286  0.00  0.00    +0.017 C 
ATOM     25  C   UNL     1      -1.196  -2.495   3.299  0.00  0.00    +0.017 C 
BRANCH  23  31
ATOM     26  C   UNL     1      -0.018   1.503   0.010  0.00  0.00    +0.044 C 
ATOM     27  C   UNL     1       0.002  -0.004   0.002  0.00  0.00    -0.050 A 
ATOM     28  C   UNL     1       0.006  -0.689  -1.199  0.00  0.00    +0.003 A 
ATOM     29  C   UNL     1       0.025  -2.071  -1.207  0.00  0.00    +0.001 A 
ATOM     30  C   UNL     1       0.040  -2.768  -0.013  0.00  0.00    +0.004 A 
ATOM     31  C   UNL     1       0.037  -2.084   1.188  0.00  0.00    -0.040 A 
ATOM     32  C   UNL     1       0.023  -0.702   1.195  0.00  0.00    +0.007 A 
ENDBRANCH  23  31
ENDBRANCH  22  23
ENDBRANCH  18  22
ENDBRANCH   1  19
TORSDOF 5
