REMARK  Name = ZINC12923188
REMARK  11 active torsions:
REMARK  status: ('A' for Active; 'I' for Inactive)
REMARK    1  A    between atoms: C_1  and  N_57
REMARK    2  A    between atoms: C_2  and  N_57
REMARK    3  A    between atoms: C_3  and  C_4
REMARK    4  A    between atoms: C_3  and  N_57
REMARK    5  A    between atoms: C_4  and  N_5
REMARK    6  A    between atoms: C_6  and  C_8
REMARK    7  A    between atoms: C_8  and  N_24
REMARK    8  A    between atoms: C_9  and  C_10
REMARK    9  A    between atoms: C_13  and  C_15
REMARK   10  A    between atoms: C_19  and  N_21
REMARK   11  A    between atoms: C_25  and  C_27
REMARK                            x       y       z     vdW  Elec       q    Type
REMARK                         _______ _______ _______ _____ _____    ______ ____
ROOT
ATOM      1  C   UNL     1       2.765   8.253   0.123  0.00  0.00    +0.100 C 
ATOM      2  C   UNL     1       1.408   8.591   0.045  0.00  0.00    +0.074 C 
ENDROOT
BRANCH   2   3
ATOM      3  C   UNL     1       0.441   7.598   0.109  0.00  0.00    +0.131 A 
ATOM      4  C   UNL     1      -1.016   7.798   0.113  0.00  0.00    +0.050 A 
ATOM      5  C   UNL     1      -1.571   6.562   0.186  0.00  0.00    +0.050 A 
ATOM      6  C   UNL     1      -0.513   5.620   0.227  0.00  0.00    +0.136 A 
ATOM      7  O   UNL     1       0.664   6.267   0.185  0.00  0.00    -0.455 OA
BRANCH   6   8
ATOM      8  C   UNL     1      -0.672   4.214   0.305  0.00  0.00    +0.019 A 
ATOM      9  C   UNL     1      -1.960   3.647   0.350  0.00  0.00    +0.012 A 
ATOM     10  C   UNL     1      -2.101   2.290   0.420  0.00  0.00    +0.003 A 
ATOM     11  C   UNL     1      -0.981   1.472   0.459  0.00  0.00    +0.033 A 
ATOM     12  C   UNL     1       0.293   2.020   0.416  0.00  0.00    +0.127 A 
ATOM     13  C   UNL     1       0.458   3.374   0.340  0.00  0.00    +0.044 A 
BRANCH  12  14
ATOM     14  N   UNL     1       1.478   1.134   0.453  0.00  0.00    +0.056 N 
ATOM     15  O   UNL     1       1.322  -0.172   0.527  0.00  0.00    -0.126 OA
ATOM     16  O   UNL     1       2.688   1.651   0.412  0.00  0.00    -0.126 OA
ENDBRANCH  12  14
ENDBRANCH   6   8
ENDBRANCH   2   3
BRANCH   1  18
ATOM     17  N   UNL     1       3.362   6.177  -1.049  0.00  0.00    -0.312 N 
ATOM     18  C   UNL     1       3.178   6.822   0.120  0.00  0.00    +0.258 C 
ATOM     19  O   UNL     1       3.349   6.237   1.169  0.00  0.00    -0.269 OA
ATOM     20  H   UNL     1       3.226   6.645  -1.888  0.00  0.00    +0.149 HD
BRANCH  17  21
ATOM     21  C   UNL     1       3.768   4.770  -1.053  0.00  0.00    +0.086 C 
BRANCH  21  22
ATOM     22  C   UNL     1       3.906   4.282  -2.497  0.00  0.00    -0.061 C 
BRANCH  22  25
ATOM     23  C   UNL     1       4.228   2.302  -3.852  0.00  0.00    -0.097 C 
ATOM     24  C   UNL     1       5.665   2.712  -1.947  0.00  0.00    -0.097 C 
ATOM     25  N   UNL     1       4.295   2.857  -2.484  0.00  0.00    +0.377 N 
ATOM     26  H   UNL     1       3.645   2.339  -1.881  0.00  0.00    -0.083 HD
ENDBRANCH  22  25
ENDBRANCH  21  22
ENDBRANCH  17  21
ENDBRANCH   1  18
BRANCH   1  27
ATOM     27  N   UNL     1       3.700   9.226   0.203  0.00  0.00    -0.277 N 
ATOM     28  C   UNL     1       5.009   8.907   0.162  0.00  0.00    +0.248 C 
ATOM     29  O   UNL     1       5.349   7.758  -0.038  0.00  0.00    -0.270 OA
ATOM     30  H   UNL     1       3.429  10.153   0.289  0.00  0.00    +0.155 HD
BRANCH  28  31
ATOM     31  C   UNL     1       6.031   9.956   0.360  0.00  0.00    +0.037 A 
ATOM     32  C   UNL     1       5.644  11.279   0.584  0.00  0.00    +0.013 A 
ATOM     33  C   UNL     1       6.603  12.252   0.773  0.00  0.00    +0.001 A 
ATOM     34  C   UNL     1       7.946  11.922   0.730  0.00  0.00    +0.000 A 
ATOM     35  C   UNL     1       8.336  10.614   0.503  0.00  0.00    +0.001 A 
ATOM     36  C   UNL     1       7.388   9.630   0.318  0.00  0.00    +0.013 A 
ENDBRANCH  28  31
ENDBRANCH   1  27
TORSDOF 9
