REMARK  Name = ZINC38857800
REMARK  8 active torsions:
REMARK  status: ('A' for Active; 'I' for Inactive)
REMARK    1  A    between atoms: C_1  and  C_2
REMARK    2  A    between atoms: C_2  and  O_3
REMARK    3  A    between atoms: O_3  and  C_4
REMARK    4  A    between atoms: C_4  and  C_6
REMARK    5  A    between atoms: C_10  and  N_11
REMARK    6  A    between atoms: C_12  and  C_14
REMARK    7  A    between atoms: N_19  and  C_21
REMARK    8  A    between atoms: C_21  and  C_22
REMARK                            x       y       z     vdW  Elec       q    Type
REMARK                         _______ _______ _______ _____ _____    ______ ____
ROOT
ATOM      1  N   UNL     1       3.744  -2.426   1.392  0.00  0.00    -0.279 N 
ATOM      2  C   UNL     1       5.047  -2.736   1.540  0.00  0.00    +0.219 C 
ATOM      3  O   UNL     1       5.445  -3.193   2.591  0.00  0.00    -0.275 OA
ATOM      4  H   UNL     1       3.425  -2.060   0.551  0.00  0.00    +0.155 HD
ENDROOT
BRANCH   1   9
ATOM      5  C   UNL     1       1.496  -2.371   2.467  0.00  0.00    +0.091 A 
ATOM      6  C   UNL     1       0.787  -2.682   3.696  0.00  0.00    -0.021 A 
ATOM      7  C   UNL     1       1.570  -3.187   4.673  0.00  0.00    -0.004 A 
ATOM      8  S   UNL     1       3.191  -3.243   3.966  0.00  0.00    -0.077 S 
ATOM      9  C   UNL     1       2.859  -2.629   2.439  0.00  0.00    +0.086 A 
ATOM     10  C   UNL     1       1.140  -3.603   6.046  0.00  0.00    +0.043 C 
ATOM     11  C   UNL     1      -0.255  -3.018   6.312  0.00  0.00    +0.005 C 
ATOM     12  C   UNL     1      -1.153  -3.312   5.107  0.00  0.00    +0.005 C 
ATOM     13  C   UNL     1      -0.705  -2.473   3.907  0.00  0.00    +0.037 C 
BRANCH   5  14
ATOM     14  C   UNL     1       0.801  -1.814   1.305  0.00  0.00    +0.342 C 
ATOM     15  O   UNL     1       0.321  -2.557   0.470  0.00  0.00    -0.245 OA
BRANCH  14  16
ATOM     16  O   UNL     1       0.693  -0.477   1.160  0.00  0.00    -0.461 OA
BRANCH  16  18
ATOM     17  C   UNL     1      -0.019   1.526   0.010  0.00  0.00    +0.048 C 
ATOM     18  C   UNL     1       0.002  -0.004   0.002  0.00  0.00    +0.229 C 
ENDBRANCH  16  18
ENDBRANCH  14  16
ENDBRANCH   5  14
ENDBRANCH   1   9
BRANCH   2  19
ATOM     19  C   UNL     1       6.009  -2.515   0.401  0.00  0.00    +0.059 C 
ATOM     20  C   UNL     1       6.024  -1.030   0.026  0.00  0.00    +0.009 C 
ATOM     21  C   UNL     1       7.061  -0.803  -1.078  0.00  0.00    -0.018 C 
ATOM     22  C   UNL     1       8.428  -1.294  -0.595  0.00  0.00    -0.078 C 
ATOM     23  N   UNL     1       8.354  -2.725  -0.277  0.00  0.00    +0.383 N 
ATOM     24  C   UNL     1       7.414  -2.943   0.829  0.00  0.00    -0.066 C 
ATOM     25  H   UNL     1       8.037  -3.233  -1.090  0.00  0.00    -0.081 HD
BRANCH  23  26
ATOM     26  C   UNL     1       9.685  -3.209   0.111  0.00  0.00    -0.040 C 
BRANCH  26  27
ATOM     27  C   UNL     1      10.619  -3.109  -1.068  0.00  0.00    -0.027 A 
ATOM     28  C   UNL     1      10.739  -4.170  -1.947  0.00  0.00    +0.044 A 
ATOM     29  C   UNL     1      11.597  -4.078  -3.029  0.00  0.00    +0.020 A 
ATOM     30  C   UNL     1      12.334  -2.926  -3.231  0.00  0.00    +0.003 A 
ATOM     31  C   UNL     1      12.215  -1.866  -2.352  0.00  0.00    +0.020 A 
ATOM     32  C   UNL     1      11.353  -1.955  -1.273  0.00  0.00    +0.044 A 
ATOM     33 CL   UNL     1      11.198  -0.620  -0.174  0.00  0.00    -0.083 Cl
ATOM     34 CL   UNL     1       9.814  -5.617  -1.694  0.00  0.00    -0.083 Cl
ENDBRANCH  26  27
ENDBRANCH  23  26
ENDBRANCH   2  19
TORSDOF 7
