REMARK  Name = ZINC06465581
REMARK  8 active torsions:
REMARK  status: ('A' for Active; 'I' for Inactive)
REMARK    1  A    between atoms: C_1  and  C_2
REMARK    2  A    between atoms: C_3  and  C_29
REMARK    3  A    between atoms: C_11  and  C_13
REMARK    4  A    between atoms: C_13  and  C_15
REMARK    5  A    between atoms: C_13  and  S_16
REMARK    6  A    between atoms: S_16  and  C_17
REMARK    7  A    between atoms: N_21  and  C_22
REMARK    8  A    between atoms: C_25  and  O_28
REMARK                            x       y       z     vdW  Elec       q    Type
REMARK                         _______ _______ _______ _____ _____    ______ ____
ROOT
ATOM      1  C   UNL     1       0.090  -3.432   4.547  0.00  0.00    +0.117 C 
ATOM      2  C   UNL     1       1.535  -3.832   4.850  0.00  0.00    +0.027 C 
ENDROOT
BRANCH   1  13
ATOM      3  C   UNL     1      -0.018   1.503   0.010  0.00  0.00    +0.045 C 
ATOM      4  C   UNL     1       0.002  -0.004   0.002  0.00  0.00    -0.026 A 
ATOM      5  C   UNL     1       0.006  -0.677  -1.160  0.00  0.00    -0.008 A 
ATOM      6  S   UNL     1       0.032  -2.385  -0.648  0.00  0.00    -0.073 S 
ATOM      7  C   UNL     1       0.037  -2.144   1.110  0.00  0.00    +0.116 A 
ATOM      8  C   UNL     1       0.024  -0.745   1.250  0.00  0.00    +0.075 A 
ATOM      9  C   UNL     1       0.029  -0.257   2.597  0.00  0.00    +0.260 A 
ATOM     10  O   UNL     1       0.014   0.942   2.821  0.00  0.00    -0.267 OA
ATOM     11  N   UNL     1       0.051  -1.142   3.611  0.00  0.00    -0.309 N 
ATOM     12  H   UNL     1       0.054  -0.817   4.525  0.00  0.00    +0.170 HD
ATOM     13  C   UNL     1       0.067  -2.480   3.380  0.00  0.00    +0.124 A 
ATOM     14  N   UNL     1       0.053  -2.956   2.163  0.00  0.00    -0.225 NA
ATOM     15  C   UNL     1      -0.009  -0.122  -2.561  0.00  0.00    +0.052 C 
ENDBRANCH   1  13
BRANCH   1  16
ATOM     16  S   UNL     1      -0.631  -2.623   6.002  0.00  0.00    -0.073 S 
BRANCH  16  17
ATOM     17  C   UNL     1      -0.668  -3.894   7.222  0.00  0.00    +0.215 A 
ATOM     18  N   UNL     1      -0.251  -5.133   7.074  0.00  0.00    -0.101 NA
ATOM     19  N   UNL     1      -0.421  -5.798   8.159  0.00  0.00    -0.022 NA
ATOM     20  N   UNL     1      -0.949  -5.050   9.066  0.00  0.00    -0.038 NA
ATOM     21  N   UNL     1      -1.126  -3.778   8.494  0.00  0.00    -0.187 N 
BRANCH  21  22
ATOM     22  C   UNL     1      -1.663  -2.635   9.105  0.00  0.00    +0.070 A 
ATOM     23  C   UNL     1      -1.172  -1.378   8.780  0.00  0.00    +0.031 A 
ATOM     24  C   UNL     1      -1.701  -0.253   9.382  0.00  0.00    +0.047 A 
ATOM     25  C   UNL     1      -2.723  -0.380  10.312  0.00  0.00    +0.117 A 
ATOM     26  C   UNL     1      -3.214  -1.636  10.637  0.00  0.00    +0.047 A 
ATOM     27  C   UNL     1      -2.690  -2.760  10.031  0.00  0.00    +0.031 A 
BRANCH  25  28
ATOM     28  O   UNL     1      -3.244   0.728  10.904  0.00  0.00    -0.507 OA
ATOM     29  H   UNL     1      -3.991   1.114  10.427  0.00  0.00    +0.292 HD
ENDBRANCH  25  28
ENDBRANCH  21  22
ENDBRANCH  16  17
ENDBRANCH   1  16
TORSDOF 5
