REMARK  Name = ZINC12300935
REMARK  8 active torsions:
REMARK  status: ('A' for Active; 'I' for Inactive)
REMARK    1  A    between atoms: C_1  and  C_2
REMARK    2  A    between atoms: C_2  and  C_33
REMARK    3  A    between atoms: C_9  and  C_11
REMARK    4  A    between atoms: C_11  and  C_12
REMARK    5  A    between atoms: C_19  and  C_20
REMARK    6  A    between atoms: C_19  and  N_65
REMARK    7  A    between atoms: C_20  and  C_21
REMARK    8  A    between atoms: C_20  and  C_27
REMARK                            x       y       z     vdW  Elec       q    Type
REMARK                         _______ _______ _______ _____ _____    ______ ____
ROOT
ATOM      1  C   UNL     1      -1.644   2.786  -0.894  0.00  0.00    +0.028 C 
ATOM      2  C   UNL     1      -1.976   1.321  -0.880  0.00  0.00    +0.200 C 
ATOM      3  O   UNL     1      -3.135   0.989  -0.746  0.00  0.00    -0.278 OA
ATOM      4  N   UNL     1      -1.047   0.368  -1.006  0.00  0.00    -0.318 N 
ATOM      5  C   UNL     1       0.377   0.660  -1.142  0.00  0.00    +0.085 C 
ATOM      6  C   UNL     1       0.575   2.118  -1.560  0.00  0.00    -0.059 C 
ATOM      7  H   UNL     1      -1.333  -0.559  -1.010  0.00  0.00    +0.149 HD
ATOM      8  N   UNL     1      -0.203   2.968  -0.637  0.00  0.00    +0.389 N 
ATOM      9  H   UNL     1       0.003   2.691   0.330  0.00  0.00    -0.081 HD
ENDROOT
BRANCH   1  10
ATOM     10  C   UNL     1      -2.439   3.501   0.201  0.00  0.00    +0.090 C 
BRANCH  10  19
ATOM     11  C   UNL     1      -1.292   1.758   3.881  0.00  0.00    +0.041 C 
ATOM     12  C   UNL     1      -2.207   2.978   4.001  0.00  0.00    +0.108 C 
ATOM     13  C   UNL     1      -3.410   2.627   4.832  0.00  0.00    +0.236 C 
ATOM     14  O   UNL     1      -3.237   2.045   5.883  0.00  0.00    -0.273 OA
ATOM     15  N   UNL     1      -4.658   2.925   4.468  0.00  0.00    -0.312 N 
ATOM     16  C   UNL     1      -5.025   3.539   3.199  0.00  0.00    +0.123 C 
ATOM     17  C   UNL     1      -3.828   4.280   2.588  0.00  0.00    +0.127 C 
ATOM     18  N   UNL     1      -2.657   3.390   2.663  0.00  0.00    -0.286 N 
ATOM     19  C   UNL     1      -2.021   2.974   1.550  0.00  0.00    +0.215 C 
ATOM     20  O   UNL     1      -1.111   2.176   1.634  0.00  0.00    -0.276 OA
ATOM     21  C   UNL     1      -1.443   4.128   4.661  0.00  0.00    +0.041 C 
ATOM     22  H   UNL     1      -5.372   2.719   5.093  0.00  0.00    +0.149 HD
ENDBRANCH  10  19
ENDBRANCH   1  10
BRANCH   8  23
ATOM     23  C   UNL     1       0.168   4.390  -0.820  0.00  0.00    -0.065 C 
BRANCH  23  24
ATOM     24  C   UNL     1       1.459   4.666  -0.047  0.00  0.00    +0.032 C 
BRANCH  24  25
ATOM     25  C   UNL     1       2.605   3.943  -0.707  0.00  0.00    -0.042 A 
ATOM     26  C   UNL     1       3.413   3.103   0.037  0.00  0.00    +0.004 A 
ATOM     27  C   UNL     1       4.461   2.437  -0.570  0.00  0.00    +0.000 A 
ATOM     28  C   UNL     1       4.707   2.616  -1.918  0.00  0.00    +0.000 A 
ATOM     29  C   UNL     1       3.902   3.460  -2.661  0.00  0.00    +0.000 A 
ATOM     30  C   UNL     1       2.851   4.123  -2.055  0.00  0.00    +0.004 A 
ENDBRANCH  24  25
BRANCH  24  31
ATOM     31  C   UNL     1       1.736   6.147  -0.043  0.00  0.00    -0.042 A 
ATOM     32  C   UNL     1       1.749   6.851  -1.233  0.00  0.00    +0.004 A 
ATOM     33  C   UNL     1       1.998   8.211  -1.229  0.00  0.00    +0.000 A 
ATOM     34  C   UNL     1       2.243   8.865  -0.036  0.00  0.00    +0.000 A 
ATOM     35  C   UNL     1       2.235   8.161   1.153  0.00  0.00    +0.000 A 
ATOM     36  C   UNL     1       1.982   6.802   1.150  0.00  0.00    +0.004 A 
ENDBRANCH  24  31
ENDBRANCH  23  24
ENDBRANCH   8  23
TORSDOF 6
