REMARK  Name = ZINC20983826
REMARK  7 active torsions:
REMARK  status: ('A' for Active; 'I' for Inactive)
REMARK    1  A    between atoms: C_1  and  C_2
REMARK    2  A    between atoms: C_6  and  N_8
REMARK    3  A    between atoms: C_18  and  S_19
REMARK    4  A    between atoms: S_19  and  C_20
REMARK    5  A    between atoms: C_20  and  C_21
REMARK    6  A    between atoms: N_26  and  C_27
REMARK    7  A    between atoms: C_27  and  C_28
REMARK                            x       y       z     vdW  Elec       q    Type
REMARK                         _______ _______ _______ _____ _____    ______ ____
ROOT
ATOM      1  N   UNL     1      -0.069   5.243   0.029  0.00  0.00    -0.255 N 
ATOM      2  C   UNL     1       1.093   5.930   0.124  0.00  0.00    +0.267 A 
ATOM      3  O   UNL     1       2.162   5.352   0.203  0.00  0.00    -0.267 OA
ATOM      4  C   UNL     1       1.018   7.396   0.126  0.00  0.00    +0.065 A 
ATOM      5  C   UNL     1       2.161   8.190   0.220  0.00  0.00    +0.017 A 
ATOM      6  C   UNL     1       2.040   9.552   0.219  0.00  0.00    +0.021 A 
ATOM      7  C   UNL     1       0.791  10.155   0.124  0.00  0.00    +0.043 A 
ATOM      8  C   UNL     1      -0.354   9.394   0.030  0.00  0.00    +0.048 A 
ATOM      9  C   UNL     1      -0.257   8.000   0.030  0.00  0.00    +0.080 A 
ATOM     10  N   UNL     1      -1.355   7.213  -0.060  0.00  0.00    -0.223 NA
ATOM     11  C   UNL     1      -1.262   5.906  -0.066  0.00  0.00    +0.177 A 
ATOM     12 CL   UNL     1       0.672  11.887   0.126  0.00  0.00    -0.083 Cl
ENDROOT
BRANCH   1  18
ATOM     13  C   UNL     1      -0.212   0.995   2.503  0.00  0.00    +0.044 C 
ATOM     14  C   UNL     1      -0.118   1.759   1.207  0.00  0.00    -0.048 A 
ATOM     15  C   UNL     1      -0.012   1.076   0.009  0.00  0.00    +0.003 A 
ATOM     16  C   UNL     1       0.081   1.773  -1.182  0.00  0.00    +0.002 A 
ATOM     17  C   UNL     1       0.057   3.154  -1.179  0.00  0.00    +0.026 A 
ATOM     18  C   UNL     1      -0.050   3.842   0.022  0.00  0.00    +0.052 A 
ATOM     19  C   UNL     1      -0.137   3.139   1.217  0.00  0.00    +0.029 A 
ENDBRANCH   1  18
BRANCH  11  20
ATOM     20  S   UNL     1      -2.742   4.959  -0.193  0.00  0.00    -0.078 S 
BRANCH  20  21
ATOM     21  C   UNL     1      -3.962   6.293  -0.286  0.00  0.00    +0.173 C 
BRANCH  21  22
ATOM     22  C   UNL     1      -5.343   5.703  -0.404  0.00  0.00    +0.231 C 
ATOM     23  O   UNL     1      -5.489   4.499  -0.422  0.00  0.00    -0.274 OA
ATOM     24  N   UNL     1      -6.417   6.513  -0.488  0.00  0.00    -0.239 N 
ATOM     25  C   UNL     1      -7.653   5.985  -0.593  0.00  0.00    +0.306 C 
ATOM     26  O   UNL     1      -7.799   4.779  -0.612  0.00  0.00    -0.252 OA
ATOM     27  N   UNL     1      -8.727   6.795  -0.677  0.00  0.00    -0.292 N 
ATOM     28  H   UNL     1      -6.285   7.605  -0.471  0.00  0.00    +0.159 HD
ATOM     29  H   UNL     1      -8.595   7.887  -0.660  0.00  0.00    +0.151 HD
BRANCH  27  30
ATOM     30  C   UNL     1     -10.070   6.222  -0.791  0.00  0.00    +0.180 C 
BRANCH  30  31
ATOM     31  C   UNL     1     -11.086   7.332  -0.868  0.00  0.00    +0.122 A 
ATOM     32  C   UNL     1     -11.526   7.918  -1.996  0.00  0.00    +0.046 A 
ATOM     33  C   UNL     1     -12.465   8.901  -1.607  0.00  0.00    +0.041 A 
ATOM     34  C   UNL     1     -12.542   8.857  -0.265  0.00  0.00    +0.195 A 
ATOM     35  O   UNL     1     -11.709   7.901   0.177  0.00  0.00    -0.466 OA
ENDBRANCH  30  31
ENDBRANCH  27  30
ENDBRANCH  21  22
ENDBRANCH  20  21
ENDBRANCH  11  20
TORSDOF 6
