REMARK  Name = ZINC12833547
REMARK  12 active torsions:
REMARK  status: ('A' for Active; 'I' for Inactive)
REMARK    1  A    between atoms: C_1  and  C_2
REMARK    2  A    between atoms: C_2  and  O_3
REMARK    3  A    between atoms: O_3  and  C_4
REMARK    4  A    between atoms: C_11  and  C_16
REMARK    5  A    between atoms: C_16  and  N_68
REMARK    6  A    between atoms: C_17  and  C_18
REMARK    7  A    between atoms: C_17  and  N_68
REMARK    8  A    between atoms: N_22  and  C_23
REMARK    9  A    between atoms: C_23  and  C_24
REMARK   10  A    between atoms: C_27  and  O_30
REMARK   11  A    between atoms: O_30  and  C_31
REMARK   12  A    between atoms: C_32  and  N_68
REMARK                            x       y       z     vdW  Elec       q    Type
REMARK                         _______ _______ _______ _____ _____    ______ ____
ROOT
ATOM      1  N   UNL     1      -0.831   1.410  -1.048  0.00  0.00    +0.389 N 
ATOM      2  H   UNL     1      -1.637   0.906  -0.660  0.00  0.00    -0.080 HD
ENDROOT
BRANCH   1   3
ATOM      3  C   UNL     1      -1.115   2.861  -1.020  0.00  0.00    -0.068 C 
ATOM      4  C   UNL     1      -2.550   3.109  -1.530  0.00  0.00    -0.015 C 
ATOM      5  C   UNL     1      -2.447   4.436  -2.322  0.00  0.00    -0.002 C 
ATOM      6  C   UNL     1      -1.069   4.312  -3.019  0.00  0.00    -0.002 C 
ATOM      7  C   UNL     1      -0.174   3.626  -1.968  0.00  0.00    -0.015 C 
ENDBRANCH   1   3
BRANCH   1   8
ATOM      8  C   UNL     1       0.362   1.113  -0.227  0.00  0.00    -0.037 C 
BRANCH   8  16
ATOM      9  C   UNL     1      -1.456   0.188   5.626  0.00  0.00    +0.121 A 
ATOM     10  C   UNL     1      -1.239   1.494   6.059  0.00  0.00    +0.047 A 
ATOM     11  C   UNL     1      -0.761   2.450   5.191  0.00  0.00    +0.030 A 
ATOM     12  C   UNL     1      -0.490   2.115   3.868  0.00  0.00    +0.049 A 
ATOM     13  C   UNL     1      -0.707   0.796   3.427  0.00  0.00    +0.002 A 
ATOM     14  C   UNL     1      -1.193  -0.166   4.318  0.00  0.00    +0.055 A 
ATOM     15  C   UNL     1      -0.416   0.457   2.033  0.00  0.00    +0.017 A 
ATOM     16  C   UNL     1       0.053   1.430   1.213  0.00  0.00    +0.001 A 
ATOM     17  C   UNL     1       0.260   2.736   1.706  0.00  0.00    +0.251 A 
ATOM     18  O   UNL     1       0.688   3.594   0.954  0.00  0.00    -0.268 OA
ATOM     19  N   UNL     1      -0.009   3.059   2.983  0.00  0.00    -0.322 N 
ATOM     20  H   UNL     1       0.140   3.968   3.288  0.00  0.00    +0.169 HD
BRANCH   9  21
ATOM     21  O   UNL     1      -1.929  -0.743   6.497  0.00  0.00    -0.492 OA
BRANCH  21  23
ATOM     22  C   UNL     1      -2.703  -1.488   8.662  0.00  0.00    +0.048 C 
ATOM     23  C   UNL     1      -2.180  -0.311   7.836  0.00  0.00    +0.225 C 
ENDBRANCH  21  23
ENDBRANCH   9  21
ENDBRANCH   8  16
ENDBRANCH   1   8
BRANCH   1  24
ATOM     24  C   UNL     1      -0.610   0.965  -2.440  0.00  0.00    +0.001 C 
BRANCH  24  25
ATOM     25  C   UNL     1      -1.919   1.031  -3.184  0.00  0.00    +0.135 A 
ATOM     26  N   UNL     1      -2.327   2.002  -3.965  0.00  0.00    -0.115 NA
ATOM     27  N   UNL     1      -3.494   1.688  -4.413  0.00  0.00    -0.023 NA
ATOM     28  N   UNL     1      -3.840   0.543  -3.939  0.00  0.00    -0.044 NA
ATOM     29  N   UNL     1      -2.893   0.103  -3.180  0.00  0.00    -0.227 N 
BRANCH  29  30
ATOM     30  C   UNL     1      -2.883  -1.167  -2.450  0.00  0.00    +0.182 C 
BRANCH  30  31
ATOM     31  C   UNL     1      -3.482  -0.965  -1.082  0.00  0.00    -0.026 A 
ATOM     32  C   UNL     1      -2.671  -0.617  -0.018  0.00  0.00    +0.009 A 
ATOM     33  C   UNL     1      -3.220  -0.426   1.236  0.00  0.00    +0.046 A 
ATOM     34  C   UNL     1      -4.583  -0.594   1.428  0.00  0.00    +0.120 A 
ATOM     35  C   UNL     1      -5.394  -0.948   0.360  0.00  0.00    +0.046 A 
ATOM     36  C   UNL     1      -4.842  -1.133  -0.893  0.00  0.00    +0.009 A 
BRANCH  34  37
ATOM     37  O   UNL     1      -5.124  -0.411   2.662  0.00  0.00    -0.495 OA
ATOM     38  C   UNL     1      -4.229  -0.047   3.715  0.00  0.00    +0.277 C 
ENDBRANCH  34  37
ENDBRANCH  30  31
ENDBRANCH  29  30
ENDBRANCH  24  25
ENDBRANCH   1  24
TORSDOF 10
