REMARK  Name = ZINC38890306
REMARK  11 active torsions:
REMARK  status: ('A' for Active; 'I' for Inactive)
REMARK    1  A    between atoms: C_1  and  C_2
REMARK    2  A    between atoms: C_5  and  C_8
REMARK    3  A    between atoms: C_10  and  C_13
REMARK    4  A    between atoms: C_13  and  N_14
REMARK    5  A    between atoms: C_18  and  C_21
REMARK    6  A    between atoms: N_23  and  C_24
REMARK    7  A    between atoms: C_29  and  C_30
REMARK    8  A    between atoms: N_32  and  C_33
REMARK    9  A    between atoms: C_33  and  C_34
REMARK   10  A    between atoms: C_34  and  C_35
REMARK   11  A    between atoms: C_34  and  C_36
REMARK                            x       y       z     vdW  Elec       q    Type
REMARK                         _______ _______ _______ _____ _____    ______ ____
ROOT
ATOM      1  N   UNL     1      -1.279  -7.895   1.935  0.00  0.00    +0.386 N 
ATOM      2  C   UNL     1      -1.921  -8.381   0.708  0.00  0.00    -0.078 C 
ATOM      3  C   UNL     1      -3.383  -8.731   0.997  0.00  0.00    -0.018 C 
ATOM      4  C   UNL     1      -3.438  -9.822   2.071  0.00  0.00    +0.009 C 
ATOM      5  C   UNL     1      -2.700  -9.332   3.320  0.00  0.00    +0.059 C 
ATOM      6  C   UNL     1      -1.264  -8.960   2.945  0.00  0.00    -0.065 C 
ATOM      7  H   UNL     1      -1.793  -7.103   2.290  0.00  0.00    -0.081 HD
ENDROOT
BRANCH   5   8
ATOM      8  C   UNL     1      -2.683 -10.427   4.356  0.00  0.00    +0.219 C 
ATOM      9  O   UNL     1      -1.626 -10.865   4.758  0.00  0.00    -0.275 OA
ATOM     10  N   UNL     1      -3.843 -10.919   4.835  0.00  0.00    -0.285 N 
ATOM     11  H   UNL     1      -4.685 -10.516   4.574  0.00  0.00    +0.155 HD
BRANCH  10  12
ATOM     12  C   UNL     1      -3.831 -12.008   5.704  0.00  0.00    +0.046 A 
ATOM     13  C   UNL     1      -2.770 -12.903   5.686  0.00  0.00    +0.024 A 
ATOM     14  C   UNL     1      -2.760 -13.981   6.548  0.00  0.00    +0.002 A 
ATOM     15  C   UNL     1      -3.805 -14.178   7.436  0.00  0.00    +0.001 A 
ATOM     16  C   UNL     1      -4.866 -13.300   7.468  0.00  0.00    +0.015 A 
ATOM     17  C   UNL     1      -4.887 -12.201   6.606  0.00  0.00    +0.058 A 
BRANCH  17  18
ATOM     18  C   UNL     1      -6.017 -11.253   6.639  0.00  0.00    +0.246 C 
ATOM     19  O   UNL     1      -6.080 -10.353   5.825  0.00  0.00    -0.270 OA
ATOM     20  N   UNL     1      -6.980 -11.385   7.573  0.00  0.00    -0.311 N 
ATOM     21  H   UNL     1      -6.930 -12.103   8.223  0.00  0.00    +0.149 HD
BRANCH  20  22
ATOM     22  C   UNL     1      -8.102 -10.443   7.607  0.00  0.00    +0.107 C 
BRANCH  22  23
ATOM     23  C   UNL     1      -9.044 -10.814   8.754  0.00  0.00    -0.000 C 
ATOM     24  C   UNL     1     -10.148  -9.760   8.867  0.00  0.00    +0.009 C 
ATOM     25  C   UNL     1      -9.672 -12.181   8.477  0.00  0.00    +0.009 C 
ENDBRANCH  22  23
ENDBRANCH  20  22
ENDBRANCH  17  18
ENDBRANCH  10  12
ENDBRANCH   5   8
BRANCH   1  26
ATOM     26  C   UNL     1       0.100  -7.487   1.635  0.00  0.00    +0.022 C 
BRANCH  26  29
ATOM     27  C   UNL     1       0.049  -4.276  -0.056  0.00  0.00    +0.202 A 
ATOM     28  N   UNL     1       0.058  -5.057   1.039  0.00  0.00    -0.193 NA
ATOM     29  C   UNL     1       0.083  -6.312   0.692  0.00  0.00    +0.211 A 
ATOM     30  O   UNL     1       0.092  -6.383  -0.646  0.00  0.00    -0.340 OA
ATOM     31  N   UNL     1       0.065  -5.044  -1.118  0.00  0.00    -0.056 NA
BRANCH  27  36
ATOM     32  C   UNL     1      -0.062   1.482  -0.074  0.00  0.00    +0.044 C 
ATOM     33  C   UNL     1      -0.033  -0.024  -0.069  0.00  0.00    -0.050 A 
ATOM     34  C   UNL     1      -0.018  -0.717  -1.267  0.00  0.00    +0.004 A 
ATOM     35  C   UNL     1       0.009  -2.097  -1.268  0.00  0.00    +0.012 A 
ATOM     36  C   UNL     1       0.021  -2.792  -0.061  0.00  0.00    +0.022 A 
ATOM     37  C   UNL     1       0.006  -2.090   1.142  0.00  0.00    +0.012 A 
ATOM     38  C   UNL     1      -0.015  -0.710   1.132  0.00  0.00    +0.004 A 
ENDBRANCH  27  36
ENDBRANCH  26  29
ENDBRANCH   1  26
TORSDOF 8
