REMARK  Name = ZINC36039379
REMARK  12 active torsions:
REMARK  status: ('A' for Active; 'I' for Inactive)
REMARK    1  A    between atoms: C_1  and  C_2
REMARK    2  A    between atoms: C_2  and  C_3
REMARK    3  A    between atoms: C_2  and  N_4
REMARK    4  A    between atoms: N_4  and  C_5
REMARK    5  A    between atoms: C_5  and  C_6
REMARK    6  A    between atoms: C_6  and  N_8
REMARK    7  A    between atoms: C_11  and  C_22
REMARK    8  A    between atoms: N_13  and  C_14
REMARK    9  A    between atoms: C_17  and  O_20
REMARK   10  A    between atoms: O_20  and  C_21
REMARK   11  A    between atoms: C_25  and  O_28
REMARK   12  A    between atoms: O_28  and  C_29
REMARK                            x       y       z     vdW  Elec       q    Type
REMARK                         _______ _______ _______ _____ _____    ______ ____
ROOT
ATOM      1  N   UNL     1      -3.000  -3.801  -0.211  0.00  0.00    -0.148 NA
ATOM      2  C   UNL     1      -4.251  -4.263  -0.201  0.00  0.00    +0.205 A 
ATOM      3  N   UNL     1      -5.378  -3.512  -0.097  0.00  0.00    -0.326 N 
ATOM      4  C   UNL     1      -6.468  -4.372  -0.126  0.00  0.00    +0.066 A 
ATOM      5  C   UNL     1      -6.000  -5.627  -0.247  0.00  0.00    +0.120 A 
ATOM      6  N   UNL     1      -4.622  -5.567  -0.300  0.00  0.00    -0.287 N 
ATOM      7  H   UNL     1      -5.415  -2.546  -0.015  0.00  0.00    +0.169 HD
ENDROOT
BRANCH   6   8
ATOM      8  C   UNL     1      -3.755  -6.661  -0.431  0.00  0.00    +0.049 A 
ATOM      9  C   UNL     1      -2.382  -6.459  -0.462  0.00  0.00    +0.030 A 
ATOM     10  C   UNL     1      -1.528  -7.537  -0.591  0.00  0.00    +0.047 A 
ATOM     11  C   UNL     1      -2.043  -8.822  -0.688  0.00  0.00    +0.120 A 
ATOM     12  C   UNL     1      -3.415  -9.024  -0.657  0.00  0.00    +0.047 A 
ATOM     13  C   UNL     1      -4.269  -7.947  -0.523  0.00  0.00    +0.030 A 
BRANCH  11  14
ATOM     14  O   UNL     1      -1.202  -9.883  -0.815  0.00  0.00    -0.495 OA
ATOM     15  C   UNL     1      -1.801 -11.177  -0.911  0.00  0.00    +0.277 C 
ENDBRANCH  11  14
ENDBRANCH   6   8
BRANCH   4  16
ATOM     16  C   UNL     1      -7.892  -3.978  -0.039  0.00  0.00    +0.000 A 
ATOM     17  C   UNL     1      -8.890  -4.952  -0.075  0.00  0.00    +0.013 A 
ATOM     18  C   UNL     1     -10.216  -4.581   0.007  0.00  0.00    +0.046 A 
ATOM     19  C   UNL     1     -10.557  -3.240   0.124  0.00  0.00    +0.120 A 
ATOM     20  C   UNL     1      -9.566  -2.269   0.161  0.00  0.00    +0.046 A 
ATOM     21  C   UNL     1      -8.239  -2.632   0.085  0.00  0.00    +0.013 A 
BRANCH  19  22
ATOM     22  O   UNL     1     -11.865  -2.878   0.204  0.00  0.00    -0.495 OA
ATOM     23  C   UNL     1     -12.145  -1.482   0.323  0.00  0.00    +0.277 C 
ENDBRANCH  19  22
ENDBRANCH   4  16
BRANCH   1  24
ATOM     24  C   UNL     1      -2.773  -2.497  -0.106  0.00  0.00    +0.222 C 
ATOM     25  O   UNL     1      -3.706  -1.724  -0.001  0.00  0.00    -0.276 OA
BRANCH  24  26
ATOM     26  C   UNL     1      -1.359  -1.976  -0.116  0.00  0.00    +0.017 C 
BRANCH  26  27
ATOM     27  N   UNL     1      -1.376  -0.512   0.012  0.00  0.00    +0.386 N 
ATOM     28  H   UNL     1      -1.823  -0.256   0.880  0.00  0.00    -0.085 HD
ATOM     29  H   UNL     1      -1.888  -0.113  -0.760  0.00  0.00    -0.085 HD
BRANCH  27  31
ATOM     30  C   UNL     1      -0.019   1.526   0.010  0.00  0.00    -0.014 C 
ATOM     31  C   UNL     1       0.002  -0.004   0.002  0.00  0.00    -0.078 C 
ATOM     32  C   UNL     1       0.742  -0.511   1.242  0.00  0.00    -0.014 C 
ENDBRANCH  27  31
ENDBRANCH  26  27
ENDBRANCH  24  26
ENDBRANCH   1  24
TORSDOF 8
