REMARK  Name = ZINC33116235
REMARK  6 active torsions:
REMARK  status: ('A' for Active; 'I' for Inactive)
REMARK    1  A    between atoms: C_7  and  C_19
REMARK    2  A    between atoms: C_8  and  S_11
REMARK    3  A    between atoms: S_11  and  C_12
REMARK    4  A    between atoms: C_19  and  C_20
REMARK    5  A    between atoms: N_22  and  C_23
REMARK    6  A    between atoms: C_23  and  C_24
REMARK                            x       y       z     vdW  Elec       q    Type
REMARK                         _______ _______ _______ _____ _____    ______ ____
ROOT
ATOM      1  C   UNL     1      -0.012   1.076  -0.002  0.00  0.00    +0.001 A 
ATOM      2  C   UNL     1       1.183   1.781  -0.014  0.00  0.00    +0.002 A 
ATOM      3  C   UNL     1       1.187   3.160  -0.007  0.00  0.00    +0.026 A 
ATOM      4  C   UNL     1      -0.017   3.854   0.012  0.00  0.00    +0.048 A 
ATOM      5  C   UNL     1      -1.227   3.135   0.025  0.00  0.00    +0.004 A 
ATOM      6  C   UNL     1      -1.208   1.738   0.012  0.00  0.00    +0.010 A 
ATOM      7  C   UNL     1      -2.296   4.135   0.044  0.00  0.00    +0.001 A 
ATOM      8  C   UNL     1      -1.700   5.349   0.042  0.00  0.00    +0.083 A 
ATOM      9  N   UNL     1      -0.338   5.197   0.023  0.00  0.00    -0.349 N 
ATOM     10  H   UNL     1       0.461   5.953   0.016  0.00  0.00    +0.166 HD
ENDROOT
BRANCH   8  11
ATOM     11  S   UNL     1      -2.547   6.894   0.059  0.00  0.00    -0.072 S 
BRANCH  11  12
ATOM     12  C   UNL     1      -1.258   8.086   0.201  0.00  0.00    +0.014 A 
ATOM     13  C   UNL     1      -0.761   8.429   1.453  0.00  0.00    +0.016 A 
ATOM     14  C   UNL     1       0.253   9.360   1.561  0.00  0.00    +0.021 A 
ATOM     15  C   UNL     1       0.768   9.959   0.424  0.00  0.00    +0.041 A 
ATOM     16  C   UNL     1       0.272   9.624  -0.824  0.00  0.00    +0.021 A 
ATOM     17  C   UNL     1      -0.739   8.690  -0.938  0.00  0.00    +0.016 A 
ATOM     18 CL   UNL     1       2.038  11.134   0.564  0.00  0.00    -0.084 Cl
ENDBRANCH  11  12
ENDBRANCH   8  11
BRANCH   7  19
ATOM     19  C   UNL     1      -3.778   3.863   0.062  0.00  0.00    +0.134 C 
BRANCH  19  20
ATOM     20  C   UNL     1      -4.291   3.778  -1.352  0.00  0.00    +0.218 C 
ATOM     21  O   UNL     1      -3.528   3.925  -2.284  0.00  0.00    -0.275 OA
ATOM     22  N   UNL     1      -5.598   3.540  -1.582  0.00  0.00    -0.308 N 
ATOM     23  H   UNL     1      -6.289   3.408  -0.737  0.00  0.00    +0.149 HD
BRANCH  22  24
ATOM     24  C   UNL     1      -6.096   3.458  -2.957  0.00  0.00    +0.178 C 
BRANCH  24  25
ATOM     25  C   UNL     1      -7.579   3.186  -2.938  0.00  0.00    +0.122 A 
ATOM     26  C   UNL     1      -8.549   4.118  -2.921  0.00  0.00    +0.046 A 
ATOM     27  C   UNL     1      -9.781   3.425  -2.907  0.00  0.00    +0.041 A 
ATOM     28  C   UNL     1      -9.490   2.112  -2.917  0.00  0.00    +0.195 A 
ATOM     29  O   UNL     1      -8.155   1.973  -2.941  0.00  0.00    -0.466 OA
ENDBRANCH  24  25
ENDBRANCH  22  24
ENDBRANCH  19  20
ENDBRANCH   7  19
TORSDOF 6
