REMARK  Name = ZINC09160637
REMARK  7 active torsions:
REMARK  status: ('A' for Active; 'I' for Inactive)
REMARK    1  A    between atoms: C_1  and  C_2
REMARK    2  A    between atoms: C_2  and  O_3
REMARK    3  A    between atoms: O_3  and  C_4
REMARK    4  A    between atoms: C_7  and  C_10
REMARK    5  A    between atoms: C_17  and  N_31
REMARK    6  A    between atoms: C_18  and  C_29
REMARK    7  A    between atoms: C_19  and  C_21
REMARK                            x       y       z     vdW  Elec       q    Type
REMARK                         _______ _______ _______ _____ _____    ______ ____
ROOT
ATOM      1  C   UNL     1       1.313  -6.408  -1.891  0.00  0.00    +0.100 A 
ATOM      2  C   UNL     1       1.039  -6.921  -3.163  0.00  0.00    +0.054 A 
ATOM      3  C   UNL     1       1.146  -8.280  -3.103  0.00  0.00    +0.223 A 
ATOM      4  N   UNL     1       1.478  -8.610  -1.837  0.00  0.00    -0.246 N 
ATOM      5  H   UNL     1       1.622  -9.509  -1.502  0.00  0.00    +0.192 HD
ATOM      6  N   UNL     1       1.583  -7.425  -1.094  0.00  0.00    -0.171 NA
ATOM      7  O   UNL     1       0.935  -9.079  -4.178  0.00  0.00    -0.423 OA
ATOM      8  C   UNL     1       0.346  -8.529  -5.259  0.00  0.00    +0.200 C 
ATOM      9  C   UNL     1       0.194  -7.198  -5.438  0.00  0.00    +0.098 C 
ATOM     10  C   UNL     1       0.681  -6.187  -4.429  0.00  0.00    +0.104 C 
ENDROOT
BRANCH  10  11
ATOM     11  C   UNL     1       1.897  -5.478  -4.967  0.00  0.00    +0.002 A 
ATOM     12  C   UNL     1       3.056  -6.190  -5.223  0.00  0.00    +0.046 A 
ATOM     13  C   UNL     1       4.173  -5.538  -5.717  0.00  0.00    +0.020 A 
ATOM     14  C   UNL     1       4.131  -4.177  -5.954  0.00  0.00    +0.003 A 
ATOM     15  C   UNL     1       2.973  -3.466  -5.698  0.00  0.00    +0.020 A 
ATOM     16  C   UNL     1       1.854  -4.117  -5.210  0.00  0.00    +0.046 A 
ATOM     17 CL   UNL     1       0.398  -3.225  -4.897  0.00  0.00    -0.083 Cl
ATOM     18 CL   UNL     1       3.110  -7.899  -4.924  0.00  0.00    -0.083 Cl
ENDBRANCH  10  11
BRANCH   1  22
ATOM     19  C   UNL     1       1.302  -2.298  -0.793  0.00  0.00    +0.121 A 
ATOM     20  C   UNL     1       2.315  -3.133  -0.342  0.00  0.00    +0.046 A 
ATOM     21  C   UNL     1       2.321  -4.466  -0.696  0.00  0.00    +0.013 A 
ATOM     22  C   UNL     1       1.309  -4.975  -1.508  0.00  0.00    +0.003 A 
ATOM     23  C   UNL     1       0.293  -4.134  -1.960  0.00  0.00    +0.013 A 
ATOM     24  C   UNL     1       0.290  -2.803  -1.598  0.00  0.00    +0.046 A 
BRANCH  19  25
ATOM     25  O   UNL     1       1.298  -0.986  -0.443  0.00  0.00    -0.492 OA
BRANCH  25  27
ATOM     26  C   UNL     1       2.197   0.960   0.674  0.00  0.00    +0.048 C 
ATOM     27  C   UNL     1       2.370  -0.533   0.387  0.00  0.00    +0.225 C 
ENDBRANCH  25  27
ENDBRANCH  19  25
ENDBRANCH   1  22
BRANCH   8  28
ATOM     28  N   UNL     1      -0.128  -9.370  -6.236  0.00  0.00    -0.328 N 
ATOM     29  H   UNL     1      -0.033 -10.331  -6.136  0.00  0.00    +0.145 HD
ATOM     30  H   UNL     1      -0.556  -9.004  -7.025  0.00  0.00    +0.145 HD
ENDBRANCH   8  28
BRANCH   9  31
ATOM     31  C   UNL     1      -0.452  -6.730  -6.627  0.00  0.00    +0.101 C 
ATOM     32  N   UNL     1      -0.964  -6.359  -7.570  0.00  0.00    -0.191 NA
ENDBRANCH   9  31
TORSDOF 6
