REMARK  Name = ZINC66928537
REMARK  8 active torsions:
REMARK  status: ('A' for Active; 'I' for Inactive)
REMARK    1  A    between atoms: C_1  and  C_2
REMARK    2  A    between atoms: C_2  and  C_3
REMARK    3  A    between atoms: C_2  and  C_4
REMARK    4  A    between atoms: C_4  and  C_6
REMARK    5  A    between atoms: C_4  and  N_23
REMARK    6  A    between atoms: C_11  and  N_14
REMARK    7  A    between atoms: C_15  and  C_17
REMARK    8  A    between atoms: C_17  and  C_18
REMARK                            x       y       z     vdW  Elec       q    Type
REMARK                         _______ _______ _______ _____ _____    ______ ____
ROOT
ATOM      1  C   UNL     1      -2.315   0.288   1.034  0.00  0.00    +0.236 C 
ATOM      2  O   UNL     1      -3.256   1.003   0.762  0.00  0.00    -0.274 OA
ATOM      3  N   UNL     1      -1.937   0.131   2.318  0.00  0.00    -0.300 N 
ATOM      4  C   UNL     1      -0.855  -0.798   2.672  0.00  0.00    +0.109 C 
ATOM      5  C   UNL     1      -1.365  -1.764   3.746  0.00  0.00    +0.041 C 
ATOM      6  C   UNL     1      -1.916  -0.962   4.927  0.00  0.00    +0.076 C 
ATOM      7  C   UNL     1      -3.089  -0.098   4.457  0.00  0.00    +0.041 C 
ATOM      8  C   UNL     1      -2.594   0.891   3.390  0.00  0.00    +0.109 C 
ENDROOT
BRANCH   6   9
ATOM      9  N   UNL     1      -2.375  -1.882   5.970  0.00  0.00    -0.312 N 
ATOM     10  C   UNL     1      -2.425  -1.475   7.254  0.00  0.00    +0.214 C 
ATOM     11  O   UNL     1      -2.088  -0.347   7.546  0.00  0.00    -0.276 OA
ATOM     12  H   UNL     1      -2.644  -2.784   5.737  0.00  0.00    +0.149 HD
BRANCH  10  13
ATOM     13  C   UNL     1      -2.897  -2.422   8.327  0.00  0.00    +0.099 C 
BRANCH  13  14
ATOM     14  C   UNL     1      -2.856  -1.716   9.684  0.00  0.00    -0.002 C 
ATOM     15  C   UNL     1      -1.394  -1.442  10.093  0.00  0.00    +0.004 C 
ATOM     16  C   UNL     1      -1.380  -1.667  11.625  0.00  0.00    +0.000 C 
ATOM     17  C   UNL     1      -2.333  -2.876  11.802  0.00  0.00    +0.000 C 
ATOM     18  C   UNL     1      -3.453  -2.628  10.770  0.00  0.00    +0.004 C 
ENDBRANCH  13  14
ENDBRANCH  10  13
ENDBRANCH   6   9
BRANCH   1  19
ATOM     19  C   UNL     1      -1.568  -0.425  -0.064  0.00  0.00    +0.163 C 
BRANCH  19  20
ATOM     20  N   UNL     1      -2.455  -0.614  -1.214  0.00  0.00    -0.288 N 
ATOM     21  C   UNL     1      -2.226  -1.618  -2.084  0.00  0.00    +0.298 C 
ATOM     22  O   UNL     1      -1.284  -2.367  -1.913  0.00  0.00    -0.253 OA
ATOM     23  N   UNL     1      -3.042  -1.792  -3.143  0.00  0.00    -0.313 N 
ATOM     24  H   UNL     1      -3.207  -0.016  -1.350  0.00  0.00    +0.151 HD
ATOM     25  H   UNL     1      -3.794  -1.194  -3.279  0.00  0.00    +0.146 HD
ATOM     26  H   UNL     1      -2.877  -2.514  -3.768  0.00  0.00    +0.146 HD
ENDBRANCH  19  20
BRANCH  19  28
ATOM     27  C   UNL     1      -0.820   1.818  -0.871  0.00  0.00    +0.009 C 
ATOM     28  C   UNL     1      -0.358   0.411  -0.484  0.00  0.00    +0.012 C 
ATOM     29  C   UNL     1       0.629   0.502   0.681  0.00  0.00    +0.009 C 
ENDBRANCH  19  28
ENDBRANCH   1  19
TORSDOF 6
