REMARK  Name = ZINC09071136
REMARK  18 active torsions:
REMARK  status: ('A' for Active; 'I' for Inactive)
REMARK    1  A    between atoms: C_1  and  C_2
REMARK    2  A    between atoms: C_2  and  N_71
REMARK    3  A    between atoms: C_3  and  C_4
REMARK    4  A    between atoms: C_3  and  N_71
REMARK    5  A    between atoms: C_5  and  C_6
REMARK    6  A    between atoms: C_5  and  N_71
REMARK    7  A    between atoms: C_6  and  N_7
REMARK    8  A    between atoms: C_8  and  C_29
REMARK    9  A    between atoms: C_11  and  C_12
REMARK   10  A    between atoms: C_11  and  O_24
REMARK   11  A    between atoms: C_13  and  C_23
REMARK   12  A    between atoms: C_14  and  C_19
REMARK   13  A    between atoms: C_17  and  C_18
REMARK   14  A    between atoms: C_19  and  O_21
REMARK   15  A    between atoms: O_21  and  C_22
REMARK   16  A    between atoms: C_32  and  O_35
REMARK   17  A    between atoms: O_35  and  C_36
REMARK   18  A    between atoms: C_36  and  C_37
REMARK                            x       y       z     vdW  Elec       q    Type
REMARK                         _______ _______ _______ _____ _____    ______ ____
ROOT
ATOM      1  N   UNL     1      -6.909  -1.481   1.226  0.00  0.00    -0.285 N 
ATOM      2  C   UNL     1      -6.309  -2.225   0.114  0.00  0.00    +0.144 C 
ATOM      3  C   UNL     1      -7.213  -2.024  -1.080  0.00  0.00    +0.071 C 
ATOM      4  C   UNL     1      -7.040  -2.543  -2.350  0.00  0.00    +0.135 C 
ATOM      5  C   UNL     1      -8.262  -1.206  -0.642  0.00  0.00    +0.249 C 
ATOM      6  O   UNL     1      -9.197  -0.819  -1.320  0.00  0.00    -0.282 OA
ATOM      7  C   UNL     1      -8.037  -0.890   0.795  0.00  0.00    +0.288 C 
ATOM      8  O   UNL     1      -8.766  -0.200   1.478  0.00  0.00    -0.266 OA
ENDROOT
BRANCH   4   9
ATOM      9  C   UNL     1      -8.019  -2.249  -3.405  0.00  0.00    +0.041 A 
ATOM     10  C   UNL     1      -7.816  -1.423  -4.535  0.00  0.00    -0.008 A 
ATOM     11  C   UNL     1      -8.979  -1.429  -5.248  0.00  0.00    +0.128 A 
ATOM     12  N   UNL     1      -9.889  -2.226  -4.587  0.00  0.00    -0.352 N 
ATOM     13  H   UNL     1     -10.798  -2.400  -4.878  0.00  0.00    +0.166 HD
ATOM     14  C   UNL     1      -9.320  -2.722  -3.477  0.00  0.00    +0.024 A 
ATOM     15  C   UNL     1      -9.982  -3.639  -2.481  0.00  0.00    +0.064 C 
ATOM     16  C   UNL     1      -6.553  -0.679  -4.886  0.00  0.00    +0.047 C 
BRANCH  11  17
ATOM     17  C   UNL     1      -9.221  -0.708  -6.501  0.00  0.00    +0.356 C 
ATOM     18  O   UNL     1      -8.338  -0.032  -6.994  0.00  0.00    -0.243 OA
BRANCH  17  19
ATOM     19  O   UNL     1     -10.422  -0.793  -7.108  0.00  0.00    -0.463 OA
ATOM     20  C   UNL     1     -10.591  -0.052  -8.345  0.00  0.00    +0.280 C 
ENDBRANCH  17  19
ENDBRANCH  11  17
ENDBRANCH   4   9
BRANCH   2  21
ATOM     21  C   UNL     1      -4.933  -1.686  -0.184  0.00  0.00    -0.022 A 
ATOM     22  C   UNL     1      -3.908  -2.555  -0.509  0.00  0.00    +0.009 A 
ATOM     23  C   UNL     1      -2.646  -2.064  -0.782  0.00  0.00    +0.046 A 
ATOM     24  C   UNL     1      -2.408  -0.698  -0.730  0.00  0.00    +0.121 A 
ATOM     25  C   UNL     1      -3.437   0.171  -0.398  0.00  0.00    +0.046 A 
ATOM     26  C   UNL     1      -4.698  -0.325  -0.131  0.00  0.00    +0.009 A 
BRANCH  24  27
ATOM     27  O   UNL     1      -1.167  -0.212  -0.999  0.00  0.00    -0.492 OA
BRANCH  27  28
ATOM     28  C   UNL     1      -0.995   1.204  -0.926  0.00  0.00    +0.225 C 
ATOM     29  C   UNL     1       0.456   1.560  -1.258  0.00  0.00    +0.048 C 
ENDBRANCH  27  28
ENDBRANCH  24  27
ENDBRANCH   2  21
BRANCH   4  30
ATOM     30  O   UNL     1      -5.970  -3.321  -2.621  0.00  0.00    -0.506 OA
ATOM     31  H   UNL     1      -6.001  -3.609  -3.578  0.00  0.00    +0.292 HD
ENDBRANCH   4  30
BRANCH   1  32
ATOM     32  C   UNL     1      -6.367  -1.396   2.584  0.00  0.00    +0.090 C 
BRANCH  32  33
ATOM     33  C   UNL     1      -5.423  -0.196   2.683  0.00  0.00    -0.060 C 
BRANCH  33  34
ATOM     34  N   UNL     1      -4.902  -0.112   4.063  0.00  0.00    +0.380 N 
ATOM     35  H   UNL     1      -5.691  -0.134   4.720  0.00  0.00    -0.082 HD
BRANCH  34  37
ATOM     36  C   UNL     1      -2.832  -1.272   3.370  0.00  0.00    -0.017 C 
ATOM     37  C   UNL     1      -4.015  -1.261   4.340  0.00  0.00    -0.082 C 
ENDBRANCH  34  37
BRANCH  34  38
ATOM     38  C   UNL     1      -4.160   1.154   4.247  0.00  0.00    -0.082 C 
ATOM     39  C   UNL     1      -3.951   1.388   5.744  0.00  0.00    -0.017 C 
ENDBRANCH  34  38
ENDBRANCH  33  34
ENDBRANCH  32  33
ENDBRANCH   1  32
TORSDOF 12
