REMARK  Name = ZINC33244528
REMARK  7 active torsions:
REMARK  status: ('A' for Active; 'I' for Inactive)
REMARK    1  A    between atoms: C_3  and  C_9
REMARK    2  A    between atoms: C_9  and  C_10
REMARK    3  A    between atoms: C_10  and  C_11
REMARK    4  A    between atoms: N_13  and  C_14
REMARK    5  A    between atoms: C_17  and  N_20
REMARK    6  A    between atoms: N_23  and  C_24
REMARK    7  A    between atoms: C_24  and  C_25
REMARK                            x       y       z     vdW  Elec       q    Type
REMARK                         _______ _______ _______ _____ _____    ______ ____
ROOT
ATOM      1  C   UNL     1       7.379   3.979   2.499  0.00  0.00    +0.033 A 
ATOM      2  C   UNL     1       7.759   4.573   1.302  0.00  0.00    +0.025 A 
ATOM      3  C   UNL     1       8.893   5.358   1.251  0.00  0.00    +0.025 A 
ATOM      4  C   UNL     1       9.655   5.554   2.396  0.00  0.00    +0.035 A 
ATOM      5  C   UNL     1       9.275   4.959   3.592  0.00  0.00    +0.025 A 
ATOM      6  C   UNL     1       8.137   4.179   3.645  0.00  0.00    +0.025 A 
ENDROOT
BRANCH   4   7
ATOM      7  N   UNL     1      10.806   6.350   2.344  0.00  0.00    -0.269 N 
ATOM      8  C   UNL     1      11.879   6.034   3.096  0.00  0.00    +0.304 C 
ATOM      9  O   UNL     1      11.819   5.108   3.882  0.00  0.00    -0.253 OA
ATOM     10  N   UNL     1      13.018   6.744   2.977  0.00  0.00    -0.297 N 
ATOM     11  H   UNL     1      10.832   7.129   1.766  0.00  0.00    +0.156 HD
ATOM     12  H   UNL     1      13.066   7.483   2.350  0.00  0.00    +0.150 HD
BRANCH  10  13
ATOM     13  C   UNL     1      14.184   6.400   3.795  0.00  0.00    +0.137 C 
BRANCH  13  14
ATOM     14  C   UNL     1      15.336   7.354   3.468  0.00  0.00    +0.135 C 
ATOM     15  C   UNL     1      16.605   6.925   4.235  0.00  0.00    +0.035 C 
ATOM     16  C   UNL     1      17.213   8.290   4.655  0.00  0.00    +0.031 C 
ATOM     17  C   UNL     1      15.929   9.124   4.894  0.00  0.00    +0.160 C 
ATOM     18  O   UNL     1      15.001   8.681   3.889  0.00  0.00    -0.375 OA
ENDBRANCH  13  14
ENDBRANCH  10  13
ENDBRANCH   4   7
BRANCH   1  21
ATOM     19  C   UNL     1       5.456   3.186   3.655  0.00  0.00    +0.218 C 
ATOM     20  O   UNL     1       5.801   3.813   4.635  0.00  0.00    -0.275 OA
ATOM     21  N   UNL     1       6.228   3.183   2.551  0.00  0.00    -0.285 N 
ATOM     22  H   UNL     1       5.987   2.628   1.792  0.00  0.00    +0.155 HD
BRANCH  19  23
ATOM     23  C   UNL     1       4.163   2.411   3.673  0.00  0.00    +0.101 C 
BRANCH  23  24
ATOM     24  C   UNL     1       3.486   2.581   5.034  0.00  0.00    +0.046 C 
BRANCH  24  27
ATOM     25  C   UNL     1       0.954  -0.146   5.677  0.00  0.00    +0.002 A 
ATOM     26  C   UNL     1       2.140   0.565   5.660  0.00  0.00    +0.005 A 
ATOM     27  C   UNL     1       2.193   1.806   5.052  0.00  0.00    -0.027 A 
ATOM     28  C   UNL     1       1.060   2.336   4.461  0.00  0.00    +0.062 A 
ATOM     29  C   UNL     1      -0.127   1.623   4.478  0.00  0.00    +0.060 A 
ATOM     30  C   UNL     1      -0.178   0.382   5.087  0.00  0.00    +0.021 A 
ATOM     31 CL   UNL     1      -1.549   2.287   3.737  0.00  0.00    -0.082 Cl
ATOM     32 CL   UNL     1       1.127   3.894   3.698  0.00  0.00    -0.082 Cl
ENDBRANCH  24  27
ENDBRANCH  23  24
ENDBRANCH  19  23
ENDBRANCH   1  21
TORSDOF 7
