REMARK  Name = ZINC12660489
REMARK  5 active torsions:
REMARK  status: ('A' for Active; 'I' for Inactive)
REMARK    1  A    between atoms: C_1  and  C_2
REMARK    2  A    between atoms: C_6  and  C_16
REMARK    3  A    between atoms: C_8  and  C_11
REMARK    4  A    between atoms: C_11  and  N_41
REMARK    5  A    between atoms: C_16  and  C_18
REMARK                            x       y       z     vdW  Elec       q    Type
REMARK                         _______ _______ _______ _____ _____    ______ ____
ROOT
ATOM      1  C   UNL     1      -5.621   2.454  -0.059  0.00  0.00    +0.038 C 
ATOM      2  C   UNL     1      -5.335   0.952  -0.062  0.00  0.00    +0.116 C 
ATOM      3  C   UNL     1      -4.601   0.569   1.226  0.00  0.00    +0.032 C 
ATOM      4  C   UNL     1      -3.255   1.298   1.273  0.00  0.00    +0.013 C 
ATOM      5  C   UNL     1      -2.451   0.944   0.019  0.00  0.00    +0.041 C 
ATOM      6  C   UNL     1      -3.267   1.311  -1.223  0.00  0.00    +0.109 C 
ATOM      7  O   UNL     1      -4.519   0.624  -1.189  0.00  0.00    -0.375 OA
ENDROOT
BRANCH   5   8
ATOM      8  C   UNL     1      -1.156   1.715   0.017  0.00  0.00    -0.074 C 
ATOM      9  C   UNL     1      -0.013   1.076   0.008  0.00  0.00    +0.008 C 
ATOM     10  C   UNL     1      -1.176   3.222   0.025  0.00  0.00    +0.039 C 
ENDBRANCH   5   8
BRANCH   6  11
ATOM     11  C   UNL     1      -2.494   0.905  -2.480  0.00  0.00    -0.046 C 
BRANCH  11  16
ATOM     12  C   UNL     1      -3.530   2.814  -3.580  0.00  0.00    -0.079 C 
ATOM     13  C   UNL     1      -3.786   3.215  -5.055  0.00  0.00    -0.020 C 
ATOM     14  C   UNL     1      -2.745   2.373  -5.828  0.00  0.00    -0.020 C 
ATOM     15  C   UNL     1      -2.397   1.203  -4.889  0.00  0.00    -0.079 C 
ATOM     16  N   UNL     1      -3.224   1.379  -3.694  0.00  0.00    +0.381 N 
ATOM     17  H   UNL     1      -4.095   0.845  -3.794  0.00  0.00    -0.082 HD
ENDBRANCH  11  16
ENDBRANCH   6  11
TORSDOF 3
