REMARK  Name = ZINC36567654
REMARK  16 active torsions:
REMARK  status: ('A' for Active; 'I' for Inactive)
REMARK    1  A    between atoms: C_1  and  C_2
REMARK    2  A    between atoms: C_2  and  C_3
REMARK    3  A    between atoms: C_3  and  N_4
REMARK    4  A    between atoms: N_4  and  C_5
REMARK    5  A    between atoms: C_5  and  C_7
REMARK    6  A    between atoms: C_5  and  C_21
REMARK    7  A    between atoms: N_23  and  C_24
REMARK    8  A    between atoms: C_24  and  C_25
REMARK    9  A    between atoms: C_24  and  C_26
REMARK   10  A    between atoms: C_24  and  C_27
REMARK   11  A    between atoms: C_27  and  C_28
REMARK   12  A    between atoms: C_28  and  C_29
REMARK   13  A    between atoms: C_28  and  C_30
REMARK   14  A    between atoms: C_28  and  C_31
REMARK   15  A    between atoms: C_32  and  C_34
REMARK   16  A    between atoms: C_39  and  O_40
REMARK                            x       y       z     vdW  Elec       q    Type
REMARK                         _______ _______ _______ _____ _____    ______ ____
ROOT
ATOM      1  C   UNL     1      -0.453  -4.566   1.464  0.00  0.00    +0.193 C 
ENDROOT
BRANCH   1   2
ATOM      2  C   UNL     1       0.567  -4.635   0.357  0.00  0.00    -0.010 A 
ATOM      3  C   UNL     1       0.421  -3.843  -0.725  0.00  0.00    +0.015 A 
ATOM      4  C   UNL     1       1.351  -3.871  -1.790  0.00  0.00    -0.017 A 
ATOM      5  C   UNL     1       1.190  -3.043  -2.910  0.00  0.00    +0.008 A 
ATOM      6  C   UNL     1       2.103  -3.090  -3.923  0.00  0.00    +0.001 A 
ATOM      7  C   UNL     1       3.193  -3.950  -3.862  0.00  0.00    +0.001 A 
ATOM      8  C   UNL     1       3.378  -4.768  -2.784  0.00  0.00    +0.009 A 
ATOM      9  C   UNL     1       2.461  -4.743  -1.732  0.00  0.00    -0.010 A 
ATOM     10  C   UNL     1       2.620  -5.604  -0.556  0.00  0.00    -0.010 A 
ATOM     11  C   UNL     1       1.659  -5.525   0.477  0.00  0.00    -0.012 A 
ATOM     12  C   UNL     1       1.805  -6.340   1.609  0.00  0.00    +0.009 A 
ATOM     13  C   UNL     1       2.869  -7.190   1.698  0.00  0.00    +0.001 A 
ATOM     14  C   UNL     1       3.814  -7.260   0.682  0.00  0.00    +0.001 A 
ATOM     15  C   UNL     1       3.694  -6.488  -0.438  0.00  0.00    +0.009 A 
ENDBRANCH   1   2
BRANCH   1  16
ATOM     16  C   UNL     1      -1.761  -4.061   0.912  0.00  0.00    +0.239 C 
ATOM     17  O   UNL     1      -2.092  -2.909   1.096  0.00  0.00    -0.273 OA
ATOM     18  N   UNL     1      -2.562  -4.889   0.212  0.00  0.00    -0.308 N 
ATOM     19  H   UNL     1      -2.325  -5.824   0.113  0.00  0.00    +0.149 HD
BRANCH  18  20
ATOM     20  C   UNL     1      -3.791  -4.376  -0.398  0.00  0.00    +0.030 C 
ATOM     21  C   UNL     1      -4.818  -4.077   0.697  0.00  0.00    +0.031 C 
ATOM     22  C   UNL     1      -3.480  -3.093  -1.171  0.00  0.00    +0.031 C 
BRANCH  20  23
ATOM     23  C   UNL     1      -4.360  -5.424  -1.357  0.00  0.00    +0.031 C 
BRANCH  23  24
ATOM     24  C   UNL     1      -3.694  -5.277  -2.726  0.00  0.00    -0.036 C 
ATOM     25  C   UNL     1      -2.173  -5.274  -2.556  0.00  0.00    +0.010 C 
ATOM     26  C   UNL     1      -4.104  -6.448  -3.622  0.00  0.00    +0.010 C 
ATOM     27  C   UNL     1      -4.138  -3.962  -3.371  0.00  0.00    +0.010 C 
ENDBRANCH  23  24
ENDBRANCH  20  23
ENDBRANCH  18  20
ENDBRANCH   1  16
BRANCH   1  28
ATOM     28  N   UNL     1       0.021  -3.655   2.509  0.00  0.00    -0.282 N 
ATOM     29  C   UNL     1      -0.082  -4.005   3.806  0.00  0.00    +0.251 C 
ATOM     30  O   UNL     1       0.443  -3.321   4.663  0.00  0.00    -0.270 OA
BRANCH  29  31
ATOM     31  C   UNL     1      -0.830  -5.218   4.186  0.00  0.00    +0.078 A 
ATOM     32  C   UNL     1      -1.787  -5.753   3.320  0.00  0.00    +0.017 A 
ATOM     33  C   UNL     1      -2.482  -6.887   3.680  0.00  0.00    +0.001 A 
ATOM     34  C   UNL     1      -2.237  -7.500   4.898  0.00  0.00    +0.004 A 
ATOM     35  C   UNL     1      -1.294  -6.982   5.763  0.00  0.00    +0.046 A 
ATOM     36  C   UNL     1      -0.581  -5.845   5.414  0.00  0.00    +0.129 A 
BRANCH  36  37
ATOM     37  O   UNL     1       0.350  -5.338   6.261  0.00  0.00    -0.506 OA
ATOM     38  H   UNL     1       0.001  -4.690   6.888  0.00  0.00    +0.292 HD
ENDBRANCH  36  37
ENDBRANCH  29  31
BRANCH  28  39
ATOM     39  C   UNL     1       0.605  -2.362   2.143  0.00  0.00    +0.109 C 
BRANCH  39  41
ATOM     40  C   UNL     1       0.159   0.087   1.935  0.00  0.00    +0.005 C 
ATOM     41  C   UNL     1      -0.476  -1.281   2.192  0.00  0.00    +0.016 C 
ENDBRANCH  39  41
ENDBRANCH  28  39
ENDBRANCH   1  28
TORSDOF 10
