REMARK  Name = ZINC09489167
REMARK  8 active torsions:
REMARK  status: ('A' for Active; 'I' for Inactive)
REMARK    1  A    between atoms: C_1  and  C_2
REMARK    2  A    between atoms: C_2  and  C_3
REMARK    3  A    between atoms: C_4  and  C_21
REMARK    4  A    between atoms: C_7  and  O_8
REMARK    5  A    between atoms: O_8  and  S_9
REMARK    6  A    between atoms: S_9  and  C_12
REMARK    7  A    between atoms: C_15  and  C_20
REMARK    8  A    between atoms: C_17  and  C_19
REMARK                            x       y       z     vdW  Elec       q    Type
REMARK                         _______ _______ _______ _____ _____    ______ ____
ROOT
ATOM      1  C   UNL     1      -0.769   7.457   0.087  0.00  0.00    +0.039 A 
ATOM      2  C   UNL     1       0.623   7.598   0.111  0.00  0.00    +0.067 A 
ATOM      3  N   UNL     1       1.159   6.406   0.165  0.00  0.00    -0.166 NA
ATOM      4  N   UNL     1       0.129   5.457   0.168  0.00  0.00    -0.162 N 
ATOM      5  C   UNL     1      -1.055   6.129   0.122  0.00  0.00    +0.256 A 
ATOM      6  C   UNL     1       0.286   4.073   0.216  0.00  0.00    +0.255 A 
ATOM      7  N   UNL     1       1.507   3.564   0.257  0.00  0.00    -0.216 NA
ATOM      8  C   UNL     1       1.692   2.255   0.303  0.00  0.00    +0.044 A 
ATOM      9  C   UNL     1       0.589   1.416   0.308  0.00  0.00    +0.046 A 
ATOM     10  C   UNL     1      -0.675   1.984   0.258  0.00  0.00    +0.044 A 
ATOM     11  N   UNL     1      -0.788   3.301   0.219  0.00  0.00    -0.216 NA
ATOM     12  C   UNL     1      -1.903   1.111   0.255  0.00  0.00    +0.066 C 
ATOM     13  C   UNL     1       3.086   1.683   0.351  0.00  0.00    +0.066 C 
ATOM     14  C   UNL     1       1.377   8.903   0.086  0.00  0.00    +0.068 C 
ENDROOT
BRANCH   1  16
ATOM     15  C   UNL     1      -2.041   9.095   1.447  0.00  0.00    +0.009 C 
ATOM     16  C   UNL     1      -1.773   8.579   0.031  0.00  0.00    +0.039 C 
ENDBRANCH   1  16
BRANCH   5  17
ATOM     17  O   UNL     1      -2.293   5.574   0.113  0.00  0.00    -0.325 OA
BRANCH  17  18
ATOM     18  S   UNL     1      -2.911   5.461  -1.273  0.00  0.00    +0.119 S 
ATOM     19  O   UNL     1      -4.265   5.100  -1.038  0.00  0.00    -0.137 OA
ATOM     20  O   UNL     1      -2.589   6.688  -1.914  0.00  0.00    -0.137 OA
ATOM     21  C   UNL     1      -2.027   4.091  -2.067  0.00  0.00    +0.242 C 
ENDBRANCH  17  18
ENDBRANCH   5  17
TORSDOF 3
