REMARK  Name = ZINC48421814
REMARK  4 active torsions:
REMARK  status: ('A' for Active; 'I' for Inactive)
REMARK    1  A    between atoms: C_6  and  C_7
REMARK    2  A    between atoms: N_9  and  N_10
REMARK    3  A    between atoms: C_11  and  C_13
REMARK    4  A    between atoms: C_13  and  C_14
REMARK                            x       y       z     vdW  Elec       q    Type
REMARK                         _______ _______ _______ _____ _____    ______ ____
ROOT
ATOM      1  N   UNL     1      -2.124  -3.068   0.007  0.00  0.00    -0.234 N 
ATOM      2  C   UNL     1      -1.959  -4.405  -0.002  0.00  0.00    +0.231 C 
ATOM      3  O   UNL     1      -0.843  -4.879  -0.016  0.00  0.00    -0.274 OA
ATOM      4  H   UNL     1      -3.017  -2.689   0.018  0.00  0.00    +0.173 HD
ENDROOT
BRANCH   1   7
ATOM      5  C   UNL     1      -1.169  -0.887   0.009  0.00  0.00    +0.276 C 
ATOM      6  O   UNL     1      -2.289  -0.411   0.022  0.00  0.00    -0.267 OA
ATOM      7  N   UNL     1      -1.005  -2.224   0.000  0.00  0.00    -0.229 N 
ATOM      8  H   UNL     1      -0.112  -2.603  -0.011  0.00  0.00    +0.173 HD
BRANCH   5  14
ATOM      9  C   UNL     1      -0.017   1.375   0.010  0.00  0.00    +0.047 A 
ATOM     10  C   UNL     1       1.315   1.804  -0.001  0.00  0.00    +0.036 A 
ATOM     11  C   UNL     1       2.106   0.704  -0.014  0.00  0.00    +0.098 A 
ATOM     12  N   UNL     1       1.320  -0.401  -0.013  0.00  0.00    -0.356 N 
ATOM     13  H   UNL     1       1.634  -1.319  -0.021  0.00  0.00    +0.166 HD
ATOM     14  C   UNL     1       0.002  -0.004   0.002  0.00  0.00    +0.104 A 
ATOM     15 BR   UNL     1       1.905   3.600   0.003  0.00  0.00    -0.049 Br
ENDBRANCH   5  14
ENDBRANCH   1   7
BRANCH   2  16
ATOM     16  C   UNL     1      -3.163  -5.312   0.005  0.00  0.00    +0.129 C 
BRANCH  16  17
ATOM     17  C   UNL     1      -2.702  -6.771  -0.007  0.00  0.00    +0.169 C 
ATOM     18  C   UNL     1      -3.894  -7.707  -0.037  0.00  0.00    +0.241 C 
ATOM     19  O   UNL     1      -4.742  -7.785  -0.900  0.00  0.00    -0.273 OA
ATOM     20  N   UNL     1      -3.815  -8.434   1.095  0.00  0.00    -0.239 N 
ATOM     21  C   UNL     1      -2.749  -8.092   1.828  0.00  0.00    +0.307 C 
ATOM     22  O   UNL     1      -2.466  -8.608   2.891  0.00  0.00    -0.252 OA
ATOM     23  N   UNL     1      -2.022  -7.111   1.255  0.00  0.00    -0.287 N 
ATOM     24  H   UNL     1      -4.452  -9.121   1.347  0.00  0.00    +0.159 HD
ATOM     25  H   UNL     1      -1.212  -6.708   1.603  0.00  0.00    +0.151 HD
ENDBRANCH  16  17
ENDBRANCH   2  16
TORSDOF 4
