REMARK  Name = ZINC23224526
REMARK  6 active torsions:
REMARK  status: ('A' for Active; 'I' for Inactive)
REMARK    1  A    between atoms: C_1  and  C_2
REMARK    2  A    between atoms: C_7  and  N_8
REMARK    3  A    between atoms: C_9  and  C_11
REMARK    4  A    between atoms: C_11  and  N_12
REMARK    5  A    between atoms: C_13  and  C_15
REMARK    6  A    between atoms: C_15  and  C_16
REMARK                            x       y       z     vdW  Elec       q    Type
REMARK                         _______ _______ _______ _____ _____    ______ ____
ROOT
ATOM      1  N   UNL     1       1.122   5.429   1.682  0.00  0.00    -0.306 N 
ATOM      2  C   UNL     1       1.158   4.106   1.431  0.00  0.00    +0.218 C 
ATOM      3  O   UNL     1       1.190   3.315   2.350  0.00  0.00    -0.275 OA
ATOM      4  H   UNL     1       1.092   6.147   0.849  0.00  0.00    +0.149 HD
ENDROOT
BRANCH   1   5
ATOM      5  C   UNL     1       1.122   5.913   3.065  0.00  0.00    +0.200 C 
BRANCH   5   7
ATOM      6  N   UNL     1       1.071   8.089   4.240  0.00  0.00    -0.284 N 
ATOM      7  C   UNL     1       1.078   7.419   3.071  0.00  0.00    +0.234 C 
ATOM      8  O   UNL     1       1.050   8.029   2.023  0.00  0.00    -0.274 OA
ATOM      9  H   UNL     1       1.005   7.537   5.190  0.00  0.00    +0.155 HD
BRANCH   6  16
ATOM     10  C   UNL     1      -0.004   9.482   6.476  0.00  0.00    +0.046 C 
ATOM     11  C   UNL     1       0.634  10.206   5.319  0.00  0.00    -0.028 A 
ATOM     12  C   UNL     1       0.716  11.585   5.325  0.00  0.00    +0.020 A 
ATOM     13  C   UNL     1       1.297  12.250   4.260  0.00  0.00    +0.018 A 
ATOM     14  C   UNL     1       1.803  11.535   3.188  0.00  0.00    +0.017 A 
ATOM     15  C   UNL     1       1.730  10.157   3.179  0.00  0.00    +0.024 A 
ATOM     16  C   UNL     1       1.147   9.486   4.247  0.00  0.00    +0.036 A 
ATOM     17 BR   UNL     1       1.399  14.138   4.269  0.00  0.00    -0.050 Br
ENDBRANCH   6  16
ENDBRANCH   5   7
ENDBRANCH   1   5
BRANCH   2  18
ATOM     18  C   UNL     1       1.158   3.608   0.009  0.00  0.00    +0.130 C 
BRANCH  18  19
ATOM     19  C   UNL     1       1.201   2.102   0.003  0.00  0.00    -0.038 A 
ATOM     20  C   UNL     1       2.417   1.443  -0.012  0.00  0.00    +0.004 A 
ATOM     21  C   UNL     1       2.449   0.064  -0.020  0.00  0.00    +0.004 A 
ATOM     22  C   UNL     1       1.269  -0.669  -0.013  0.00  0.00    -0.044 A 
ATOM     23  C   UNL     1       0.059  -0.013   0.005  0.00  0.00    -0.044 A 
ATOM     24  C   UNL     1       0.029   1.376   0.013  0.00  0.00    +0.008 A 
ATOM     25  C   UNL     1      -1.259  -0.743   0.023  0.00  0.00    +0.035 C 
ATOM     26  C   UNL     1      -1.075  -2.194  -0.416  0.00  0.00    +0.005 C 
ATOM     27  C   UNL     1       0.060  -2.809   0.409  0.00  0.00    +0.005 C 
ATOM     28  C   UNL     1       1.377  -2.171  -0.031  0.00  0.00    +0.035 C 
ENDBRANCH  18  19
ENDBRANCH   2  18
TORSDOF 5
