REMARK  Name = ZINC39689228
REMARK  6 active torsions:
REMARK  status: ('A' for Active; 'I' for Inactive)
REMARK    1  A    between atoms: C_3  and  N_35
REMARK    2  A    between atoms: C_6  and  C_7
REMARK    3  A    between atoms: C_11  and  C_20
REMARK    4  A    between atoms: N_22  and  C_23
REMARK    5  A    between atoms: C_23  and  C_24
REMARK    6  A    between atoms: N_27  and  C_30
REMARK                            x       y       z     vdW  Elec       q    Type
REMARK                         _______ _______ _______ _____ _____    ______ ____
ROOT
ATOM      1  C   UNL     1      -1.385  -0.857  -0.036  0.00  0.00    +0.248 C 
ATOM      2  O   UNL     1      -2.425  -0.256   0.156  0.00  0.00    -0.270 OA
ATOM      3  N   UNL     1      -1.388  -2.203  -0.106  0.00  0.00    -0.296 N 
ATOM      4  C   UNL     1      -0.220  -3.110  -0.201  0.00  0.00    +0.121 C 
ATOM      5  C   UNL     1      -0.585  -4.311   0.700  0.00  0.00    +0.100 C 
ATOM      6  C   UNL     1      -2.122  -4.308   0.756  0.00  0.00    -0.004 C 
ATOM      7  C   UNL     1      -2.561  -3.111  -0.100  0.00  0.00    +0.115 C 
ATOM      8  C   UNL     1      -2.598  -4.122   2.194  0.00  0.00    -0.010 C 
ATOM      9  C   UNL     1      -4.127  -4.178   2.232  0.00  0.00    -0.082 C 
ATOM     10  N   UNL     1      -4.584  -5.471   1.707  0.00  0.00    +0.379 N 
ATOM     11  C   UNL     1      -4.202  -5.602   0.296  0.00  0.00    -0.082 C 
ATOM     12  C   UNL     1      -2.676  -5.605   0.176  0.00  0.00    -0.010 C 
ATOM     13  H   UNL     1      -4.161  -6.217   2.239  0.00  0.00    -0.086 HD
ATOM     14  H   UNL     1      -5.588  -5.530   1.789  0.00  0.00    -0.086 HD
ENDROOT
BRANCH   1  20
ATOM     15  C   UNL     1       0.983  -0.710  -0.818  0.00  0.00    +0.018 A 
ATOM     16  C   UNL     1       2.136   0.018  -0.941  0.00  0.00    +0.044 A 
ATOM     17  C   UNL     1       2.180   1.319  -0.445  0.00  0.00    +0.121 A 
ATOM     18  N   UNL     1       1.121   1.860   0.143  0.00  0.00    -0.240 NA
ATOM     19  C   UNL     1      -0.007   1.195   0.282  0.00  0.00    +0.126 A 
ATOM     20  C   UNL     1      -0.121  -0.113  -0.191  0.00  0.00    +0.055 A 
BRANCH  17  21
ATOM     21  N   UNL     1       3.344   2.058  -0.568  0.00  0.00    -0.311 N 
ATOM     22  C   UNL     1       3.363   3.498  -0.265  0.00  0.00    +0.134 C 
ATOM     23  C   UNL     1       4.527   3.775   0.695  0.00  0.00    +0.178 C 
ATOM     24  O   UNL     1       5.728   3.225   0.149  0.00  0.00    -0.377 OA
ATOM     25  C   UNL     1       5.703   1.804  -0.009  0.00  0.00    +0.178 C 
ATOM     26  C   UNL     1       4.601   1.425  -0.999  0.00  0.00    +0.134 C 
ENDBRANCH  17  21
ENDBRANCH   1  20
BRANCH   5  27
ATOM     27  C   UNL     1      -0.083  -5.595   0.091  0.00  0.00    +0.218 C 
ATOM     28  O   UNL     1      -0.004  -5.704  -1.115  0.00  0.00    -0.275 OA
ATOM     29  N   UNL     1       0.277  -6.623   0.885  0.00  0.00    -0.315 N 
ATOM     30  H   UNL     1       0.213  -6.536   1.849  0.00  0.00    +0.149 HD
BRANCH  29  31
ATOM     31  C   UNL     1       0.764  -7.871   0.293  0.00  0.00    +0.107 C 
BRANCH  31  32
ATOM     32  C   UNL     1       1.102  -8.865   1.406  0.00  0.00    +0.003 C 
ATOM     33  C   UNL     1       2.278  -8.332   2.230  0.00  0.00    -0.014 C 
ATOM     34  C   UNL     1       2.661  -9.367   3.290  0.00  0.00    -0.078 C 
ATOM     35  N   UNL     1       3.050 -10.622   2.636  0.00  0.00    +0.382 N 
ATOM     36  C   UNL     1       1.905 -11.176   1.902  0.00  0.00    -0.078 C 
ATOM     37  C   UNL     1       1.493 -10.211   0.788  0.00  0.00    -0.014 C 
ATOM     38  H   UNL     1       3.806 -10.445   1.992  0.00  0.00    -0.081 HD
BRANCH  35  39
ATOM     39  C   UNL     1       3.491 -11.586   3.652  0.00  0.00    -0.069 C 
ATOM     40  C   UNL     1       4.030 -12.874   2.980  0.00  0.00    -0.015 C 
ATOM     41  C   UNL     1       4.964 -13.461   4.068  0.00  0.00    -0.002 C 
ATOM     42  C   UNL     1       5.637 -12.224   4.697  0.00  0.00    -0.002 C 
ATOM     43  C   UNL     1       4.700 -11.032   4.433  0.00  0.00    -0.015 C 
ENDBRANCH  35  39
ENDBRANCH  31  32
ENDBRANCH  29  31
ENDBRANCH   5  27
TORSDOF 6
