REMARK  Name = ZINC39686289
REMARK  12 active torsions:
REMARK  status: ('A' for Active; 'I' for Inactive)
REMARK    1  A    between atoms: C_1  and  C_2
REMARK    2  A    between atoms: C_4  and  C_11
REMARK    3  A    between atoms: N_5  and  C_7
REMARK    4  A    between atoms: C_7  and  C_8
REMARK    5  A    between atoms: C_7  and  C_9
REMARK    6  A    between atoms: C_7  and  C_10
REMARK    7  A    between atoms: C_15  and  C_24
REMARK    8  A    between atoms: N_26  and  C_27
REMARK    9  A    between atoms: C_33  and  C_35
REMARK   10  A    between atoms: C_35  and  C_36
REMARK   11  A    between atoms: C_36  and  C_37
REMARK   12  A    between atoms: C_36  and  C_38
REMARK                            x       y       z     vdW  Elec       q    Type
REMARK                         _______ _______ _______ _____ _____    ______ ____
ROOT
ATOM      1  C   UNL     1      -0.564  -3.708  -1.500  0.00  0.00    +0.265 C 
ATOM      2  O   UNL     1      -0.782  -3.756  -2.696  0.00  0.00    -0.268 OA
ATOM      3  N   UNL     1      -0.483  -4.847  -0.784  0.00  0.00    -0.295 N 
ATOM      4  C   UNL     1      -0.359  -4.988   0.686  0.00  0.00    +0.121 C 
ATOM      5  C   UNL     1      -1.257  -6.195   1.039  0.00  0.00    +0.100 C 
ATOM      6  C   UNL     1      -1.342  -7.014  -0.260  0.00  0.00    -0.004 C 
ATOM      7  C   UNL     1      -0.503  -6.241  -1.288  0.00  0.00    +0.115 C 
ATOM      8  C   UNL     1      -2.790  -7.107  -0.732  0.00  0.00    -0.010 C 
ATOM      9  C   UNL     1      -2.856  -7.974  -1.992  0.00  0.00    -0.082 C 
ATOM     10  N   UNL     1      -2.329  -9.312  -1.697  0.00  0.00    +0.379 N 
ATOM     11  C   UNL     1      -0.910  -9.223  -1.333  0.00  0.00    -0.082 C 
ATOM     12  C   UNL     1      -0.761  -8.409  -0.044  0.00  0.00    -0.010 C 
ATOM     13  H   UNL     1      -2.847  -9.714  -0.930  0.00  0.00    -0.086 HD
ATOM     14  H   UNL     1      -2.430  -9.899  -2.511  0.00  0.00    -0.086 HD
ENDROOT
BRANCH   1  18
ATOM     15  C   UNL     1       0.397  -0.051   1.879  0.00  0.00    +0.067 C 
ATOM     16  C   UNL     1       0.026  -0.800   0.625  0.00  0.00    +0.061 A 
ATOM     17  C   UNL     1       0.011  -2.188   0.470  0.00  0.00    +0.057 A 
ATOM     18  C   UNL     1      -0.390  -2.407  -0.836  0.00  0.00    +0.124 A 
ATOM     19  N   UNL     1      -0.591  -1.172  -1.386  0.00  0.00    -0.254 N 
ATOM     20  N   UNL     1      -0.346  -0.265  -0.510  0.00  0.00    -0.175 NA
BRANCH  19  21
ATOM     21  C   UNL     1      -1.025  -0.921  -2.762  0.00  0.00    +0.056 C 
ATOM     22  C   UNL     1      -2.329  -1.676  -3.031  0.00  0.00    +0.036 C 
ATOM     23  C   UNL     1      -1.254   0.579  -2.959  0.00  0.00    +0.036 C 
ATOM     24  C   UNL     1       0.053  -1.405  -3.733  0.00  0.00    +0.036 C 
ENDBRANCH  19  21
ENDBRANCH   1  18
BRANCH   5  25
ATOM     25  C   UNL     1      -2.626  -5.726   1.457  0.00  0.00    +0.218 C 
ATOM     26  O   UNL     1      -3.089  -4.708   0.986  0.00  0.00    -0.275 OA
ATOM     27  N   UNL     1      -3.337  -6.437   2.355  0.00  0.00    -0.312 N 
ATOM     28  H   UNL     1      -2.938  -7.206   2.790  0.00  0.00    +0.149 HD
BRANCH  27  29
ATOM     29  C   UNL     1      -4.713  -6.047   2.673  0.00  0.00    +0.076 C 
ATOM     30  C   UNL     1      -4.700  -4.967   3.756  0.00  0.00    +0.041 C 
ATOM     31  C   UNL     1      -6.139  -4.537   4.062  0.00  0.00    +0.109 C 
ATOM     32  N   UNL     1      -6.925  -5.730   4.408  0.00  0.00    -0.301 N 
ATOM     33  C   UNL     1      -6.933  -6.865   3.476  0.00  0.00    +0.109 C 
ATOM     34  C   UNL     1      -5.485  -7.269   3.177  0.00  0.00    +0.041 C 
ATOM     35  C   UNL     1      -7.624  -5.780   5.559  0.00  0.00    +0.216 C 
ATOM     36  O   UNL     1      -7.609  -4.836   6.320  0.00  0.00    -0.276 OA
BRANCH  35  37
ATOM     37  C   UNL     1      -8.425  -7.010   5.900  0.00  0.00    +0.099 C 
BRANCH  37  38
ATOM     38  C   UNL     1      -9.119  -6.810   7.249  0.00  0.00    -0.008 C 
ATOM     39  C   UNL     1     -10.143  -5.679   7.133  0.00  0.00    +0.008 C 
ATOM     40  C   UNL     1      -9.830  -8.102   7.654  0.00  0.00    +0.008 C 
ENDBRANCH  37  38
ENDBRANCH  35  37
ENDBRANCH  27  29
ENDBRANCH   5  25
TORSDOF 6
