REMARK  Name = ZINC08740432
REMARK  4 active torsions:
REMARK  status: ('A' for Active; 'I' for Inactive)
REMARK    1  A    between atoms: C_3  and  C_7
REMARK    2  A    between atoms: N_13  and  N_14
REMARK    3  A    between atoms: N_14  and  C_15
REMARK    4  A    between atoms: N_22  and  C_25
REMARK                            x       y       z     vdW  Elec       q    Type
REMARK                         _______ _______ _______ _____ _____    ______ ____
ROOT
ATOM      1  C   UNL     1      -2.791   1.572   0.040  0.00  0.00    +0.102 C 
ATOM      2  C   UNL     1      -1.517   2.109   0.025  0.00  0.00    +0.114 C 
ATOM      3  C   UNL     1      -0.322   1.251  -0.052  0.00  0.00    +0.258 C 
ATOM      4  O   UNL     1      -0.424   0.040  -0.103  0.00  0.00    -0.270 OA
ATOM      5  N   UNL     1       0.889   1.845  -0.068  0.00  0.00    -0.235 N 
ATOM      6  C   UNL     1       1.017   3.178  -0.011  0.00  0.00    +0.320 C 
ATOM      7  O   UNL     1       2.136   3.651  -0.030  0.00  0.00    -0.251 OA
ATOM      8  N   UNL     1      -0.025   4.018   0.065  0.00  0.00    -0.190 N 
ATOM      9  C   UNL     1      -1.296   3.565   0.090  0.00  0.00    +0.265 C 
ATOM     10  O   UNL     1      -2.233   4.337   0.161  0.00  0.00    -0.269 OA
ATOM     11  H   UNL     1       1.686   1.295  -0.122  0.00  0.00    +0.159 HD
ENDROOT
BRANCH   8  12
ATOM     12  C   UNL     1       0.210   5.399   0.121  0.00  0.00    +0.046 A 
ATOM     13  C   UNL     1      -0.184   6.214  -0.931  0.00  0.00    +0.025 A 
ATOM     14  C   UNL     1       0.044   7.575  -0.870  0.00  0.00    +0.016 A 
ATOM     15  C   UNL     1       0.675   8.124   0.231  0.00  0.00    +0.013 A 
ATOM     16  C   UNL     1       1.074   7.312   1.278  0.00  0.00    +0.016 A 
ATOM     17  C   UNL     1       0.843   5.952   1.226  0.00  0.00    +0.025 A 
ATOM     18  I   UNL     1       1.026  10.188   0.315  0.00  0.00    -0.044 I 
ENDBRANCH   8  12
BRANCH   1  19
ATOM     19  N   UNL     1      -3.866   2.383  -0.033  0.00  0.00    -0.283 N 
ATOM     20  H   UNL     1      -3.746   3.335  -0.177  0.00  0.00    +0.166 HD
BRANCH  19  26
ATOM     21  C   UNL     1      -5.922   2.114  -1.109  0.00  0.00    +0.107 C 
ATOM     22  C   UNL     1      -7.268   1.397  -0.989  0.00  0.00    +0.025 C 
ATOM     23  C   UNL     1      -8.006   1.912   0.251  0.00  0.00    +0.003 C 
ATOM     24  C   UNL     1      -7.132   1.684   1.487  0.00  0.00    +0.017 C 
ATOM     25  C   UNL     1      -5.789   2.393   1.294  0.00  0.00    +0.106 C 
ATOM     26  N   UNL     1      -5.123   1.864   0.097  0.00  0.00    -0.222 NA
BRANCH  21  29
ATOM     27  C   UNL     1      -4.492   1.800  -4.587  0.00  0.00    +0.020 A 
ATOM     28  C   UNL     1      -5.191   2.312  -3.504  0.00  0.00    +0.008 A 
ATOM     29  C   UNL     1      -5.184   1.596  -2.317  0.00  0.00    -0.011 A 
ATOM     30  C   UNL     1      -4.496   0.399  -2.256  0.00  0.00    +0.116 A 
ATOM     31  N   UNL     1      -3.848  -0.061  -3.308  0.00  0.00    -0.263 NA
ATOM     32  C   UNL     1      -3.828   0.596  -4.452  0.00  0.00    +0.111 A 
ENDBRANCH  21  29
ENDBRANCH  19  26
ENDBRANCH   1  19
TORSDOF 4
