REMARK  Name = ZINC04887473
REMARK  11 active torsions:
REMARK  status: ('A' for Active; 'I' for Inactive)
REMARK    1  A    between atoms: C_1  and  C_2
REMARK    2  A    between atoms: C_2  and  O_4
REMARK    3  A    between atoms: O_4  and  C_5
REMARK    4  A    between atoms: C_5  and  C_6
REMARK    5  A    between atoms: C_8  and  O_31
REMARK    6  A    between atoms: C_10  and  O_27
REMARK    7  A    between atoms: C_12  and  N_15
REMARK    8  A    between atoms: O_27  and  C_28
REMARK    9  A    between atoms: C_28  and  C_30
REMARK   10  A    between atoms: O_31  and  C_32
REMARK   11  A    between atoms: C_32  and  C_34
REMARK                            x       y       z     vdW  Elec       q    Type
REMARK                         _______ _______ _______ _____ _____    ______ ____
ROOT
ATOM      1  C   UNL     1      -4.533   2.599   2.261  0.00  0.00    +0.203 C 
ATOM      2  C   UNL     1      -3.101   3.068   1.920  0.00  0.00    +0.253 C 
ATOM      3  C   UNL     1      -2.191   2.029   2.612  0.00  0.00    +0.269 C 
ATOM      4  C   UNL     1      -3.178   1.054   3.292  0.00  0.00    +0.268 C 
ATOM      5  O   UNL     1      -4.389   1.824   3.471  0.00  0.00    -0.342 OA
ENDROOT
BRANCH   4   6
ATOM      6  N   UNL     1      -3.432  -0.101   2.426  0.00  0.00    -0.269 N 
ATOM      7  C   UNL     1      -4.541  -0.298   1.641  0.00  0.00    +0.170 A 
ATOM      8  C   UNL     1      -4.343  -1.534   0.995  0.00  0.00    +0.146 A 
ATOM      9  C   UNL     1      -5.333  -1.989   0.120  0.00  0.00    +0.161 A 
ATOM     10  N   UNL     1      -6.410  -1.240  -0.062  0.00  0.00    -0.203 NA
ATOM     11  C   UNL     1      -6.557  -0.085   0.564  0.00  0.00    +0.226 A 
ATOM     12  N   UNL     1      -5.651   0.386   1.397  0.00  0.00    -0.198 NA
ATOM     13 CL   UNL     1      -7.995   0.844   0.277  0.00  0.00    -0.041 Cl
ATOM     14 CL   UNL     1      -5.156  -3.503  -0.709  0.00  0.00    -0.060 Cl
ATOM     15  N   UNL     1      -3.147  -2.015   1.414  0.00  0.00    -0.213 NA
ATOM     16  C   UNL     1      -2.609  -1.173   2.250  0.00  0.00    +0.208 A 
ATOM     17 CL   UNL     1      -1.071  -1.386   3.027  0.00  0.00    -0.043 Cl
ENDBRANCH   4   6
BRANCH   1  18
ATOM     18  C   UNL     1      -5.444   3.804   2.505  0.00  0.00    +0.267 C 
BRANCH  18  19
ATOM     19  O   UNL     1      -6.808   3.346   2.707  0.00  0.00    -0.462 OA
BRANCH  19  21
ATOM     20  C   UNL     1      -9.175   3.887   3.154  0.00  0.00    +0.136 C 
ATOM     21  C   UNL     1      -7.738   4.287   2.935  0.00  0.00    +0.304 C 
ATOM     22  O   UNL     1      -7.424   5.453   2.965  0.00  0.00    -0.251 OA
ENDBRANCH  19  21
ENDBRANCH  18  19
ENDBRANCH   1  18
BRANCH   3  23
ATOM     23  O   UNL     1      -1.380   1.330   1.631  0.00  0.00    -0.453 OA
BRANCH  23  24
ATOM     24  C   UNL     1      -0.194   0.858   2.046  0.00  0.00    +0.304 C 
ATOM     25  O   UNL     1       0.156   1.024   3.190  0.00  0.00    -0.251 OA
ATOM     26  C   UNL     1       0.703   0.122   1.084  0.00  0.00    +0.136 C 
ENDBRANCH  23  24
ENDBRANCH   3  23
BRANCH   2  27
ATOM     27  O   UNL     1      -2.859   4.395   2.458  0.00  0.00    -0.455 OA
BRANCH  27  28
ATOM     28  C   UNL     1      -3.053   5.433   1.629  0.00  0.00    +0.304 C 
ATOM     29  O   UNL     1      -3.414   5.239   0.492  0.00  0.00    -0.251 OA
ATOM     30  C   UNL     1      -2.821   6.840   2.117  0.00  0.00    +0.136 C 
ENDBRANCH  27  28
ENDBRANCH   2  27
TORSDOF 8
