REMARK  Name = ZINC12468551
REMARK  6 active torsions:
REMARK  status: ('A' for Active; 'I' for Inactive)
REMARK    1  A    between atoms: C_1  and  C_2
REMARK    2  A    between atoms: C_3  and  C_26
REMARK    3  A    between atoms: C_8  and  C_10
REMARK    4  A    between atoms: C_10  and  S_11
REMARK    5  A    between atoms: S_11  and  C_12
REMARK    6  A    between atoms: N_16  and  C_17
REMARK                            x       y       z     vdW  Elec       q    Type
REMARK                         _______ _______ _______ _____ _____    ______ ____
ROOT
ATOM      1  C   UNL     1       0.002  -0.004   0.002  0.00  0.00    +0.214 A 
ATOM      2  N   UNL     1       1.265  -0.372  -0.012  0.00  0.00    -0.101 NA
ATOM      3  N   UNL     1       2.034   0.656  -0.014  0.00  0.00    -0.022 NA
ATOM      4  N   UNL     1       1.335   1.739  -0.001  0.00  0.00    -0.038 NA
ATOM      5  N   UNL     1      -0.016   1.352   0.009  0.00  0.00    -0.187 N 
ENDROOT
BRANCH   5   6
ATOM      6  C   UNL     1      -1.143   2.190   0.020  0.00  0.00    +0.074 A 
ATOM      7  C   UNL     1      -2.290   1.817  -0.666  0.00  0.00    +0.032 A 
ATOM      8  C   UNL     1      -3.400   2.640  -0.658  0.00  0.00    +0.051 A 
ATOM      9  C   UNL     1      -3.370   3.840   0.035  0.00  0.00    +0.166 A 
ATOM     10  C   UNL     1      -2.220   4.216   0.725  0.00  0.00    +0.168 A 
ATOM     11  C   UNL     1      -1.110   3.387   0.720  0.00  0.00    +0.077 A 
ATOM     12  O   UNL     1      -2.443   5.425   1.319  0.00  0.00    -0.453 OA
ATOM     13  C   UNL     1      -3.873   5.591   1.327  0.00  0.00    +0.466 C 
ATOM     14  O   UNL     1      -4.314   4.814   0.198  0.00  0.00    -0.453 OA
ENDBRANCH   5   6
BRANCH   1  15
ATOM     15  S   UNL     1      -1.400  -1.071   0.010  0.00  0.00    -0.075 S 
BRANCH  15  16
ATOM     16  C   UNL     1      -0.571  -2.680  -0.007  0.00  0.00    +0.173 C 
BRANCH  16  24
ATOM     17  C   UNL     1      -5.753  -6.927   0.020  0.00  0.00    +0.066 C 
ATOM     18  C   UNL     1      -4.251  -7.053   0.005  0.00  0.00    +0.050 A 
ATOM     19  C   UNL     1      -3.657  -8.271  -0.007  0.00  0.00    +0.011 A 
ATOM     20  S   UNL     1      -1.933  -7.800  -0.021  0.00  0.00    -0.057 S 
ATOM     21  C   UNL     1      -2.169  -6.080  -0.010  0.00  0.00    +0.165 A 
ATOM     22  N   UNL     1      -3.484  -5.980   0.009  0.00  0.00    -0.230 NA
ATOM     23  N   UNL     1      -1.216  -5.068  -0.013  0.00  0.00    -0.264 N 
ATOM     24  C   UNL     1      -1.604  -3.777  -0.003  0.00  0.00    +0.229 C 
ATOM     25  O   UNL     1      -2.785  -3.499   0.010  0.00  0.00    -0.275 OA
ATOM     26  C   UNL     1      -4.279  -9.644  -0.009  0.00  0.00    +0.053 C 
ATOM     27  H   UNL     1      -0.272  -5.290  -0.024  0.00  0.00    +0.157 HD
ENDBRANCH  16  24
ENDBRANCH  15  16
ENDBRANCH   1  15
TORSDOF 4
