REMARK  Name = ZINC12706282
REMARK  11 active torsions:
REMARK  status: ('A' for Active; 'I' for Inactive)
REMARK    1  A    between atoms: C_1  and  C_2
REMARK    2  A    between atoms: C_5  and  C_7
REMARK    3  A    between atoms: N_10  and  C_12
REMARK    4  A    between atoms: C_12  and  C_13
REMARK    5  A    between atoms: N_15  and  C_16
REMARK    6  A    between atoms: N_15  and  C_22
REMARK    7  A    between atoms: C_22  and  C_24
REMARK    8  A    between atoms: C_22  and  C_31
REMARK    9  A    between atoms: C_27  and  O_30
REMARK   10  A    between atoms: N_33  and  C_34
REMARK   11  A    between atoms: C_34  and  C_35
REMARK                            x       y       z     vdW  Elec       q    Type
REMARK                         _______ _______ _______ _____ _____    ______ ____
ROOT
ATOM      1  C   UNL     1       5.192  -4.865  -5.022  0.00  0.00    +0.244 C 
ATOM      2  O   UNL     1       5.468  -5.331  -3.936  0.00  0.00    -0.273 OA
ATOM      3  N   UNL     1       4.370  -3.801  -5.109  0.00  0.00    -0.254 N 
ENDROOT
BRANCH   3   4
ATOM      4  C   UNL     1       3.971  -3.326  -6.364  0.00  0.00    +0.037 A 
ATOM      5  C   UNL     1       3.141  -4.097  -7.168  0.00  0.00    +0.023 A 
ATOM      6  C   UNL     1       2.745  -3.623  -8.403  0.00  0.00    +0.002 A 
ATOM      7  C   UNL     1       3.183  -2.388  -8.844  0.00  0.00    +0.000 A 
ATOM      8  C   UNL     1       4.014  -1.621  -8.048  0.00  0.00    +0.002 A 
ATOM      9  C   UNL     1       4.410  -2.087  -6.810  0.00  0.00    +0.023 A 
ENDBRANCH   3   4
BRANCH   1  10
ATOM     10  C   UNL     1       5.769  -5.477  -6.273  0.00  0.00    +0.264 C 
BRANCH  10  14
ATOM     11  C   UNL     1       8.138  -7.934  -5.372  0.00  0.00    +0.239 A 
ATOM     12  N   UNL     1       7.026  -8.671  -5.516  0.00  0.00    -0.105 NA
ATOM     13  N   UNL     1       6.075  -7.867  -5.851  0.00  0.00    -0.045 NA
ATOM     14  N   UNL     1       6.543  -6.670  -5.921  0.00  0.00    -0.154 N 
ATOM     15  N   UNL     1       7.800  -6.686  -5.638  0.00  0.00    -0.127 NA
BRANCH  11  20
ATOM     16  C   UNL     1      13.031  -7.987  -4.251  0.00  0.00    +0.086 C 
ATOM     17  C   UNL     1      11.621  -8.453  -4.503  0.00  0.00    +0.103 A 
ATOM     18  C   UNL     1      11.186  -9.726  -4.414  0.00  0.00    +0.045 A 
ATOM     19  C   UNL     1       9.811  -9.715  -4.723  0.00  0.00    +0.053 A 
ATOM     20  C   UNL     1       9.481  -8.425  -4.995  0.00  0.00    +0.175 A 
ATOM     21  O   UNL     1      10.588  -7.670  -4.854  0.00  0.00    -0.457 OA
ENDBRANCH  11  20
ENDBRANCH  10  14
ENDBRANCH   1  10
BRANCH   3  22
ATOM     22  C   UNL     1       3.894  -3.142  -3.891  0.00  0.00    +0.197 C 
BRANCH  22  23
ATOM     23  C   UNL     1       3.135  -1.893  -4.260  0.00  0.00    -0.018 A 
ATOM     24  C   UNL     1       2.043  -1.972  -5.104  0.00  0.00    +0.009 A 
ATOM     25  C   UNL     1       1.343  -0.830  -5.439  0.00  0.00    +0.046 A 
ATOM     26  C   UNL     1       1.744   0.400  -4.937  0.00  0.00    +0.117 A 
ATOM     27  C   UNL     1       2.844   0.478  -4.095  0.00  0.00    +0.046 A 
ATOM     28  C   UNL     1       3.537  -0.668  -3.758  0.00  0.00    +0.009 A 
BRANCH  26  29
ATOM     29  O   UNL     1       1.060   1.527  -5.270  0.00  0.00    -0.507 OA
ATOM     30  H   UNL     1       1.390   1.966  -6.066  0.00  0.00    +0.292 HD
ENDBRANCH  26  29
ENDBRANCH  22  23
BRANCH  22  31
ATOM     31  C   UNL     1       2.984  -4.077  -3.136  0.00  0.00    +0.239 C 
ATOM     32  O   UNL     1       2.757  -5.185  -3.573  0.00  0.00    -0.273 OA
ATOM     33  N   UNL     1       2.424  -3.682  -1.976  0.00  0.00    -0.311 N 
ATOM     34  H   UNL     1       2.606  -2.795  -1.627  0.00  0.00    +0.149 HD
BRANCH  33  35
ATOM     35  C   UNL     1       1.540  -4.591  -1.242  0.00  0.00    +0.135 C 
BRANCH  35  36
ATOM     36  C   UNL     1       1.043  -3.902   0.030  0.00  0.00    +0.135 C 
ATOM     37  C   UNL     1       0.214  -4.891   0.872  0.00  0.00    +0.035 C 
ATOM     38  C   UNL     1      -1.170  -4.209   1.006  0.00  0.00    +0.031 C 
ATOM     39  C   UNL     1      -0.829  -2.725   0.719  0.00  0.00    +0.160 C 
ATOM     40  O   UNL     1       0.180  -2.804  -0.310  0.00  0.00    -0.375 OA
ENDBRANCH  35  36
ENDBRANCH  33  35
ENDBRANCH  22  31
ENDBRANCH   3  22
TORSDOF 10
