REMARK  Name = ZINC58309900
REMARK  5 active torsions:
REMARK  status: ('A' for Active; 'I' for Inactive)
REMARK    1  A    between atoms: C_3  and  N_20
REMARK    2  A    between atoms: C_6  and  C_7
REMARK    3  A    between atoms: C_7  and  N_8
REMARK    4  A    between atoms: N_8  and  C_9
REMARK    5  A    between atoms: C_9  and  C_10
REMARK                            x       y       z     vdW  Elec       q    Type
REMARK                         _______ _______ _______ _____ _____    ______ ____
ROOT
ATOM      1  C   UNL     1      -1.289  -0.781   0.029  0.00  0.00    -0.045 C 
ENDROOT
BRANCH   1   7
ATOM      2  C   UNL     1      -0.008   1.366  -0.219  0.00  0.00    +0.006 A 
ATOM      3  C   UNL     1       1.198   2.042  -0.229  0.00  0.00    +0.044 A 
ATOM      4  C   UNL     1       2.374   1.332  -0.013  0.00  0.00    +0.121 A 
ATOM      5  N   UNL     1       2.342   0.025   0.200  0.00  0.00    -0.240 NA
ATOM      6  C   UNL     1       1.206  -0.646   0.215  0.00  0.00    +0.114 A 
ATOM      7  C   UNL     1       0.002  -0.004   0.008  0.00  0.00    -0.046 A 
BRANCH   4   8
ATOM      8  N   UNL     1       3.594   1.999  -0.022  0.00  0.00    -0.315 N 
ATOM      9  C   UNL     1       4.811   1.218  -0.044  0.00  0.00    +0.106 C 
ATOM     10  C   UNL     1       5.255   0.909   1.407  0.00  0.00    +0.019 C 
ATOM     11  C   UNL     1       5.757   2.128   2.059  0.00  0.00    +0.002 C 
ATOM     12  C   UNL     1       4.716   3.234   2.210  0.00  0.00    +0.002 C 
ATOM     13  C   UNL     1       4.662   4.047   0.941  0.00  0.00    +0.019 C 
ATOM     14  C   UNL     1       3.593   3.475  -0.015  0.00  0.00    +0.106 C 
ENDBRANCH   4   8
ENDBRANCH   1   7
BRANCH   1  15
ATOM     15  N   UNL     1      -1.595  -1.259  -1.326  0.00  0.00    +0.382 N 
ATOM     16  H   UNL     1      -1.687  -0.470  -1.948  0.00  0.00    -0.085 HD
ATOM     17  H   UNL     1      -0.848  -1.856  -1.649  0.00  0.00    -0.085 HD
BRANCH  15  18
ATOM     18  C   UNL     1      -2.853  -2.017  -1.305  0.00  0.00    -0.075 C 
BRANCH  18  19
ATOM     19  C   UNL     1      -3.171  -2.515  -2.717  0.00  0.00    +0.010 C 
ATOM     20  C   UNL     1      -3.431  -1.314  -3.633  0.00  0.00    +0.106 C 
ATOM     21  N   UNL     1      -3.667  -1.812  -5.003  0.00  0.00    -0.329 N 
ATOM     22  C   UNL     1      -4.491  -2.934  -5.115  0.00  0.00    +0.117 A 
ATOM     23  C   UNL     1      -5.066  -3.472  -6.213  0.00  0.00    +0.064 A 
ATOM     24  C   UNL     1      -5.801  -4.591  -5.801  0.00  0.00    +0.136 A 
ATOM     25  N   UNL     1      -5.670  -4.718  -4.502  0.00  0.00    -0.178 NA
ATOM     26  N   UNL     1      -4.849  -3.688  -4.043  0.00  0.00    -0.251 N 
ATOM     27  C   UNL     1      -4.413  -3.413  -2.672  0.00  0.00    +0.148 C 
ATOM     28  H   UNL     1      -3.272  -1.385  -5.779  0.00  0.00    +0.147 HD
ENDBRANCH  18  19
ENDBRANCH  15  18
ENDBRANCH   1  15
TORSDOF 5
