REMARK  Name = ZINC59592688
REMARK  10 active torsions:
REMARK  status: ('A' for Active; 'I' for Inactive)
REMARK    1  A    between atoms: C_1  and  C_2
REMARK    2  A    between atoms: C_2  and  C_3
REMARK    3  A    between atoms: C_3  and  C_4
REMARK    4  A    between atoms: C_10  and  C_13
REMARK    5  A    between atoms: N_15  and  N_16
REMARK    6  A    between atoms: C_17  and  C_19
REMARK    7  A    between atoms: C_22  and  C_25
REMARK    8  A    between atoms: C_25  and  O_26
REMARK    9  A    between atoms: O_26  and  C_27
REMARK   10  A    between atoms: C_31  and  C_33
REMARK                            x       y       z     vdW  Elec       q    Type
REMARK                         _______ _______ _______ _____ _____    ______ ____
ROOT
ATOM      1  N   UNL     1       0.581  -8.149  -4.932  0.00  0.00    -0.230 N 
ATOM      2  C   UNL     1       0.137  -8.794  -6.028  0.00  0.00    +0.260 C 
ATOM      3  O   UNL     1      -0.375  -8.169  -6.936  0.00  0.00    -0.269 OA
ATOM      4  H   UNL     1       0.989  -8.648  -4.207  0.00  0.00    +0.173 HD
ENDROOT
BRANCH   2   5
ATOM      5  C   UNL     1       0.271 -10.264  -6.126  0.00  0.00    +0.038 A 
ATOM      6  C   UNL     1       0.852 -10.985  -5.082  0.00  0.00    +0.013 A 
ATOM      7  C   UNL     1       0.974 -12.356  -5.179  0.00  0.00    +0.008 A 
ATOM      8  C   UNL     1       0.521 -13.015  -6.309  0.00  0.00    -0.010 A 
ATOM      9  C   UNL     1      -0.056 -12.306  -7.347  0.00  0.00    +0.008 A 
ATOM     10  C   UNL     1      -0.189 -10.935  -7.260  0.00  0.00    +0.013 A 
BRANCH   8  11
ATOM     11  C   UNL     1       0.658 -14.513  -6.408  0.00  0.00    +0.264 C 
BRANCH  11  12
ATOM     12  O   UNL     1      -0.510 -15.135  -5.868  0.00  0.00    -0.487 OA
BRANCH  12  13
ATOM     13  C   UNL     1      -0.548 -16.493  -5.882  0.00  0.00    +0.121 A 
ATOM     14  C   UNL     1       0.520 -17.213  -6.399  0.00  0.00    +0.047 A 
ATOM     15  C   UNL     1       0.479 -18.593  -6.412  0.00  0.00    +0.024 A 
ATOM     16  C   UNL     1      -0.625 -19.259  -5.910  0.00  0.00    +0.044 A 
ATOM     17  C   UNL     1      -1.691 -18.543  -5.394  0.00  0.00    -0.029 A 
ATOM     18  C   UNL     1      -1.651 -17.162  -5.373  0.00  0.00    +0.050 A 
ATOM     19  C   UNL     1      -2.893 -19.270  -4.848  0.00  0.00    +0.045 C 
ATOM     20 CL   UNL     1      -0.674 -20.994  -5.928  0.00  0.00    -0.083 Cl
ENDBRANCH  12  13
ENDBRANCH  11  12
ENDBRANCH   8  11
ENDBRANCH   2   5
BRANCH   1  23
ATOM     21  C   UNL     1       0.899  -6.111  -3.743  0.00  0.00    +0.234 C 
ATOM     22  O   UNL     1       1.409  -6.735  -2.837  0.00  0.00    -0.274 OA
ATOM     23  N   UNL     1       0.454  -6.756  -4.839  0.00  0.00    -0.234 N 
ATOM     24  H   UNL     1       0.046  -6.257  -5.564  0.00  0.00    +0.173 HD
BRANCH  21  31
ATOM     25  C   UNL     1       0.739  -2.004  -1.265  0.00  0.00    +0.216 C 
ATOM     26  O   UNL     1       0.231  -2.623  -0.354  0.00  0.00    -0.276 OA
ATOM     27  N   UNL     1       1.322  -2.665  -2.285  0.00  0.00    -0.301 N 
ATOM     28  C   UNL     1       1.947  -1.929  -3.393  0.00  0.00    +0.108 C 
ATOM     29  C   UNL     1       1.358  -2.434  -4.714  0.00  0.00    +0.020 C 
ATOM     30  C   UNL     1       1.524  -3.953  -4.795  0.00  0.00    +0.016 C 
ATOM     31  C   UNL     1       0.762  -4.613  -3.643  0.00  0.00    +0.094 C 
ATOM     32  C   UNL     1       1.349  -4.134  -2.307  0.00  0.00    +0.120 C 
BRANCH  25  33
ATOM     33  C   UNL     1       0.718  -0.497  -1.257  0.00  0.00    +0.096 C 
BRANCH  33  35
ATOM     34  C   UNL     1      -0.019   1.526   0.010  0.00  0.00    +0.004 C 
ATOM     35  C   UNL     1       0.002  -0.004   0.002  0.00  0.00    +0.006 C 
ENDBRANCH  33  35
ENDBRANCH  25  33
ENDBRANCH  21  31
ENDBRANCH   1  23
TORSDOF 8
