REMARK  Name = ZINC39143950
REMARK  7 active torsions:
REMARK  status: ('A' for Active; 'I' for Inactive)
REMARK    1  A    between atoms: C_1  and  C_2
REMARK    2  A    between atoms: C_3  and  C_29
REMARK    3  A    between atoms: C_6  and  N_15
REMARK    4  A    between atoms: N_15  and  S_16
REMARK    5  A    between atoms: S_16  and  C_19
REMARK    6  A    between atoms: C_29  and  O_31
REMARK    7  A    between atoms: O_31  and  C_32
REMARK                            x       y       z     vdW  Elec       q    Type
REMARK                         _______ _______ _______ _____ _____    ______ ____
ROOT
ATOM      1  C   UNL     1       0.524   1.357  -0.838  0.00  0.00    +0.087 C 
ATOM      2  C   UNL     1       0.432  -0.140  -0.687  0.00  0.00    +0.117 A 
ATOM      3  C   UNL     1      -0.725  -0.844  -0.532  0.00  0.00    +0.107 A 
ATOM      4  C   UNL     1      -0.319  -2.260  -0.427  0.00  0.00    +0.037 A 
ATOM      5  C   UNL     1      -1.027  -3.459  -0.258  0.00  0.00    +0.037 A 
ATOM      6  C   UNL     1      -0.369  -4.651  -0.193  0.00  0.00    +0.057 A 
ATOM      7  C   UNL     1       1.041  -4.688  -0.296  0.00  0.00    +0.008 A 
ATOM      8  C   UNL     1       1.737  -5.904  -0.232  0.00  0.00    +0.010 A 
ATOM      9  C   UNL     1       3.095  -5.913  -0.335  0.00  0.00    +0.001 A 
ATOM     10  C   UNL     1       3.808  -4.729  -0.503  0.00  0.00    +0.001 A 
ATOM     11  C   UNL     1       3.165  -3.530  -0.569  0.00  0.00    +0.012 A 
ATOM     12  C   UNL     1       1.766  -3.484  -0.467  0.00  0.00    +0.027 A 
ATOM     13  C   UNL     1       1.070  -2.257  -0.532  0.00  0.00    +0.144 A 
ATOM     14  O   UNL     1       1.471  -0.980  -0.691  0.00  0.00    -0.459 OA
ENDROOT
BRANCH   6  15
ATOM     15  N   UNL     1      -1.088  -5.836  -0.023  0.00  0.00    -0.216 N 
ATOM     16  H   UNL     1      -0.717  -6.556   0.510  0.00  0.00    +0.174 HD
BRANCH  15  17
ATOM     17  S   UNL     1      -2.574  -6.012  -0.734  0.00  0.00    +0.072 S 
ATOM     18  O   UNL     1      -2.982  -7.352  -0.495  0.00  0.00    -0.150 OA
ATOM     19  O   UNL     1      -3.353  -4.895  -0.328  0.00  0.00    -0.150 OA
BRANCH  17  20
ATOM     20  C   UNL     1      -2.341  -5.859  -2.474  0.00  0.00    +0.110 A 
ATOM     21  C   UNL     1      -2.431  -4.539  -3.085  0.00  0.00    +0.031 A 
ATOM     22  C   UNL     1      -2.263  -4.352  -4.412  0.00  0.00    +0.027 A 
ATOM     23  C   UNL     1      -1.980  -5.499  -5.272  0.00  0.00    +0.056 A 
ATOM     24  N   UNL     1      -1.771  -5.663  -6.554  0.00  0.00    -0.268 N 
ATOM     25  C   UNL     1      -1.554  -7.000  -6.791  0.00  0.00    +0.308 C 
ATOM     26  O   UNL     1      -1.328  -7.489  -7.878  0.00  0.00    -0.252 OA
ATOM     27  N   UNL     1      -1.631  -7.701  -5.610  0.00  0.00    -0.267 N 
ATOM     28  C   UNL     1      -1.887  -6.855  -4.644  0.00  0.00    +0.058 A 
ATOM     29  C   UNL     1      -2.078  -6.968  -3.199  0.00  0.00    +0.054 A 
ATOM     30  H   UNL     1      -1.515  -8.659  -5.510  0.00  0.00    +0.156 HD
ATOM     31  H   UNL     1      -1.769  -4.961  -7.223  0.00  0.00    +0.156 HD
ENDBRANCH  17  20
ENDBRANCH  15  17
ENDBRANCH   6  15
BRANCH   3  32
ATOM     32  C   UNL     1      -2.091  -0.305  -0.480  0.00  0.00    +0.343 C 
ATOM     33  O   UNL     1      -2.736  -0.183  -1.503  0.00  0.00    -0.245 OA
BRANCH  32  34
ATOM     34  O   UNL     1      -2.629   0.053   0.703  0.00  0.00    -0.464 OA
ATOM     35  C   UNL     1      -3.962   0.568   0.679  0.00  0.00    +0.280 C 
ENDBRANCH  32  34
ENDBRANCH   3  32
TORSDOF 5
