REMARK  Name = ZINC09207182
REMARK  5 active torsions:
REMARK  status: ('A' for Active; 'I' for Inactive)
REMARK    1  A    between atoms: C_1  and  C_2
REMARK    2  A    between atoms: C_10  and  C_12
REMARK    3  A    between atoms: C_12  and  S_13
REMARK    4  A    between atoms: S_13  and  C_14
REMARK    5  A    between atoms: N_18  and  C_19
REMARK                            x       y       z     vdW  Elec       q    Type
REMARK                         _______ _______ _______ _____ _____    ______ ____
ROOT
ATOM      1  C   UNL     1      -2.239  -0.580  -0.883  0.00  0.00    +0.198 A 
ATOM      2  N   UNL     1      -3.099  -1.539  -0.637  0.00  0.00    -0.120 NA
ATOM      3  N   UNL     1      -2.695  -2.194   0.534  0.00  0.00    -0.112 NA
ATOM      4  C   UNL     1      -1.599  -1.620   0.964  0.00  0.00    +0.225 A 
ATOM      5  N   UNL     1      -1.290  -0.602   0.103  0.00  0.00    -0.258 N 
ATOM      6  N   UNL     1      -0.879  -1.979   2.096  0.00  0.00    -0.295 N 
ATOM      7  C   UNL     1      -0.414  -3.371   2.005  0.00  0.00    +0.136 C 
ATOM      8  C   UNL     1       0.423  -3.706   3.243  0.00  0.00    +0.179 C 
ATOM      9  O   UNL     1      -0.358  -3.471   4.418  0.00  0.00    -0.377 OA
ATOM     10  C   UNL     1      -0.827  -2.125   4.538  0.00  0.00    +0.179 C 
ATOM     11  C   UNL     1      -1.676  -1.774   3.314  0.00  0.00    +0.136 C 
ENDROOT
BRANCH   5  12
ATOM     12  C   UNL     1      -0.190   0.263   0.209  0.00  0.00    +0.054 A 
ATOM     13  C   UNL     1      -0.390   1.613   0.465  0.00  0.00    +0.026 A 
ATOM     14  C   UNL     1       0.694   2.463   0.568  0.00  0.00    +0.005 A 
ATOM     15  C   UNL     1       1.977   1.972   0.418  0.00  0.00    +0.038 A 
ATOM     16  C   UNL     1       2.180   0.626   0.163  0.00  0.00    +0.125 A 
ATOM     17  C   UNL     1       1.098  -0.229   0.058  0.00  0.00    +0.064 A 
ATOM     18  F   UNL     1       3.436   0.149   0.016  0.00  0.00    -0.205 F 
ENDBRANCH   5  12
BRANCH   1  19
ATOM     19  S   UNL     1      -2.296   0.539  -2.243  0.00  0.00    -0.079 S 
BRANCH  19  20
ATOM     20  C   UNL     1      -3.778   0.039  -3.161  0.00  0.00    +0.142 C 
BRANCH  20  30
ATOM     21  C   UNL     1      -4.882   4.516  -9.487  0.00  0.00    +0.066 C 
ATOM     22  C   UNL     1      -4.388   3.860  -8.223  0.00  0.00    +0.046 A 
ATOM     23  C   UNL     1      -3.246   4.314  -7.598  0.00  0.00    +0.095 A 
ATOM     24  C   UNL     1      -2.804   3.694  -6.429  0.00  0.00    +0.275 A 
ATOM     25  O   UNL     1      -1.793   4.092  -5.870  0.00  0.00    -0.266 OA
ATOM     26  N   UNL     1      -3.502   2.641  -5.911  0.00  0.00    -0.171 N 
ATOM     27  C   UNL     1      -4.623   2.256  -6.595  0.00  0.00    +0.199 A 
ATOM     28  N   UNL     1      -5.045   2.832  -7.691  0.00  0.00    -0.227 NA
ATOM     29  S   UNL     1      -5.221   0.895  -5.616  0.00  0.00    -0.032 S 
ATOM     30  C   UNL     1      -3.947   0.928  -4.366  0.00  0.00    +0.113 A 
ATOM     31  N   UNL     1      -3.205   1.919  -4.759  0.00  0.00    -0.158 NA
ENDBRANCH  20  30
ENDBRANCH  19  20
ENDBRANCH   1  19
TORSDOF 4
