REMARK  Name = ZINC09371027
REMARK  11 active torsions:
REMARK  status: ('A' for Active; 'I' for Inactive)
REMARK    1  A    between atoms: C_1  and  C_2
REMARK    2  A    between atoms: C_2  and  C_3
REMARK    3  A    between atoms: C_3  and  C_4
REMARK    4  A    between atoms: C_4  and  C_5
REMARK    5  A    between atoms: C_5  and  C_6
REMARK    6  A    between atoms: C_18  and  C_20
REMARK    7  A    between atoms: C_23  and  O_26
REMARK    8  A    between atoms: O_26  and  C_27
REMARK    9  A    between atoms: C_27  and  C_28
REMARK   10  A    between atoms: C_37  and  C_39
REMARK   11  A    between atoms: C_37  and  C_40
REMARK                            x       y       z     vdW  Elec       q    Type
REMARK                         _______ _______ _______ _____ _____    ______ ____
ROOT
ATOM      1  C   UNL     1       3.831   0.861  -2.016  0.00  0.00    +0.221 C 
ATOM      2  O   UNL     1       3.569  -0.323  -2.046  0.00  0.00    -0.275 OA
ATOM      3  N   UNL     1       3.334   1.636  -1.032  0.00  0.00    -0.258 N 
ATOM      4  C   UNL     1       3.641   2.995  -1.014  0.00  0.00    +0.058 A 
ATOM      5  C   UNL     1       3.159   3.859  -1.983  0.00  0.00    +0.025 A 
ATOM      6  C   UNL     1       3.395   5.217  -1.860  0.00  0.00    +0.002 A 
ATOM      7  C   UNL     1       4.106   5.710  -0.780  0.00  0.00    +0.002 A 
ATOM      8  C   UNL     1       4.607   4.846   0.178  0.00  0.00    +0.025 A 
ATOM      9  C   UNL     1       4.387   3.485   0.047  0.00  0.00    +0.053 A 
ATOM     10  N   UNL     1       4.901   2.559   0.945  0.00  0.00    -0.316 N 
ATOM     11  C   UNL     1       4.155   1.772   1.763  0.00  0.00    +0.017 C 
ATOM     12  C   UNL     1       3.073   1.076   1.376  0.00  0.00    +0.037 C 
ATOM     13  C   UNL     1       2.490   1.045  -0.016  0.00  0.00    +0.147 C 
ATOM     14  C   UNL     1       2.367   0.279   2.309  0.00  0.00    +0.163 C 
ATOM     15  O   UNL     1       1.404  -0.357   1.928  0.00  0.00    -0.292 OA
ATOM     16  C   UNL     1       2.767   0.193   3.752  0.00  0.00    +0.086 C 
ATOM     17  C   UNL     1       3.457   1.505   4.145  0.00  0.00    -0.023 C 
ATOM     18  C   UNL     1       4.641   1.708   3.201  0.00  0.00    +0.058 C 
ATOM     19  C   UNL     1       2.475   2.670   4.003  0.00  0.00    +0.011 C 
ATOM     20  C   UNL     1       3.953   1.418   5.590  0.00  0.00    +0.011 C 
ATOM     21  H   UNL     1       5.865   2.466   0.992  0.00  0.00    +0.152 HD
ENDROOT
BRANCH  13  22
ATOM     22  C   UNL     1       1.176   1.783   0.000  0.00  0.00    -0.022 A 
ATOM     23  C   UNL     1       0.002   1.108  -0.281  0.00  0.00    +0.009 A 
ATOM     24  C   UNL     1      -1.203   1.783  -0.272  0.00  0.00    +0.046 A 
ATOM     25  C   UNL     1      -1.237   3.137   0.031  0.00  0.00    +0.121 A 
ATOM     26  C   UNL     1      -0.058   3.811   0.314  0.00  0.00    +0.046 A 
ATOM     27  C   UNL     1       1.146   3.133   0.298  0.00  0.00    +0.009 A 
BRANCH  25  28
ATOM     28  O   UNL     1      -2.422   3.802   0.045  0.00  0.00    -0.487 OA
BRANCH  28  29
ATOM     29  C   UNL     1      -3.595   3.044  -0.256  0.00  0.00    +0.264 C 
BRANCH  29  30
ATOM     30  C   UNL     1      -4.803   3.942  -0.192  0.00  0.00    -0.010 A 
ATOM     31  C   UNL     1      -5.492   4.091   0.997  0.00  0.00    +0.007 A 
ATOM     32  C   UNL     1      -6.597   4.919   1.057  0.00  0.00    +0.000 A 
ATOM     33  C   UNL     1      -7.021   5.589  -0.075  0.00  0.00    +0.000 A 
ATOM     34  C   UNL     1      -6.335   5.436  -1.266  0.00  0.00    +0.000 A 
ATOM     35  C   UNL     1      -5.227   4.612  -1.324  0.00  0.00    +0.007 A 
ENDBRANCH  29  30
ENDBRANCH  28  29
ENDBRANCH  25  28
ENDBRANCH  13  22
BRANCH   1  36
ATOM     36  C   UNL     1       4.712   1.465  -3.080  0.00  0.00    +0.096 C 
BRANCH  36  37
ATOM     37  C   UNL     1       5.136   0.377  -4.068  0.00  0.00    +0.009 C 
BRANCH  37  38
ATOM     38  C   UNL     1       6.030   0.990  -5.148  0.00  0.00    +0.000 C 
BRANCH  38  40
ATOM     39  C   UNL     1       7.349   0.516  -7.216  0.00  0.00    +0.004 C 
ATOM     40  C   UNL     1       6.455  -0.098  -6.136  0.00  0.00    -0.003 C 
ENDBRANCH  38  40
ENDBRANCH  37  38
ENDBRANCH  36  37
ENDBRANCH   1  36
TORSDOF 8
