REMARK  Name = ZINC08862345
REMARK  9 active torsions:
REMARK  status: ('A' for Active; 'I' for Inactive)
REMARK    1  A    between atoms: C_1  and  C_2
REMARK    2  A    between atoms: C_2  and  N_3
REMARK    3  A    between atoms: C_7  and  S_25
REMARK    4  A    between atoms: C_11  and  C_12
REMARK    5  A    between atoms: C_12  and  S_13
REMARK    6  A    between atoms: S_13  and  C_14
REMARK    7  A    between atoms: C_18  and  C_24
REMARK    8  A    between atoms: C_20  and  C_23
REMARK    9  A    between atoms: S_25  and  N_28
REMARK                            x       y       z     vdW  Elec       q    Type
REMARK                         _______ _______ _______ _____ _____    ______ ____
ROOT
ATOM      1  N   UNL     1       4.589  -3.951  -1.177  0.00  0.00    -0.327 N 
ATOM      2  C   UNL     1       5.141  -5.149  -0.770  0.00  0.00    +0.069 A 
ATOM      3  C   UNL     1       5.643  -6.258  -1.436  0.00  0.00    +0.030 A 
ATOM      4  C   UNL     1       6.136  -7.324  -0.714  0.00  0.00    +0.030 A 
ATOM      5  C   UNL     1       6.133  -7.295   0.673  0.00  0.00    +0.108 A 
ATOM      6  C   UNL     1       5.643  -6.211   1.346  0.00  0.00    +0.058 A 
ATOM      7  C   UNL     1       5.138  -5.120   0.635  0.00  0.00    +0.091 A 
ATOM      8  N   UNL     1       4.601  -3.929   1.005  0.00  0.00    -0.231 NA
ATOM      9  C   UNL     1       4.276  -3.248  -0.055  0.00  0.00    +0.121 A 
ENDROOT
BRANCH   5  10
ATOM     10  S   UNL     1       6.768  -8.668   1.576  0.00  0.00    +0.061 S 
ATOM     11  O   UNL     1       6.155  -8.630   2.858  0.00  0.00    -0.153 OA
ATOM     12  O   UNL     1       6.672  -9.797   0.719  0.00  0.00    -0.153 OA
BRANCH  10  13
ATOM     13  N   UNL     1       8.383  -8.392   1.816  0.00  0.00    -0.172 NA
ATOM     14  C   UNL     1       9.384  -8.861   0.845  0.00  0.00    +0.137 C 
ATOM     15  C   UNL     1      10.303  -7.680   0.494  0.00  0.00    +0.177 C 
ATOM     16  O   UNL     1      10.810  -7.106   1.701  0.00  0.00    -0.377 OA
ATOM     17  C   UNL     1       9.804  -6.555   2.555  0.00  0.00    +0.177 C 
ATOM     18  C   UNL     1       8.860  -7.674   3.009  0.00  0.00    +0.137 C 
ENDBRANCH  10  13
ENDBRANCH   5  10
BRANCH   1  20
ATOM     19  C   UNL     1       5.620  -2.765  -3.052  0.00  0.00    +0.027 C 
ATOM     20  C   UNL     1       4.380  -3.517  -2.561  0.00  0.00    +0.120 C 
ENDBRANCH   1  20
BRANCH   9  21
ATOM     21  C   UNL     1       3.650  -1.877  -0.043  0.00  0.00    +0.151 C 
BRANCH  21  22
ATOM     22  S   UNL     1       1.843  -2.037  -0.026  0.00  0.00    -0.077 S 
BRANCH  22  23
ATOM     23  C   UNL     1       1.268  -0.372  -0.012  0.00  0.00    +0.211 A 
ATOM     24  N   UNL     1       2.043   0.710  -0.014  0.00  0.00    -0.183 NA
ATOM     25  C   UNL     1       1.288   1.803  -0.001  0.00  0.00    +0.254 A 
ATOM     26  N   UNL     1       1.589   3.107   0.003  0.00  0.00    -0.216 NA
ATOM     27  C   UNL     1       0.641   4.017   0.017  0.00  0.00    +0.044 A 
ATOM     28  C   UNL     1      -0.705   3.635   0.028  0.00  0.00    +0.046 A 
ATOM     29  C   UNL     1      -1.020   2.313   0.029  0.00  0.00    +0.045 A 
ATOM     30  N   UNL     1      -0.017   1.397   0.010  0.00  0.00    -0.200 N 
ATOM     31  N   UNL     1       0.002  -0.004   0.002  0.00  0.00    -0.137 NA
ATOM     32  C   UNL     1      -2.460   1.870   0.047  0.00  0.00    +0.066 C 
ATOM     33  C   UNL     1       1.006   5.479   0.021  0.00  0.00    +0.066 C 
ENDBRANCH  22  23
ENDBRANCH  21  22
ENDBRANCH   9  21
TORSDOF 6
