REMARK  Name = ZINC06197995
REMARK  13 active torsions:
REMARK  status: ('A' for Active; 'I' for Inactive)
REMARK    1  A    between atoms: C_1  and  C_2
REMARK    2  A    between atoms: C_2  and  C_3
REMARK    3  A    between atoms: C_10  and  C_15
REMARK    4  A    between atoms: C_15  and  C_17
REMARK    5  A    between atoms: C_15  and  N_67
REMARK    6  A    between atoms: N_21  and  C_22
REMARK    7  A    between atoms: C_22  and  C_23
REMARK    8  A    between atoms: C_23  and  O_24
REMARK    9  A    between atoms: O_24  and  C_25
REMARK   10  A    between atoms: C_26  and  C_27
REMARK   11  A    between atoms: C_26  and  N_67
REMARK   12  A    between atoms: C_34  and  C_35
REMARK   13  A    between atoms: C_34  and  N_67
REMARK                            x       y       z     vdW  Elec       q    Type
REMARK                         _______ _______ _______ _____ _____    ______ ____
ROOT
ATOM      1  C   UNL     1       6.269  -1.366   0.289  0.00  0.00    +0.040 C 
ENDROOT
BRANCH   1   9
ATOM      2  C   UNL     1       0.765   0.262  -2.020  0.00  0.00    -0.047 A 
ATOM      3  C   UNL     1       0.055   0.139  -0.833  0.00  0.00    +0.005 A 
ATOM      4  C   UNL     1       0.689  -0.249   0.328  0.00  0.00    +0.026 A 
ATOM      5  C   UNL     1       2.053  -0.520   0.312  0.00  0.00    +0.049 A 
ATOM      6  C   UNL     1       2.769  -0.394  -0.893  0.00  0.00    -0.001 A 
ATOM      7  C   UNL     1       2.105   0.001  -2.059  0.00  0.00    +0.013 A 
ATOM      8  C   UNL     1       4.204  -0.683  -0.899  0.00  0.00    +0.017 A 
ATOM      9  C   UNL     1       4.794  -1.062   0.261  0.00  0.00    +0.011 A 
ATOM     10  C   UNL     1       4.030  -1.173   1.443  0.00  0.00    +0.251 A 
ATOM     11  O   UNL     1       4.580  -1.516   2.475  0.00  0.00    -0.268 OA
ATOM     12  N   UNL     1       2.712  -0.911   1.458  0.00  0.00    -0.322 N 
ATOM     13  H   UNL     1       2.201  -1.000   2.314  0.00  0.00    +0.169 HD
BRANCH   2  15
ATOM     14  C   UNL     1       0.086   2.212  -3.393  0.00  0.00    +0.009 C 
ATOM     15  C   UNL     1       0.050   0.687  -3.277  0.00  0.00    +0.032 C 
ENDBRANCH   2  15
ENDBRANCH   1   9
BRANCH   1  16
ATOM     16  C   UNL     1       6.829  -1.270  -1.107  0.00  0.00    +0.143 A 
ATOM     17  N   UNL     1       7.093  -0.171  -1.770  0.00  0.00    -0.115 NA
ATOM     18  N   UNL     1       7.559  -0.504  -2.924  0.00  0.00    -0.023 NA
ATOM     19  N   UNL     1       7.591  -1.788  -3.017  0.00  0.00    -0.044 NA
ATOM     20  N   UNL     1       7.149  -2.296  -1.917  0.00  0.00    -0.228 N 
BRANCH  20  21
ATOM     21  C   UNL     1       7.019  -3.722  -1.607  0.00  0.00    +0.175 C 
BRANCH  21  22
ATOM     22  C   UNL     1       5.634  -4.213  -2.036  0.00  0.00    +0.183 C 
BRANCH  22  23
ATOM     23  O   UNL     1       5.507  -5.604  -1.734  0.00  0.00    -0.381 OA
ATOM     24  C   UNL     1       4.244  -6.164  -2.096  0.00  0.00    +0.194 C 
ENDBRANCH  22  23
ENDBRANCH  21  22
ENDBRANCH  20  21
ENDBRANCH   1  16
BRANCH   1  25
ATOM     25  N   UNL     1       6.942  -0.402   1.185  0.00  0.00    +0.397 N 
ATOM     26  H   UNL     1       6.571  -0.514   2.136  0.00  0.00    -0.079 HD
BRANCH  25  27
ATOM     27  C   UNL     1       8.397  -0.660   1.204  0.00  0.00    -0.041 C 
BRANCH  27  28
ATOM     28  C   UNL     1       9.002   0.063   2.380  0.00  0.00    -0.064 A 
ATOM     29  C   UNL     1       9.595   1.299   2.201  0.00  0.00    +0.004 A 
ATOM     30  C   UNL     1      10.145   1.964   3.280  0.00  0.00    +0.038 A 
ATOM     31  C   UNL     1      10.112   1.388   4.538  0.00  0.00    +0.123 A 
ATOM     32  C   UNL     1       9.522   0.148   4.716  0.00  0.00    +0.038 A 
ATOM     33  C   UNL     1       8.967  -0.513   3.636  0.00  0.00    +0.004 A 
ATOM     34  F   UNL     1      10.653   2.036   5.593  0.00  0.00    -0.205 F 
ENDBRANCH  27  28
ENDBRANCH  25  27
BRANCH  25  35
ATOM     35  C   UNL     1       6.680   0.980   0.728  0.00  0.00    -0.001 C 
BRANCH  35  36
ATOM     36  C   UNL     1       5.407   1.465   1.373  0.00  0.00    +0.089 A 
ATOM     37  C   UNL     1       5.301   1.986   2.608  0.00  0.00    +0.042 A 
ATOM     38  C   UNL     1       3.937   2.304   2.803  0.00  0.00    +0.041 A 
ATOM     39  C   UNL     1       3.292   1.958   1.675  0.00  0.00    +0.195 A 
ATOM     40  O   UNL     1       4.188   1.455   0.810  0.00  0.00    -0.470 OA
ENDBRANCH  35  36
ENDBRANCH  25  35
ENDBRANCH   1  25
TORSDOF 11
