REMARK  Name = ZINC35982030
REMARK  7 active torsions:
REMARK  status: ('A' for Active; 'I' for Inactive)
REMARK    1  A    between atoms: C_1  and  C_2
REMARK    2  A    between atoms: C_2  and  C_3
REMARK    3  A    between atoms: C_6  and  C_9
REMARK    4  A    between atoms: C_18  and  C_22
REMARK    5  A    between atoms: N_24  and  C_25
REMARK    6  A    between atoms: C_25  and  C_26
REMARK    7  A    between atoms: C_32  and  C_34
REMARK                            x       y       z     vdW  Elec       q    Type
REMARK                         _______ _______ _______ _____ _____    ______ ____
ROOT
ATOM      1  C   UNL     1       3.712  -0.832  -2.018  0.00  0.00    +0.247 C 
ATOM      2  O   UNL     1       2.672  -0.423  -2.497  0.00  0.00    -0.270 OA
ATOM      3  N   UNL     1       4.743  -1.157  -2.824  0.00  0.00    -0.297 N 
ATOM      4  C   UNL     1       5.959  -1.771  -2.273  0.00  0.00    +0.112 C 
ATOM      5  C   UNL     1       6.244  -3.069  -3.034  0.00  0.00    +0.074 C 
ATOM      6  C   UNL     1       6.307  -2.774  -4.534  0.00  0.00    +0.142 C 
ATOM      7  C   UNL     1       4.968  -2.211  -5.013  0.00  0.00    +0.074 C 
ATOM      8  C   UNL     1       4.669  -0.910  -4.270  0.00  0.00    +0.112 C 
ATOM      9  N   UNL     1       7.377  -1.801  -4.802  0.00  0.00    -0.255 N 
ATOM     10  C   UNL     1       8.314  -2.469  -5.733  0.00  0.00    +0.190 C 
ATOM     11  C   UNL     1       7.438  -3.581  -6.361  0.00  0.00    +0.194 C 
ATOM     12  O   UNL     1       6.604  -3.983  -5.250  0.00  0.00    -0.353 OA
ATOM     13  C   UNL     1       7.483  -0.554  -4.301  0.00  0.00    +0.249 C 
ATOM     14  O   UNL     1       6.617  -0.118  -3.568  0.00  0.00    -0.270 OA
ENDROOT
BRANCH  13  15
ATOM     15  C   UNL     1       8.651   0.283  -4.643  0.00  0.00    +0.037 A 
ATOM     16  C   UNL     1       9.804  -0.305  -5.169  0.00  0.00    +0.016 A 
ATOM     17  C   UNL     1      10.892   0.480  -5.486  0.00  0.00    +0.039 A 
ATOM     18  C   UNL     1      10.842   1.851  -5.284  0.00  0.00    +0.123 A 
ATOM     19  C   UNL     1       9.700   2.440  -4.763  0.00  0.00    +0.039 A 
ATOM     20  C   UNL     1       8.605   1.665  -4.448  0.00  0.00    +0.016 A 
ATOM     21  F   UNL     1      11.912   2.616  -5.596  0.00  0.00    -0.205 F 
ENDBRANCH  13  15
BRANCH   1  25
ATOM     22  C   UNL     1       4.098  -1.234   2.193  0.00  0.00    -0.048 A 
ATOM     23  C   UNL     1       5.179  -0.813   1.439  0.00  0.00    +0.004 A 
ATOM     24  C   UNL     1       5.060  -0.680   0.071  0.00  0.00    +0.013 A 
ATOM     25  C   UNL     1       3.846  -0.972  -0.553  0.00  0.00    +0.037 A 
ATOM     26  C   UNL     1       2.760  -1.397   0.213  0.00  0.00    +0.013 A 
ATOM     27  C   UNL     1       2.893  -1.531   1.580  0.00  0.00    +0.004 A 
BRANCH  22  29
ATOM     28  C   UNL     1       4.704  -2.794   4.023  0.00  0.00    +0.009 C 
ATOM     29  C   UNL     1       4.234  -1.377   3.687  0.00  0.00    +0.032 C 
ENDBRANCH  22  29
ENDBRANCH   1  25
BRANCH  10  30
ATOM     30  C   UNL     1       8.798  -1.505  -6.786  0.00  0.00    +0.236 C 
ATOM     31  O   UNL     1       8.116  -0.550  -7.093  0.00  0.00    -0.274 OA
ATOM     32  N   UNL     1       9.987  -1.705  -7.387  0.00  0.00    -0.311 N 
ATOM     33  H   UNL     1      10.532  -2.469  -7.141  0.00  0.00    +0.149 HD
BRANCH  32  34
ATOM     34  C   UNL     1      10.457  -0.769  -8.411  0.00  0.00    +0.135 C 
BRANCH  34  35
ATOM     35  C   UNL     1      11.824  -1.222  -8.928  0.00  0.00    +0.135 C 
ATOM     36  C   UNL     1      12.382  -0.178  -9.918  0.00  0.00    +0.035 C 
ATOM     37  C   UNL     1      13.039  -1.072 -11.005  0.00  0.00    +0.031 C 
ATOM     38  C   UNL     1      12.078  -2.287 -11.007  0.00  0.00    +0.160 C 
ATOM     39  O   UNL     1      11.690  -2.462  -9.633  0.00  0.00    -0.375 OA
ENDBRANCH  34  35
ENDBRANCH  32  34
ENDBRANCH  10  30
TORSDOF 6
