REMARK  Name = ZINC66193301
REMARK  6 active torsions:
REMARK  status: ('A' for Active; 'I' for Inactive)
REMARK    1  A    between atoms: C_1  and  C_2
REMARK    2  A    between atoms: C_9  and  C_11
REMARK    3  A    between atoms: C_11  and  C_12
REMARK    4  A    between atoms: C_12  and  N_13
REMARK    5  A    between atoms: N_16  and  C_17
REMARK    6  A    between atoms: N_16  and  C_18
REMARK                            x       y       z     vdW  Elec       q    Type
REMARK                         _______ _______ _______ _____ _____    ______ ____
ROOT
ATOM      1  N   UNL     1       0.218  -6.364   3.248  0.00  0.00    -0.299 N 
ATOM      2  C   UNL     1      -0.224  -7.153   4.247  0.00  0.00    +0.302 C 
ATOM      3  O   UNL     1      -0.737  -6.657   5.232  0.00  0.00    -0.253 OA
ATOM      4  N   UNL     1      -0.099  -8.491   4.154  0.00  0.00    -0.286 N 
ATOM      5  C   UNL     1       0.519  -9.089   2.968  0.00  0.00    +0.134 C 
ATOM      6  H   UNL     1       0.627  -6.759   2.462  0.00  0.00    +0.150 HD
ENDROOT
BRANCH   4   7
ATOM      7  C   UNL     1      -0.580  -9.349   5.240  0.00  0.00    +0.080 C 
ATOM      8  C   UNL     1       0.588 -10.163   5.803  0.00  0.00    +0.041 C 
ATOM      9  C   UNL     1       0.088 -11.033   6.960  0.00  0.00    +0.108 C 
ATOM     10  N   UNL     1      -1.042 -11.845   6.488  0.00  0.00    -0.317 N 
ATOM     11  C   UNL     1      -2.179 -11.170   5.848  0.00  0.00    +0.108 C 
ATOM     12  C   UNL     1      -1.653 -10.298   4.703  0.00  0.00    +0.041 C 
ATOM     13  C   UNL     1      -1.034 -13.226   6.644  0.00  0.00    +0.099 A 
ATOM     14  C   UNL     1      -2.164 -13.964   6.304  0.00  0.00    +0.042 A 
ATOM     15  C   UNL     1      -2.143 -15.338   6.464  0.00  0.00    +0.005 A 
ATOM     16  C   UNL     1      -0.989 -15.930   6.960  0.00  0.00    +0.018 A 
ATOM     17  C   UNL     1       0.096 -15.137   7.276  0.00  0.00    +0.084 A 
ATOM     18  N   UNL     1       0.049 -13.829   7.108  0.00  0.00    -0.350 N 
ATOM     19  H   UNL     1       0.827 -13.295   7.334  0.00  0.00    +0.166 HD
ENDBRANCH   4   7
BRANCH   1  20
ATOM     20  C   UNL     1       0.082  -4.909   3.349  0.00  0.00    +0.115 C 
BRANCH  20  21
ATOM     21  C   UNL     1       0.659  -4.254   2.092  0.00  0.00    +0.114 C 
BRANCH  21  29
ATOM     22  C   UNL     1       0.090   1.529   0.036  0.00  0.00    +0.009 C 
ATOM     23  C   UNL     1       0.115  -0.001   0.028  0.00  0.00    +0.003 C 
ATOM     24  C   UNL     1       0.861  -0.493  -1.215  0.00  0.00    +0.006 C 
ATOM     25  C   UNL     1       0.858  -2.023  -1.241  0.00  0.00    +0.019 C 
ATOM     26  C   UNL     1       1.583  -2.552   0.000  0.00  0.00    +0.108 C 
ATOM     27  N   UNL     1       0.962  -1.968   1.197  0.00  0.00    -0.301 N 
ATOM     28  C   UNL     1       0.831  -0.507   1.283  0.00  0.00    +0.111 C 
ATOM     29  C   UNL     1       0.519  -2.757   2.196  0.00  0.00    +0.217 C 
ATOM     30  O   UNL     1       0.007  -2.263   3.178  0.00  0.00    -0.276 OA
ENDBRANCH  21  29
ENDBRANCH  20  21
ENDBRANCH   1  20
TORSDOF 4
