REMARK  Name = ZINC01773708
REMARK  13 active torsions:
REMARK  status: ('A' for Active; 'I' for Inactive)
REMARK    1  A    between atoms: C_1  and  C_2
REMARK    2  A    between atoms: C_2  and  O_3
REMARK    3  A    between atoms: O_3  and  C_4
REMARK    4  A    between atoms: C_4  and  C_6
REMARK    5  A    between atoms: C_12  and  C_13
REMARK    6  A    between atoms: C_16  and  C_19
REMARK    7  A    between atoms: C_21  and  N_37
REMARK    8  A    between atoms: C_22  and  C_32
REMARK    9  A    between atoms: C_23  and  C_25
REMARK   10  A    between atoms: C_28  and  C_31
REMARK   11  A    between atoms: C_32  and  O_34
REMARK   12  A    between atoms: O_34  and  C_35
REMARK   13  A    between atoms: C_35  and  C_36
REMARK                            x       y       z     vdW  Elec       q    Type
REMARK                         _______ _______ _______ _____ _____    ______ ____
ROOT
ATOM      1  C   UNL     1      -2.480   5.059   5.666  0.00  0.00    +0.079 C 
ATOM      2  C   UNL     1      -3.836   4.991   5.847  0.00  0.00    +0.100 A 
ATOM      3  N   UNL     1      -4.495   3.901   6.378  0.00  0.00    -0.257 N 
ATOM      4  C   UNL     1      -5.836   3.977   6.497  0.00  0.00    +0.271 A 
ATOM      5  O   UNL     1      -6.474   3.049   6.957  0.00  0.00    -0.266 OA
ATOM      6  C   UNL     1      -6.507   5.207   6.057  0.00  0.00    +0.079 A 
ATOM      7  C   UNL     1      -7.827   5.521   6.074  0.00  0.00    +0.028 C 
ATOM      8  S   UNL     1      -5.118   6.177   5.495  0.00  0.00    -0.065 S 
ATOM      9  C   UNL     1      -3.755   2.780   6.764  0.00  0.00    +0.115 C 
ATOM     10  C   UNL     1      -2.409   2.690   6.650  0.00  0.00    +0.087 C 
ATOM     11  C   UNL     1      -1.642   3.863   6.073  0.00  0.00    +0.099 C 
ENDROOT
BRANCH   7  12
ATOM     12  C   UNL     1      -8.262   6.885   5.743  0.00  0.00    -0.024 A 
ATOM     13  C   UNL     1      -7.334   7.932   5.713  0.00  0.00    +0.008 A 
ATOM     14  C   UNL     1      -7.750   9.207   5.394  0.00  0.00    +0.004 A 
ATOM     15  C   UNL     1      -9.083   9.456   5.118  0.00  0.00    -0.050 A 
ATOM     16  C   UNL     1     -10.008   8.428   5.152  0.00  0.00    +0.004 A 
ATOM     17  C   UNL     1      -9.608   7.145   5.462  0.00  0.00    +0.008 A 
ATOM     18  C   UNL     1      -9.529  10.855   4.778  0.00  0.00    +0.044 C 
ENDBRANCH   7  12
BRANCH  11  19
ATOM     19  C   UNL     1      -0.887   3.382   4.861  0.00  0.00    -0.035 A 
ATOM     20  C   UNL     1       0.492   3.477   4.823  0.00  0.00    +0.005 A 
ATOM     21  C   UNL     1       1.185   3.035   3.712  0.00  0.00    +0.003 A 
ATOM     22  C   UNL     1       0.499   2.499   2.638  0.00  0.00    -0.050 A 
ATOM     23  C   UNL     1      -0.880   2.409   2.673  0.00  0.00    +0.003 A 
ATOM     24  C   UNL     1      -1.572   2.846   3.787  0.00  0.00    +0.005 A 
ATOM     25  C   UNL     1       1.255   2.018   1.426  0.00  0.00    +0.044 C 
ENDBRANCH  11  19
BRANCH   9  26
ATOM     26  N   UNL     1      -4.431   1.710   7.288  0.00  0.00    -0.344 N 
ATOM     27  H   UNL     1      -4.063   1.228   8.045  0.00  0.00    +0.144 HD
ATOM     28  H   UNL     1      -5.276   1.434   6.901  0.00  0.00    +0.144 HD
ENDBRANCH   9  26
BRANCH   1  29
ATOM     29  C   UNL     1      -1.883   6.204   5.120  0.00  0.00    +0.339 C 
ATOM     30  O   UNL     1      -2.573   7.156   4.798  0.00  0.00    -0.245 OA
BRANCH  29  31
ATOM     31  O   UNL     1      -0.544   6.251   4.949  0.00  0.00    -0.462 OA
BRANCH  31  33
ATOM     32  C   UNL     1       1.516   7.317   4.271  0.00  0.00    +0.048 C 
ATOM     33  C   UNL     1      -0.004   7.449   4.387  0.00  0.00    +0.229 C 
ENDBRANCH  31  33
ENDBRANCH  29  31
ENDBRANCH   1  29
BRANCH  10  34
ATOM     34  C   UNL     1      -1.734   1.530   7.060  0.00  0.00    +0.339 C 
ATOM     35  O   UNL     1      -2.367   0.552   7.416  0.00  0.00    -0.245 OA
BRANCH  34  36
ATOM     36  O   UNL     1      -0.384   1.498   7.060  0.00  0.00    -0.462 OA
BRANCH  36  37
ATOM     37  C   UNL     1       0.236   0.285   7.490  0.00  0.00    +0.229 C 
ATOM     38  C   UNL     1       1.757   0.437   7.422  0.00  0.00    +0.048 C 
ENDBRANCH  36  37
ENDBRANCH  34  36
ENDBRANCH  10  34
TORSDOF 9
