REMARK  Name = ZINC08994634
REMARK  6 active torsions:
REMARK  status: ('A' for Active; 'I' for Inactive)
REMARK    1  A    between atoms: C_1  and  C_2
REMARK    2  A    between atoms: C_5  and  N_9
REMARK    3  A    between atoms: C_6  and  C_8
REMARK    4  A    between atoms: C_24  and  C_30
REMARK    5  A    between atoms: C_30  and  C_32
REMARK    6  A    between atoms: C_36  and  N_38
REMARK                            x       y       z     vdW  Elec       q    Type
REMARK                         _______ _______ _______ _____ _____    ______ ____
ROOT
ATOM      1  N   UNL     1      -2.215   0.891   0.192  0.00  0.00    -0.210 N 
ATOM      2  C   UNL     1      -1.718   0.554   1.420  0.00  0.00    +0.232 C 
ATOM      3  O   UNL     1      -2.228  -0.176   2.242  0.00  0.00    -0.274 OA
ATOM      4  C   UNL     1      -0.403   1.281   1.537  0.00  0.00    +0.113 C 
ATOM      5  C   UNL     1       0.816   0.672   2.164  0.00  0.00    +0.100 C 
ATOM      6  C   UNL     1       0.732  -0.688   2.752  0.00  0.00    -0.021 A 
ATOM      7  C   UNL     1      -0.413  -1.167   3.349  0.00  0.00    +0.006 A 
ATOM      8  C   UNL     1      -0.455  -2.437   3.891  0.00  0.00    +0.000 A 
ATOM      9  C   UNL     1       0.663  -3.252   3.845  0.00  0.00    +0.001 A 
ATOM     10  C   UNL     1       1.823  -2.792   3.258  0.00  0.00    +0.008 A 
ATOM     11  C   UNL     1       1.874  -1.509   2.711  0.00  0.00    -0.019 A 
ATOM     12  C   UNL     1       3.125  -1.027   2.094  0.00  0.00    +0.022 C 
ATOM     13  C   UNL     1       3.120   0.081   1.327  0.00  0.00    +0.054 C 
ATOM     14  C   UNL     1       1.410   1.494  -0.003  0.00  0.00    +0.141 C 
ATOM     15  C   UNL     1      -0.013   1.086   0.008  0.00  0.00    +0.116 C 
ATOM     16  C   UNL     1      -1.265   1.451  -0.616  0.00  0.00    +0.232 C 
ATOM     17  O   UNL     1      -1.439   2.097  -1.627  0.00  0.00    -0.274 OA
ATOM     18  N   UNL     1       1.931   1.036   1.339  0.00  0.00    -0.384 NA
ATOM     19  H   UNL     1       2.308   1.883   1.780  0.00  0.00    +0.127 HD
ENDROOT
BRANCH   1  24
ATOM     20  C   UNL     1      -7.614   0.074  -1.359  0.00  0.00    +0.044 C 
ATOM     21  C   UNL     1      -6.180   0.290  -0.947  0.00  0.00    -0.050 A 
ATOM     22  C   UNL     1      -5.808   1.478  -0.345  0.00  0.00    +0.005 A 
ATOM     23  C   UNL     1      -4.496   1.678   0.038  0.00  0.00    +0.024 A 
ATOM     24  C   UNL     1      -3.549   0.689  -0.191  0.00  0.00    +0.047 A 
ATOM     25  C   UNL     1      -3.926  -0.502  -0.796  0.00  0.00    -0.028 A 
ATOM     26  C   UNL     1      -5.241  -0.698  -1.172  0.00  0.00    +0.008 A 
ATOM     27  C   UNL     1      -2.902  -1.581  -1.041  0.00  0.00    +0.046 C 
ENDBRANCH   1  24
BRANCH  14  28
ATOM     28  C   UNL     1       1.557   2.977   0.222  0.00  0.00    +0.183 C 
ATOM     29  O   UNL     1       1.939   3.392   1.295  0.00  0.00    -0.290 OA
BRANCH  28  30
ATOM     30  C   UNL     1       1.236   3.920  -0.861  0.00  0.00    +0.021 A 
ATOM     31  C   UNL     1       0.801   3.445  -2.102  0.00  0.00    +0.011 A 
ATOM     32  C   UNL     1       0.498   4.335  -3.110  0.00  0.00    +0.003 A 
ATOM     33  C   UNL     1       0.634   5.697  -2.900  0.00  0.00    +0.033 A 
ATOM     34  C   UNL     1       1.069   6.175  -1.676  0.00  0.00    +0.127 A 
ATOM     35  C   UNL     1       1.371   5.297  -0.656  0.00  0.00    +0.044 A 
BRANCH  34  36
ATOM     36  N   UNL     1       1.211   7.633  -1.461  0.00  0.00    +0.056 N 
ATOM     37  O   UNL     1       1.595   8.055  -0.385  0.00  0.00    -0.126 OA
ATOM     38  O   UNL     1       0.945   8.409  -2.361  0.00  0.00    -0.126 OA
ENDBRANCH  34  36
ENDBRANCH  28  30
ENDBRANCH  14  28
TORSDOF 4
