REMARK  Name = ZINC35877278
REMARK  10 active torsions:
REMARK  status: ('A' for Active; 'I' for Inactive)
REMARK    1  A    between atoms: C_1  and  C_2
REMARK    2  A    between atoms: C_2  and  O_3
REMARK    3  A    between atoms: O_3  and  C_4
REMARK    4  A    between atoms: C_4  and  C_6
REMARK    5  A    between atoms: C_7  and  C_35
REMARK    6  A    between atoms: C_11  and  C_13
REMARK    7  A    between atoms: C_25  and  C_31
REMARK    8  A    between atoms: C_27  and  C_30
REMARK    9  A    between atoms: C_31  and  O_33
REMARK   10  A    between atoms: O_33  and  C_34
REMARK                            x       y       z     vdW  Elec       q    Type
REMARK                         _______ _______ _______ _____ _____    ______ ____
ROOT
ATOM      1  C   UNL     1       1.301  -2.346  -2.549  0.00  0.00    +0.065 C 
ATOM      2  C   UNL     1       1.608  -3.654  -2.578  0.00  0.00    +0.016 C 
ATOM      3  N   UNL     1       2.368  -4.165  -3.593  0.00  0.00    -0.321 N 
ATOM      4  C   UNL     1       3.150  -3.343  -4.359  0.00  0.00    +0.016 C 
ATOM      5  C   UNL     1       2.906  -2.017  -4.410  0.00  0.00    +0.025 C 
ATOM      6  C   UNL     1       1.765  -1.413  -3.629  0.00  0.00    +0.093 C 
ATOM      7  C   UNL     1       3.700  -1.163  -5.196  0.00  0.00    +0.176 C 
ATOM      8  O   UNL     1       3.464   0.029  -5.207  0.00  0.00    -0.291 OA
ATOM      9  C   UNL     1       4.837  -1.698  -6.024  0.00  0.00    +0.171 C 
ATOM     10  C   UNL     1       4.529  -3.147  -6.416  0.00  0.00    +0.013 C 
ATOM     11  C   UNL     1       4.288  -3.955  -5.139  0.00  0.00    +0.055 C 
ATOM     12  C   UNL     1       3.279  -3.186  -7.297  0.00  0.00    +0.009 C 
ATOM     13  C   UNL     1       1.112  -4.564  -1.483  0.00  0.00    +0.061 C 
ATOM     14  H   UNL     1       2.353  -5.118  -3.772  0.00  0.00    +0.152 HD
ENDROOT
BRANCH   6  15
ATOM     15  C   UNL     1       0.617  -1.127  -4.562  0.00  0.00    -0.018 A 
ATOM     16  C   UNL     1       0.006  -2.164  -5.243  0.00  0.00    +0.055 A 
ATOM     17  C   UNL     1      -1.049  -1.904  -6.102  0.00  0.00    +0.167 A 
ATOM     18  C   UNL     1      -1.493  -0.596  -6.278  0.00  0.00    +0.167 A 
ATOM     19  C   UNL     1      -0.877   0.439  -5.593  0.00  0.00    +0.065 A 
ATOM     20  C   UNL     1       0.173   0.171  -4.733  0.00  0.00    +0.026 A 
ATOM     21 BR   UNL     1       1.007   1.585  -3.794  0.00  0.00    -0.050 Br
ATOM     22  O   UNL     1      -2.531  -0.603  -7.164  0.00  0.00    -0.453 OA
ATOM     23  C   UNL     1      -2.452  -1.873  -7.839  0.00  0.00    +0.466 C 
ATOM     24  O   UNL     1      -1.809  -2.731  -6.878  0.00  0.00    -0.453 OA
ENDBRANCH   6  15
BRANCH   1  25
ATOM     25  C   UNL     1       0.520  -1.840  -1.484  0.00  0.00    +0.338 C 
ATOM     26  O   UNL     1       1.043  -1.174  -0.609  0.00  0.00    -0.245 OA
BRANCH  25  27
ATOM     27  O   UNL     1      -0.804  -2.095  -1.437  0.00  0.00    -0.462 OA
BRANCH  27  29
ATOM     28  C   UNL     1      -3.005  -1.945  -0.450  0.00  0.00    +0.048 C 
ATOM     29  C   UNL     1      -1.531  -1.553  -0.332  0.00  0.00    +0.229 C 
ENDBRANCH  27  29
ENDBRANCH  25  27
ENDBRANCH   1  25
BRANCH   9  30
ATOM     30  C   UNL     1       4.995  -0.860  -7.266  0.00  0.00    +0.318 C 
ATOM     31  O   UNL     1       4.881  -1.368  -8.356  0.00  0.00    -0.250 OA
BRANCH  30  32
ATOM     32  O   UNL     1       5.261   0.452  -7.161  0.00  0.00    -0.467 OA
ATOM     33  C   UNL     1       5.397   1.185  -8.380  0.00  0.00    +0.280 C 
ENDBRANCH  30  32
ENDBRANCH   9  30
TORSDOF 6
