REMARK  Name = ZINC64392929
REMARK  7 active torsions:
REMARK  status: ('A' for Active; 'I' for Inactive)
REMARK    1  A    between atoms: C_1  and  C_2
REMARK    2  A    between atoms: C_2  and  O_3
REMARK    3  A    between atoms: O_3  and  C_4
REMARK    4  A    between atoms: C_4  and  C_6
REMARK    5  A    between atoms: C_8  and  N_19
REMARK    6  A    between atoms: N_19  and  C_20
REMARK    7  A    between atoms: C_20  and  C_21
REMARK                            x       y       z     vdW  Elec       q    Type
REMARK                         _______ _______ _______ _____ _____    ______ ____
ROOT
ATOM      1  C   UNL     1      -3.347  -2.554   0.318  0.00  0.00    +0.228 C 
ATOM      2  C   UNL     1      -2.915  -3.989   0.092  0.00  0.00    +0.036 C 
ATOM      3  C   UNL     1      -3.455  -4.649  -1.021  0.00  0.00    +0.014 A 
ATOM      4  C   UNL     1      -3.106  -5.983  -1.303  0.00  0.00    +0.013 A 
ATOM      5  C   UNL     1      -3.643  -6.606  -2.388  0.00  0.00    +0.021 A 
ATOM      6  C   UNL     1      -4.534  -5.949  -3.231  0.00  0.00    +0.043 A 
ATOM      7  C   UNL     1      -4.911  -4.646  -3.005  0.00  0.00    +0.044 A 
ATOM      8  C   UNL     1      -4.392  -3.950  -1.901  0.00  0.00    +0.043 A 
ATOM      9  N   UNL     1      -4.761  -2.679  -1.682  0.00  0.00    -0.284 N 
ATOM     10  C   UNL     1      -4.321  -1.958  -0.673  0.00  0.00    +0.237 C 
ATOM     11  O   UNL     1      -4.700  -0.809  -0.537  0.00  0.00    -0.274 OA
ATOM     12 CL   UNL     1      -5.186  -6.794  -4.600  0.00  0.00    -0.083 Cl
ATOM     13  H   UNL     1      -5.385  -2.270  -2.301  0.00  0.00    +0.155 HD
ENDROOT
BRANCH   1  14
ATOM     14  C   UNL     1      -2.110  -1.693   0.325  0.00  0.00    +0.325 C 
ATOM     15  O   UNL     1      -1.206  -1.929  -0.442  0.00  0.00    -0.250 OA
BRANCH  14  16
ATOM     16  O   UNL     1      -2.012  -0.665   1.182  0.00  0.00    -0.464 OA
BRANCH  16  18
ATOM     17  C   UNL     1      -0.882   1.227   2.174  0.00  0.00    +0.048 C 
ATOM     18  C   UNL     1      -0.811   0.108   1.133  0.00  0.00    +0.229 C 
ENDBRANCH  16  18
ENDBRANCH  14  16
ENDBRANCH   1  14
BRANCH   2  19
ATOM     19  N   UNL     1      -2.054  -4.600   0.918  0.00  0.00    -0.341 N 
ATOM     20  H   UNL     1      -1.788  -5.518   0.750  0.00  0.00    +0.146 HD
BRANCH  19  21
ATOM     21  C   UNL     1      -1.514  -3.881   2.075  0.00  0.00    +0.136 C 
BRANCH  21  22
ATOM     22  C   UNL     1      -0.689  -4.825   2.912  0.00  0.00    -0.027 A 
ATOM     23  C   UNL     1      -1.287  -5.550   3.926  0.00  0.00    +0.009 A 
ATOM     24  C   UNL     1      -0.534  -6.417   4.696  0.00  0.00    +0.050 A 
ATOM     25  C   UNL     1       0.822  -6.561   4.454  0.00  0.00    +0.166 A 
ATOM     26  C   UNL     1       1.425  -5.830   3.432  0.00  0.00    +0.167 A 
ATOM     27  C   UNL     1       0.663  -4.967   2.661  0.00  0.00    +0.054 A 
ATOM     28  O   UNL     1       2.752  -6.144   3.396  0.00  0.00    -0.453 OA
ATOM     29  C   UNL     1       3.036  -6.764   4.664  0.00  0.00    +0.466 C 
ATOM     30  O   UNL     1       1.773  -7.333   5.056  0.00  0.00    -0.453 OA
ENDBRANCH  21  22
ENDBRANCH  19  21
ENDBRANCH   2  19
TORSDOF 6
