REMARK  Name = ZINC63445999
REMARK  6 active torsions:
REMARK  status: ('A' for Active; 'I' for Inactive)
REMARK    1  A    between atoms: C_1  and  N_2
REMARK    2  A    between atoms: N_9  and  C_12
REMARK    3  A    between atoms: N_13  and  C_26
REMARK    4  A    between atoms: C_14  and  S_16
REMARK    5  A    between atoms: S_16  and  C_17
REMARK    6  A    between atoms: C_26  and  C_27
REMARK                            x       y       z     vdW  Elec       q    Type
REMARK                         _______ _______ _______ _____ _____    ______ ____
ROOT
ATOM      1  C   UNL     1       0.328   1.202  -0.237  0.00  0.00    +0.136 C 
ATOM      2  N   UNL     1       0.246  -0.260  -0.184  0.00  0.00    -0.264 N 
ATOM      3  C   UNL     1      -1.011  -0.957  -0.138  0.00  0.00    +0.227 C 
ATOM      4  C   UNL     1      -0.884  -2.043   0.977  0.00  0.00    +0.205 C 
ATOM      5  C   UNL     1       0.172  -2.978   0.490  0.00  0.00    +0.247 C 
ATOM      6  O   UNL     1       0.057  -4.183   0.556  0.00  0.00    -0.273 OA
ATOM      7  N   UNL     1       1.277  -2.375  -0.037  0.00  0.00    -0.227 N 
ATOM      8  C   UNL     1       1.357  -1.052  -0.181  0.00  0.00    +0.312 C 
ATOM      9  O   UNL     1       2.453  -0.539  -0.292  0.00  0.00    -0.252 OA
ATOM     10  C   UNL     1       2.401  -3.203  -0.481  0.00  0.00    +0.143 C 
ATOM     11  N   UNL     1      -2.284  -2.462   0.990  0.00  0.00    -0.291 N 
ATOM     12  C   UNL     1      -2.973  -1.251   0.868  0.00  0.00    +0.158 C 
ATOM     13  N   UNL     1      -2.255  -0.337   0.255  0.00  0.00    -0.238 NA
ENDROOT
BRANCH  12  14
ATOM     14  S   UNL     1      -4.604  -0.980   1.479  0.00  0.00    -0.044 S 
BRANCH  14  15
ATOM     15  C   UNL     1      -4.958   0.743   1.035  0.00  0.00    +0.243 C 
ATOM     16  N   UNL     1      -4.813   0.929  -0.414  0.00  0.00    -0.355 N 
ATOM     17  C   UNL     1      -3.877   1.814  -0.603  0.00  0.00    +0.061 A 
ATOM     18  C   UNL     1      -3.291   2.407  -1.813  0.00  0.00    +0.027 A 
ATOM     19  C   UNL     1      -2.310   3.324  -1.697  0.00  0.00    +0.002 A 
ATOM     20  C   UNL     1      -1.812   3.748  -0.452  0.00  0.00    +0.002 A 
ATOM     21  C   UNL     1      -2.279   3.269   0.719  0.00  0.00    +0.027 A 
ATOM     22  C   UNL     1      -3.350   2.263   0.715  0.00  0.00    +0.061 A 
ATOM     23  N   UNL     1      -3.981   1.638   1.667  0.00  0.00    -0.355 N 
ATOM     24  H   UNL     1      -5.322   0.476  -1.105  0.00  0.00    +0.162 HD
ATOM     25  H   UNL     1      -3.833   1.744   2.620  0.00  0.00    +0.162 HD
ENDBRANCH  14  15
ENDBRANCH  12  14
BRANCH  11  26
ATOM     26  C   UNL     1      -2.832  -3.816   1.103  0.00  0.00    +0.144 C 
BRANCH  26  27
ATOM     27  C   UNL     1      -3.722  -4.098  -0.080  0.00  0.00    -0.012 A 
ATOM     28  C   UNL     1      -5.094  -3.988   0.047  0.00  0.00    +0.006 A 
ATOM     29  C   UNL     1      -5.911  -4.247  -1.038  0.00  0.00    +0.000 A 
ATOM     30  C   UNL     1      -5.356  -4.616  -2.249  0.00  0.00    +0.001 A 
ATOM     31  C   UNL     1      -3.985  -4.726  -2.377  0.00  0.00    +0.020 A 
ATOM     32  C   UNL     1      -3.166  -4.462  -1.293  0.00  0.00    +0.046 A 
ATOM     33 CL   UNL     1      -1.442  -4.594  -1.454  0.00  0.00    -0.083 Cl
ENDBRANCH  26  27
ENDBRANCH  11  26
TORSDOF 4
