REMARK  Name = ZINC67479599
REMARK  7 active torsions:
REMARK  status: ('A' for Active; 'I' for Inactive)
REMARK    1  A    between atoms: C_4  and  C_7
REMARK    2  A    between atoms: C_7  and  N_8
REMARK    3  A    between atoms: C_12  and  C_14
REMARK    4  A    between atoms: C_14  and  N_15
REMARK    5  A    between atoms: N_18  and  C_19
REMARK    6  A    between atoms: N_22  and  C_25
REMARK    7  A    between atoms: C_25  and  C_26
REMARK                            x       y       z     vdW  Elec       q    Type
REMARK                         _______ _______ _______ _____ _____    ______ ____
ROOT
ATOM      1  N   UNL     1       1.286  -2.519  -4.633  0.00  0.00    -0.301 N 
ATOM      2  C   UNL     1       0.290  -3.204  -5.230  0.00  0.00    +0.300 C 
ATOM      3  O   UNL     1       0.492  -4.326  -5.652  0.00  0.00    -0.253 OA
ATOM      4  N   UNL     1      -0.930  -2.645  -5.358  0.00  0.00    -0.297 N 
ATOM      5  H   UNL     1       1.125  -1.624  -4.296  0.00  0.00    +0.150 HD
ATOM      6  H   UNL     1      -1.091  -1.750  -5.021  0.00  0.00    +0.151 HD
ENDROOT
BRANCH   4   7
ATOM      7  C   UNL     1      -2.012  -3.390  -6.006  0.00  0.00    +0.071 C 
ATOM      8  C   UNL     1      -1.934  -3.191  -7.523  0.00  0.00    +0.004 C 
ATOM      9  C   UNL     1      -3.113  -3.906  -8.187  0.00  0.00    -0.077 C 
ATOM     10  N   UNL     1      -4.374  -3.349  -7.683  0.00  0.00    +0.383 N 
ATOM     11  C   UNL     1      -4.489  -3.599  -6.241  0.00  0.00    -0.077 C 
ATOM     12  C   UNL     1      -3.363  -2.873  -5.502  0.00  0.00    +0.004 C 
ATOM     13  H   UNL     1      -4.393  -2.354  -7.853  0.00  0.00    -0.082 HD
BRANCH  10  14
ATOM     14  C   UNL     1      -5.501  -3.983  -8.380  0.00  0.00    -0.006 C 
BRANCH  14  15
ATOM     15  C   UNL     1      -5.491  -3.564  -9.852  0.00  0.00    +0.325 C 
ATOM     16  F   UNL     1      -5.460  -2.169  -9.939  0.00  0.00    -0.211 F 
ATOM     17  F   UNL     1      -4.360  -4.096 -10.480  0.00  0.00    -0.211 F 
ENDBRANCH  14  15
ENDBRANCH  10  14
ENDBRANCH   4   7
BRANCH   1  18
ATOM     18  C   UNL     1       2.612  -3.126  -4.494  0.00  0.00    +0.090 C 
BRANCH  18  23
ATOM     19  N   UNL     1       2.963  -1.728  -2.502  0.00  0.00    +0.383 N 
ATOM     20  C   UNL     1       3.891  -2.108  -1.415  0.00  0.00    -0.078 C 
ATOM     21  C   UNL     1       4.722  -3.279  -1.996  0.00  0.00    -0.020 C 
ATOM     22  C   UNL     1       4.893  -2.838  -3.474  0.00  0.00    -0.016 C 
ATOM     23  C   UNL     1       3.550  -2.146  -3.788  0.00  0.00    -0.051 C 
ATOM     24  H   UNL     1       2.077  -2.191  -2.367  0.00  0.00    -0.081 HD
BRANCH  19  25
ATOM     25  C   UNL     1       2.767  -0.272  -2.498  0.00  0.00    -0.075 C 
BRANCH  25  29
ATOM     26  C   UNL     1      -0.180   1.484   0.140  0.00  0.00    +0.000 C 
ATOM     27  C   UNL     1       1.229   2.082   0.132  0.00  0.00    +0.000 C 
ATOM     28  C   UNL     1       1.951   1.668  -1.151  0.00  0.00    +0.002 C 
ATOM     29  C   UNL     1       2.045   0.142  -1.214  0.00  0.00    -0.028 C 
ATOM     30  C   UNL     1       0.636  -0.456  -1.206  0.00  0.00    +0.002 C 
ATOM     31  C   UNL     1      -0.086  -0.042   0.077  0.00  0.00    +0.000 C 
ENDBRANCH  25  29
ENDBRANCH  19  25
ENDBRANCH  18  23
ENDBRANCH   1  18
TORSDOF 7
