REMARK  Name = ZINC09492326
REMARK  11 active torsions:
REMARK  status: ('A' for Active; 'I' for Inactive)
REMARK    1  A    between atoms: C_1  and  O_2
REMARK    2  A    between atoms: O_2  and  C_3
REMARK    3  A    between atoms: C_6  and  C_9
REMARK    4  A    between atoms: C_9  and  C_11
REMARK    5  A    between atoms: C_9  and  N_64
REMARK    6  A    between atoms: C_11  and  N_12
REMARK    7  A    between atoms: C_13  and  C_15
REMARK    8  A    between atoms: C_18  and  S_21
REMARK    9  A    between atoms: S_21  and  N_24
REMARK   10  A    between atoms: N_24  and  C_25
REMARK   11  A    between atoms: C_25  and  C_26
REMARK                            x       y       z     vdW  Elec       q    Type
REMARK                         _______ _______ _______ _____ _____    ______ ____
ROOT
ATOM      1  N   UNL     1       2.327   4.250   0.058  0.00  0.00    -0.313 N 
ATOM      2  C   UNL     1       1.175   3.560   0.172  0.00  0.00    +0.244 C 
ATOM      3  O   UNL     1       0.128   4.151   0.348  0.00  0.00    -0.270 OA
ATOM      4  H   UNL     1       3.163   3.779  -0.083  0.00  0.00    +0.149 HD
ENDROOT
BRANCH   2   5
ATOM      5  C   UNL     1       1.186   2.085   0.083  0.00  0.00    +0.037 A 
ATOM      6  C   UNL     1      -0.006   1.367   0.202  0.00  0.00    +0.015 A 
ATOM      7  C   UNL     1       0.011  -0.010   0.118  0.00  0.00    +0.029 A 
ATOM      8  C   UNL     1       1.205  -0.680  -0.082  0.00  0.00    +0.105 A 
ATOM      9  C   UNL     1       2.390   0.026  -0.200  0.00  0.00    +0.029 A 
ATOM     10  C   UNL     1       2.387   1.403  -0.118  0.00  0.00    +0.015 A 
BRANCH   8  11
ATOM     11  S   UNL     1       1.218  -2.438  -0.187  0.00  0.00    +0.059 S 
ATOM     12  O   UNL     1       2.529  -2.857   0.169  0.00  0.00    -0.153 OA
ATOM     13  O   UNL     1       0.060  -2.894   0.499  0.00  0.00    -0.153 OA
BRANCH  11  14
ATOM     14  N   UNL     1       1.010  -2.836  -1.781  0.00  0.00    -0.183 NA
ATOM     15  H   UNL     1       0.211  -3.308  -2.063  0.00  0.00    +0.148 HD
BRANCH  14  16
ATOM     16  C   UNL     1       2.033  -2.474  -2.765  0.00  0.00    +0.180 C 
BRANCH  16  17
ATOM     17  C   UNL     1       1.802  -3.246  -4.038  0.00  0.00    +0.120 A 
ATOM     18  C   UNL     1       1.040  -2.848  -5.073  0.00  0.00    +0.046 A 
ATOM     19  C   UNL     1       1.104  -3.871  -6.046  0.00  0.00    +0.041 A 
ATOM     20  C   UNL     1       1.901  -4.834  -5.548  0.00  0.00    +0.195 A 
ATOM     21  O   UNL     1       2.325  -4.447  -4.334  0.00  0.00    -0.466 OA
ENDBRANCH  16  17
ENDBRANCH  14  16
ENDBRANCH  11  14
ENDBRANCH   8  11
ENDBRANCH   2   5
BRANCH   1  22
ATOM     22  C   UNL     1       2.317   5.713   0.146  0.00  0.00    +0.094 C 
BRANCH  22  23
ATOM     23  C   UNL     1       3.755   6.235   0.126  0.00  0.00    -0.020 C 
BRANCH  23  29
ATOM     24  C   UNL     1       2.966   8.231  -0.997  0.00  0.00    -0.049 C 
ATOM     25  C   UNL     1       2.929   9.759  -0.917  0.00  0.00    +0.141 C 
ATOM     26  O   UNL     1       4.268  10.263  -0.896  0.00  0.00    -0.383 OA
ATOM     27  C   UNL     1       5.052   9.771   0.194  0.00  0.00    +0.141 C 
ATOM     28  C   UNL     1       5.110   8.243   0.124  0.00  0.00    -0.049 C 
ATOM     29  N   UNL     1       3.731   7.714   0.157  0.00  0.00    +0.388 N 
ATOM     30  H   UNL     1       3.275   8.022   1.024  0.00  0.00    -0.081 HD
ENDBRANCH  23  29
BRANCH  23  34
ATOM     31  C   UNL     1       5.835   4.809   3.575  0.00  0.00    +0.120 A 
ATOM     32  C   UNL     1       6.010   4.181   2.350  0.00  0.00    +0.046 A 
ATOM     33  C   UNL     1       5.335   4.644   1.237  0.00  0.00    +0.005 A 
ATOM     34  C   UNL     1       4.488   5.732   1.343  0.00  0.00    -0.059 A 
ATOM     35  C   UNL     1       4.317   6.362   2.561  0.00  0.00    +0.005 A 
ATOM     36  C   UNL     1       4.985   5.899   3.679  0.00  0.00    +0.046 A 
BRANCH  31  38
ATOM     37  C   UNL     1       6.270   5.050   5.900  0.00  0.00    +0.277 C 
ATOM     38  O   UNL     1       6.498   4.355   4.672  0.00  0.00    -0.495 OA
ENDBRANCH  31  38
ENDBRANCH  23  34
ENDBRANCH  22  23
ENDBRANCH   1  22
TORSDOF 10
