REMARK  Name = ZINC40841645
REMARK  4 active torsions:
REMARK  status: ('A' for Active; 'I' for Inactive)
REMARK    1  A    between atoms: C_1  and  C_2
REMARK    2  A    between atoms: N_13  and  C_21
REMARK    3  A    between atoms: C_21  and  C_22
REMARK    4  A    between atoms: C_24  and  C_27
REMARK                            x       y       z     vdW  Elec       q    Type
REMARK                         _______ _______ _______ _____ _____    ______ ____
ROOT
ATOM      1  C   UNL     1      -0.960   1.824   0.359  0.00  0.00    +0.012 C 
ATOM      2  C   UNL     1      -0.541   0.353   0.323  0.00  0.00    +0.009 C 
ATOM      3  C   UNL     1      -1.771  -0.512   0.056  0.00  0.00    +0.013 C 
ATOM      4  C   UNL     1      -1.382  -1.991   0.191  0.00  0.00    +0.054 C 
ATOM      5  C   UNL     1      -0.924  -2.208   1.618  0.00  0.00    +0.017 C 
ATOM      6  C   UNL     1      -0.070  -1.183   2.224  0.00  0.00    +0.017 C 
ATOM      7  C   UNL     1       0.099  -0.008   1.631  0.00  0.00    -0.022 C 
ATOM      8  N   UNL     1      -1.280  -3.275   2.288  0.00  0.00    -0.339 N 
ATOM      9  C   UNL     1      -0.641  -3.596   3.443  0.00  0.00    +0.197 A 
ATOM     10  C   UNL     1      -1.130  -4.718   4.272  0.00  0.00    +0.295 A 
ATOM     11  O   UNL     1      -2.105  -5.360   3.927  0.00  0.00    -0.264 OA
ATOM     12  N   UNL     1      -0.480  -5.020   5.417  0.00  0.00    -0.295 N 
ATOM     13  C   UNL     1       0.624  -4.272   5.781  0.00  0.00    +0.071 A 
ATOM     14  C   UNL     1       1.309  -4.564   6.956  0.00  0.00    +0.028 A 
ATOM     15  C   UNL     1       2.410  -3.815   7.313  0.00  0.00    +0.002 A 
ATOM     16  C   UNL     1       2.841  -2.768   6.509  0.00  0.00    +0.002 A 
ATOM     17  C   UNL     1       2.184  -2.463   5.353  0.00  0.00    +0.030 A 
ATOM     18  C   UNL     1       1.061  -3.211   4.966  0.00  0.00    +0.090 A 
ATOM     19  N   UNL     1       0.417  -2.913   3.823  0.00  0.00    -0.223 NA
ATOM     20  H   UNL     1      -1.999  -3.837   1.959  0.00  0.00    +0.167 HD
ENDROOT
BRANCH  12  21
ATOM     21  C   UNL     1      -0.940  -6.125   6.262  0.00  0.00    +0.224 C 
BRANCH  21  22
ATOM     22  C   UNL     1      -0.256  -7.399   5.837  0.00  0.00    +0.248 A 
ATOM     23  N   UNL     1       0.871  -7.851   6.308  0.00  0.00    -0.190 NA
ATOM     24  C   UNL     1       1.189  -9.012   5.708  0.00  0.00    +0.202 A 
ATOM     25  N   UNL     1       0.251  -9.306   4.842  0.00  0.00    -0.056 NA
ATOM     26  O   UNL     1      -0.708  -8.261   4.917  0.00  0.00    -0.336 OA
BRANCH  24  27
ATOM     27  C   UNL     1       2.401  -9.825   5.981  0.00  0.00    +0.025 A 
ATOM     28  C   UNL     1       3.338  -9.419   6.934  0.00  0.00    +0.031 A 
ATOM     29  C   UNL     1       4.450 -10.205   7.157  0.00  0.00    +0.111 A 
ATOM     30  N   UNL     1       4.634 -11.325   6.485  0.00  0.00    -0.263 NA
ATOM     31  C   UNL     1       3.774 -11.744   5.577  0.00  0.00    +0.111 A 
ATOM     32  C   UNL     1       2.632 -11.021   5.296  0.00  0.00    +0.031 A 
ENDBRANCH  24  27
ENDBRANCH  21  22
ENDBRANCH  12  21
TORSDOF 3
