REMARK  Name = ZINC09951096
REMARK  9 active torsions:
REMARK  status: ('A' for Active; 'I' for Inactive)
REMARK    1  A    between atoms: C_4  and  C_7
REMARK    2  A    between atoms: C_7  and  N_8
REMARK    3  A    between atoms: C_9  and  N_36
REMARK    4  A    between atoms: C_10  and  N_17
REMARK    5  A    between atoms: N_17  and  C_18
REMARK    6  A    between atoms: C_18  and  C_19
REMARK    7  A    between atoms: C_19  and  C_20
REMARK    8  A    between atoms: C_26  and  C_28
REMARK    9  A    between atoms: C_28  and  C_29
REMARK                            x       y       z     vdW  Elec       q    Type
REMARK                         _______ _______ _______ _____ _____    ______ ____
ROOT
ATOM      1  N   UNL     1       2.771  -1.021   3.357  0.00  0.00    -0.276 N 
ATOM      2  C   UNL     1       3.663  -0.141   3.925  0.00  0.00    +0.128 A 
ATOM      3  C   UNL     1       4.938  -0.045   3.406  0.00  0.00    +0.140 A 
ATOM      4  C   UNL     1       5.288  -0.854   2.309  0.00  0.00    +0.277 A 
ATOM      5  O   UNL     1       6.408  -0.790   1.831  0.00  0.00    -0.266 OA
ATOM      6  N   UNL     1       4.377  -1.700   1.790  0.00  0.00    -0.273 N 
ATOM      7  H   UNL     1       4.617  -2.258   1.034  0.00  0.00    +0.173 HD
ATOM      8  C   UNL     1       3.140  -1.784   2.312  0.00  0.00    +0.331 A 
ATOM      9  O   UNL     1       2.339  -2.559   1.827  0.00  0.00    -0.246 OA
ENDROOT
BRANCH   3  10
ATOM     10  N   UNL     1       5.875   0.849   3.967  0.00  0.00    -0.264 N 
ATOM     11  C   UNL     1       6.268   1.937   3.273  0.00  0.00    +0.224 C 
ATOM     12  O   UNL     1       7.003   2.753   3.788  0.00  0.00    -0.275 OA
BRANCH  10  13
ATOM     13  C   UNL     1       6.423   0.595   5.302  0.00  0.00    +0.118 C 
BRANCH  13  14
ATOM     14  C   UNL     1       7.754  -0.149   5.174  0.00  0.00    +0.050 C 
BRANCH  14  15
ATOM     15  C   UNL     1       8.316  -0.410   6.548  0.00  0.00    -0.072 C 
ATOM     16  C   UNL     1       8.074  -1.558   7.095  0.00  0.00    -0.028 C 
ATOM     17  C   UNL     1       8.557  -1.959   8.458  0.00  0.00    +0.027 C 
ATOM     18  C   UNL     1       9.690  -1.034   8.909  0.00  0.00    +0.004 C 
ATOM     19  C   UNL     1       9.243   0.418   8.700  0.00  0.00    +0.005 C 
ATOM     20  C   UNL     1       9.128   0.674   7.194  0.00  0.00    +0.030 C 
ENDBRANCH  14  15
ENDBRANCH  13  14
ENDBRANCH  10  13
BRANCH  11  21
ATOM     21  C   UNL     1       5.793   2.140   1.857  0.00  0.00    +0.134 C 
BRANCH  21  22
ATOM     22  C   UNL     1       6.264   3.481   1.356  0.00  0.00    -0.003 A 
ATOM     23  C   UNL     1       5.435   4.583   1.448  0.00  0.00    +0.007 A 
ATOM     24  C   UNL     1       5.867   5.813   0.988  0.00  0.00    +0.000 A 
ATOM     25  C   UNL     1       7.129   5.943   0.437  0.00  0.00    +0.003 A 
ATOM     26  C   UNL     1       7.959   4.842   0.345  0.00  0.00    +0.038 A 
ATOM     27  C   UNL     1       7.530   3.610   0.809  0.00  0.00    +0.127 A 
ATOM     28  F   UNL     1       8.342   2.535   0.724  0.00  0.00    -0.205 F 
ENDBRANCH  21  22
ENDBRANCH  11  21
ENDBRANCH   3  10
BRANCH   2  29
ATOM     29  N   UNL     1       3.288   0.635   4.996  0.00  0.00    -0.343 N 
ATOM     30  H   UNL     1       2.360   0.658   5.277  0.00  0.00    +0.144 HD
ATOM     31  H   UNL     1       3.952   1.159   5.471  0.00  0.00    +0.144 HD
ENDBRANCH   2  29
BRANCH   1  32
ATOM     32  C   UNL     1       1.414  -1.133   3.897  0.00  0.00    +0.163 C 
BRANCH  32  36
ATOM     33  C   UNL     1       1.339  -4.112   6.957  0.00  0.00    +0.000 A 
ATOM     34  C   UNL     1       1.609  -2.796   7.281  0.00  0.00    +0.000 A 
ATOM     35  C   UNL     1       1.634  -1.832   6.291  0.00  0.00    +0.005 A 
ATOM     36  C   UNL     1       1.388  -2.184   4.977  0.00  0.00    -0.028 A 
ATOM     37  C   UNL     1       1.119  -3.501   4.653  0.00  0.00    +0.005 A 
ATOM     38  C   UNL     1       1.093  -4.464   5.643  0.00  0.00    +0.000 A 
ENDBRANCH  32  36
ENDBRANCH   1  32
TORSDOF 9
