REMARK  Name = ZINC09088373
REMARK  13 active torsions:
REMARK  status: ('A' for Active; 'I' for Inactive)
REMARK    1  A    between atoms: C_1  and  C_2
REMARK    2  A    between atoms: C_2  and  C_37
REMARK    3  A    between atoms: C_6  and  C_22
REMARK    4  A    between atoms: C_8  and  C_20
REMARK    5  A    between atoms: C_9  and  S_11
REMARK    6  A    between atoms: S_11  and  C_12
REMARK    7  A    between atoms: C_12  and  C_13
REMARK    8  A    between atoms: C_24  and  O_32
REMARK    9  A    between atoms: C_25  and  O_30
REMARK   10  A    between atoms: C_26  and  O_28
REMARK   11  A    between atoms: O_28  and  C_29
REMARK   12  A    between atoms: O_30  and  C_31
REMARK   13  A    between atoms: O_32  and  C_33
REMARK                            x       y       z     vdW  Elec       q    Type
REMARK                         _______ _______ _______ _____ _____    ______ ____
ROOT
ATOM      1  C   UNL     1      -0.019   1.526   0.010  0.00  0.00    +0.011 C 
ATOM      2  C   UNL     1       0.002  -0.004   0.002  0.00  0.00    -0.023 C 
ATOM      3  C   UNL     1      -1.431  -0.538   0.039  0.00  0.00    +0.058 C 
ATOM      4  C   UNL     1      -1.409  -2.046   0.081  0.00  0.00    +0.016 C 
ATOM      5  C   UNL     1      -0.394  -2.711   0.673  0.00  0.00    +0.024 C 
ATOM      6  C   UNL     1      -0.372  -4.218   0.713  0.00  0.00    +0.097 C 
ATOM      7  C   UNL     1      -1.733  -4.787   0.437  0.00  0.00    +0.069 C 
ATOM      8  C   UNL     1      -2.702  -4.035  -0.150  0.00  0.00    +0.080 C 
ATOM      9  N   UNL     1      -2.447  -2.728  -0.495  0.00  0.00    -0.311 N 
ATOM     10  C   UNL     1       0.676  -2.018   1.266  0.00  0.00    +0.162 C 
ATOM     11  O   UNL     1       1.565  -2.646   1.807  0.00  0.00    -0.292 OA
ATOM     12  C   UNL     1       0.743  -0.516   1.242  0.00  0.00    +0.086 C 
ATOM     13  C   UNL     1       0.708  -0.502  -1.261  0.00  0.00    +0.011 C 
ATOM     14  H   UNL     1      -3.008  -2.285  -1.151  0.00  0.00    +0.152 HD
ENDROOT
BRANCH   6  15
ATOM     15  C   UNL     1       0.594  -4.726  -0.325  0.00  0.00    -0.028 A 
ATOM     16  C   UNL     1       0.398  -4.420  -1.659  0.00  0.00    +0.054 A 
ATOM     17  C   UNL     1       1.285  -4.886  -2.617  0.00  0.00    +0.165 A 
ATOM     18  C   UNL     1       2.373  -5.662  -2.236  0.00  0.00    +0.204 A 
ATOM     19  C   UNL     1       2.567  -5.967  -0.894  0.00  0.00    +0.165 A 
ATOM     20  C   UNL     1       1.678  -5.493   0.059  0.00  0.00    +0.054 A 
BRANCH  19  21
ATOM     21  O   UNL     1       3.630  -6.726  -0.515  0.00  0.00    -0.491 OA
ATOM     22  C   UNL     1       3.767  -7.001   0.880  0.00  0.00    +0.277 C 
ENDBRANCH  19  21
BRANCH  18  23
ATOM     23  O   UNL     1       3.245  -6.122  -3.173  0.00  0.00    -0.488 OA
ATOM     24  C   UNL     1       4.364  -5.288  -3.483  0.00  0.00    +0.277 C 
ENDBRANCH  18  23
BRANCH  17  25
ATOM     25  O   UNL     1       1.090  -4.585  -3.929  0.00  0.00    -0.491 OA
ATOM     26  C   UNL     1      -0.049  -3.783  -4.248  0.00  0.00    +0.277 C 
ENDBRANCH  17  25
ENDBRANCH   6  15
BRANCH   7  27
ATOM     27  C   UNL     1      -2.016  -6.143   0.798  0.00  0.00    +0.098 C 
ATOM     28  N   UNL     1      -2.240  -7.219   1.084  0.00  0.00    -0.191 NA
ENDBRANCH   7  27
BRANCH   8  29
ATOM     29  S   UNL     1      -4.287  -4.736  -0.470  0.00  0.00    -0.104 S 
BRANCH  29  30
ATOM     30  C   UNL     1      -5.217  -3.383  -1.243  0.00  0.00    +0.110 C 
BRANCH  30  31
ATOM     31  C   UNL     1      -6.610  -3.855  -1.572  0.00  0.00    -0.037 A 
ATOM     32  C   UNL     1      -6.871  -4.434  -2.800  0.00  0.00    +0.006 A 
ATOM     33  C   UNL     1      -8.148  -4.868  -3.102  0.00  0.00    +0.020 A 
ATOM     34  C   UNL     1      -9.165  -4.722  -2.176  0.00  0.00    +0.041 A 
ATOM     35  C   UNL     1      -8.903  -4.142  -0.947  0.00  0.00    +0.020 A 
ATOM     36  C   UNL     1      -7.625  -3.715  -0.644  0.00  0.00    +0.006 A 
ATOM     37 CL   UNL     1     -10.770  -5.265  -2.556  0.00  0.00    -0.084 Cl
ENDBRANCH  30  31
ENDBRANCH  29  30
ENDBRANCH   8  29
TORSDOF 8
