REMARK  Name = ZINC40173207
REMARK  9 active torsions:
REMARK  status: ('A' for Active; 'I' for Inactive)
REMARK    1  A    between atoms: C_1  and  C_2
REMARK    2  A    between atoms: C_2  and  C_3
REMARK    3  A    between atoms: C_3  and  C_5
REMARK    4  A    between atoms: C_3  and  N_15
REMARK    5  A    between atoms: C_10  and  C_14
REMARK    6  A    between atoms: C_11  and  C_13
REMARK    7  A    between atoms: C_19  and  S_20
REMARK    8  A    between atoms: S_20  and  C_21
REMARK    9  A    between atoms: C_21  and  C_22
REMARK                            x       y       z     vdW  Elec       q    Type
REMARK                         _______ _______ _______ _____ _____    ______ ____
ROOT
ATOM      1  N   UNL     1       2.125  -0.091  -1.209  0.00  0.00    -0.279 N 
ATOM      2  C   UNL     1       3.032  -0.447  -0.252  0.00  0.00    +0.216 A 
ATOM      3  N   UNL     1       4.179   0.110  -0.553  0.00  0.00    -0.113 NA
ATOM      4  N   UNL     1       4.008   0.843  -1.734  0.00  0.00    -0.121 NA
ATOM      5  C   UNL     1       2.762   0.706  -2.119  0.00  0.00    +0.194 A 
ATOM      6  N   UNL     1       2.781  -1.258   0.848  0.00  0.00    -0.328 N 
ATOM      7  H   UNL     1       1.895  -1.626   0.988  0.00  0.00    +0.145 HD
ATOM      8  H   UNL     1       3.493  -1.455   1.477  0.00  0.00    +0.145 HD
ENDROOT
BRANCH   1   9
ATOM      9  C   UNL     1       0.718  -0.497  -1.257  0.00  0.00    +0.178 C 
BRANCH   9  10
ATOM     10  C   UNL     1       0.632  -2.000  -1.327  0.00  0.00    +0.242 C 
ATOM     11  O   UNL     1       1.645  -2.666  -1.337  0.00  0.00    -0.273 OA
ATOM     12  N   UNL     1      -0.572  -2.604  -1.380  0.00  0.00    -0.263 N 
ATOM     13  C   UNL     1      -0.652  -3.990  -1.445  0.00  0.00    +0.165 A 
ATOM     14  N   UNL     1       0.330  -4.866  -1.459  0.00  0.00    -0.230 NA
ATOM     15  C   UNL     1       0.087  -6.162  -1.525  0.00  0.00    +0.050 A 
ATOM     16  C   UNL     1      -1.213  -6.544  -1.576  0.00  0.00    +0.011 A 
ATOM     17  S   UNL     1      -2.028  -4.957  -1.518  0.00  0.00    -0.057 S 
ATOM     18  C   UNL     1      -1.806  -7.927  -1.655  0.00  0.00    +0.053 C 
ATOM     19  C   UNL     1       1.205  -7.172  -1.542  0.00  0.00    +0.066 C 
ATOM     20  H   UNL     1      -1.383  -2.072  -1.372  0.00  0.00    +0.157 HD
ENDBRANCH   9  10
BRANCH   9  22
ATOM     21  C   UNL     1      -0.019   1.526   0.010  0.00  0.00    +0.006 C 
ATOM     22  C   UNL     1       0.002  -0.004   0.002  0.00  0.00    +0.031 C 
ENDBRANCH   9  22
ENDBRANCH   1   9
BRANCH   5  23
ATOM     23  S   UNL     1       2.035   1.426  -3.553  0.00  0.00    -0.081 S 
BRANCH  23  24
ATOM     24  C   UNL     1       3.396   2.352  -4.316  0.00  0.00    +0.114 C 
BRANCH  24  25
ATOM     25  C   UNL     1       2.903   3.026  -5.571  0.00  0.00    -0.019 A 
ATOM     26  C   UNL     1       2.973   2.366  -6.784  0.00  0.00    +0.006 A 
ATOM     27  C   UNL     1       2.521   2.984  -7.934  0.00  0.00    +0.000 A 
ATOM     28  C   UNL     1       1.999   4.263  -7.874  0.00  0.00    +0.001 A 
ATOM     29  C   UNL     1       1.929   4.924  -6.662  0.00  0.00    +0.020 A 
ATOM     30  C   UNL     1       2.376   4.303  -5.509  0.00  0.00    +0.045 A 
ATOM     31 CL   UNL     1       2.283   5.131  -3.986  0.00  0.00    -0.083 Cl
ENDBRANCH  24  25
ENDBRANCH  23  24
ENDBRANCH   5  23
TORSDOF 6
