REMARK  Name = ZINC10267041
REMARK  10 active torsions:
REMARK  status: ('A' for Active; 'I' for Inactive)
REMARK    1  A    between atoms: C_1  and  C_2
REMARK    2  A    between atoms: C_2  and  O_3
REMARK    3  A    between atoms: O_3  and  C_4
REMARK    4  A    between atoms: N_6  and  C_7
REMARK    5  A    between atoms: C_11  and  C_18
REMARK    6  A    between atoms: C_18  and  S_19
REMARK    7  A    between atoms: S_19  and  C_20
REMARK    8  A    between atoms: C_21  and  C_28
REMARK    9  A    between atoms: C_22  and  C_27
REMARK   10  A    between atoms: C_24  and  C_26
REMARK                            x       y       z     vdW  Elec       q    Type
REMARK                         _______ _______ _______ _____ _____    ______ ____
ROOT
ATOM      1  C   UNL     1       0.283   5.261   3.061  0.00  0.00    +0.040 A 
ATOM      2  C   UNL     1       1.071   4.753   2.028  0.00  0.00    +0.024 A 
ATOM      3  C   UNL     1       0.751   3.568   1.434  0.00  0.00    +0.013 A 
ATOM      4  C   UNL     1      -0.372   2.853   1.867  0.00  0.00    +0.022 A 
ATOM      5  C   UNL     1      -0.742   1.581   1.243  0.00  0.00    -0.020 A 
ATOM      6  C   UNL     1      -1.846   0.937   1.704  0.00  0.00    +0.097 A 
ATOM      7  C   UNL     1      -2.601   1.502   2.752  0.00  0.00    +0.338 A 
ATOM      8  O   UNL     1      -3.588   0.914   3.156  0.00  0.00    -0.245 OA
ATOM      9  O   UNL     1      -2.259   2.671   3.317  0.00  0.00    -0.422 OA
ATOM     10  C   UNL     1      -1.174   3.361   2.905  0.00  0.00    +0.141 A 
ATOM     11  C   UNL     1      -0.835   4.568   3.499  0.00  0.00    +0.070 A 
ENDROOT
BRANCH   1  14
ATOM     12  C   UNL     1       0.385   6.670   4.971  0.00  0.00    +0.405 C 
ATOM     13  O   UNL     1      -0.036   5.758   5.654  0.00  0.00    -0.226 OA
ATOM     14  N   UNL     1       0.623   6.475   3.659  0.00  0.00    -0.251 N 
ATOM     15  H   UNL     1       1.031   7.178   3.131  0.00  0.00    +0.158 HD
BRANCH  12  16
ATOM     16  O   UNL     1       0.613   7.876   5.525  0.00  0.00    -0.450 OA
BRANCH  16  18
ATOM     17  C   UNL     1       0.651   9.442   7.389  0.00  0.00    +0.048 C 
ATOM     18  C   UNL     1       0.334   8.013   6.943  0.00  0.00    +0.230 C 
ENDBRANCH  16  18
ENDBRANCH  12  16
ENDBRANCH   1  14
BRANCH   5  19
ATOM     19  C   UNL     1       0.082   0.999   0.123  0.00  0.00    +0.112 C 
BRANCH  19  20
ATOM     20  S   UNL     1      -0.548   1.597  -1.464  0.00  0.00    -0.100 S 
BRANCH  20  21
ATOM     21  C   UNL     1       0.566   0.785  -2.562  0.00  0.00    +0.115 A 
ATOM     22  C   UNL     1       0.437   0.967  -3.950  0.00  0.00    +0.086 A 
ATOM     23  C   UNL     1       1.337   0.315  -4.801  0.00  0.00    -0.029 A 
ATOM     24  C   UNL     1       2.311  -0.490  -4.236  0.00  0.00    +0.027 A 
ATOM     25  C   UNL     1       2.371  -0.624  -2.861  0.00  0.00    +0.040 A 
ATOM     26  N   UNL     1       1.517   0.003  -2.075  0.00  0.00    -0.244 NA
ATOM     27  C   UNL     1       3.432  -1.501  -2.249  0.00  0.00    +0.065 C 
ATOM     28  C   UNL     1       1.244   0.481  -6.296  0.00  0.00    +0.045 C 
BRANCH  22  29
ATOM     29  C   UNL     1      -0.593   1.807  -4.484  0.00  0.00    +0.102 C 
ATOM     30  N   UNL     1      -1.409   2.473  -4.907  0.00  0.00    -0.191 NA
ENDBRANCH  22  29
ENDBRANCH  20  21
ENDBRANCH  19  20
ENDBRANCH   5  19
TORSDOF 7
