REMARK  Name = ZINC09152453
REMARK  8 active torsions:
REMARK  status: ('A' for Active; 'I' for Inactive)
REMARK    1  A    between atoms: C_1  and  C_2
REMARK    2  A    between atoms: C_5  and  S_8
REMARK    3  A    between atoms: S_8  and  C_11
REMARK    4  A    between atoms: N_24  and  C_25
REMARK    5  A    between atoms: C_28  and  O_33
REMARK    6  A    between atoms: C_30  and  O_31
REMARK    7  A    between atoms: O_31  and  C_32
REMARK    8  A    between atoms: O_33  and  C_34
REMARK                            x       y       z     vdW  Elec       q    Type
REMARK                         _______ _______ _______ _____ _____    ______ ____
ROOT
ATOM      1  C   UNL     1      -6.288   2.176   6.157  0.00  0.00    +0.249 A 
ATOM      2  C   UNL     1      -6.677   1.406   5.075  0.00  0.00    +0.204 A 
ATOM      3  N   UNL     1      -6.050   1.072   3.933  0.00  0.00    -0.209 NA
ATOM      4  C   UNL     1      -6.620   0.311   3.023  0.00  0.00    +0.135 A 
ATOM      5  C   UNL     1      -7.983  -0.184   3.259  0.00  0.00    +0.041 A 
ATOM      6  C   UNL     1      -8.637  -0.999   2.335  0.00  0.00    +0.013 A 
ATOM      7  C   UNL     1      -9.913  -1.444   2.605  0.00  0.00    +0.001 A 
ATOM      8  C   UNL     1     -10.546  -1.090   3.788  0.00  0.00    +0.002 A 
ATOM      9  C   UNL     1      -9.909  -0.289   4.713  0.00  0.00    +0.028 A 
ATOM     10  C   UNL     1      -8.624   0.168   4.461  0.00  0.00    +0.080 A 
ATOM     11  N   UNL     1      -7.946   0.973   5.359  0.00  0.00    -0.192 N 
ATOM     12  N   UNL     1      -8.277   1.503   6.611  0.00  0.00    -0.057 NA
ATOM     13  N   UNL     1      -7.280   2.198   7.038  0.00  0.00    -0.108 NA
ATOM     14  N   UNL     1      -5.949  -0.012   1.861  0.00  0.00    -0.296 N 
ATOM     15  H   UNL     1      -6.407  -0.493   1.154  0.00  0.00    +0.154 HD
ENDROOT
BRANCH  14  16
ATOM     16  C   UNL     1      -4.605   0.354   1.703  0.00  0.00    +0.076 A 
ATOM     17  C   UNL     1      -3.814   0.594   2.817  0.00  0.00    +0.050 A 
ATOM     18  C   UNL     1      -2.487   0.950   2.661  0.00  0.00    +0.084 A 
ATOM     19  C   UNL     1      -1.947   1.079   1.389  0.00  0.00    +0.142 A 
ATOM     20  C   UNL     1      -2.734   0.841   0.272  0.00  0.00    +0.094 A 
ATOM     21  C   UNL     1      -4.062   0.478   0.426  0.00  0.00    +0.145 A 
ATOM     22 CL   UNL     1      -1.498   1.243   4.057  0.00  0.00    -0.080 Cl
BRANCH  21  23
ATOM     23  O   UNL     1      -4.835   0.244  -0.668  0.00  0.00    -0.493 OA
ATOM     24  C   UNL     1      -4.212   0.391  -1.946  0.00  0.00    +0.277 C 
ENDBRANCH  21  23
BRANCH  19  25
ATOM     25  O   UNL     1      -0.643   1.435   1.237  0.00  0.00    -0.494 OA
ATOM     26  C   UNL     1      -0.151   1.543  -0.100  0.00  0.00    +0.277 C 
ENDBRANCH  19  25
ENDBRANCH  14  16
BRANCH   1  27
ATOM     27  S   UNL     1      -4.736   2.992   6.334  0.00  0.00    +0.047 S 
ATOM     28  O   UNL     1      -4.529   3.171   7.728  0.00  0.00    -0.163 OA
ATOM     29  O   UNL     1      -3.813   2.293   5.510  0.00  0.00    -0.163 OA
BRANCH  27  34
ATOM     30  C   UNL     1      -5.339   8.505   3.957  0.00  0.00    +0.044 C 
ATOM     31  C   UNL     1      -5.187   7.128   4.551  0.00  0.00    -0.050 A 
ATOM     32  C   UNL     1      -5.463   6.919   5.889  0.00  0.00    +0.005 A 
ATOM     33  C   UNL     1      -5.325   5.656   6.434  0.00  0.00    +0.028 A 
ATOM     34  C   UNL     1      -4.912   4.602   5.640  0.00  0.00    +0.095 A 
ATOM     35  C   UNL     1      -4.632   4.812   4.303  0.00  0.00    +0.028 A 
ATOM     36  C   UNL     1      -4.774   6.075   3.757  0.00  0.00    +0.005 A 
ENDBRANCH  27  34
ENDBRANCH   1  27
TORSDOF 5
