REMARK  Name = ZINC04036016
REMARK  7 active torsions:
REMARK  status: ('A' for Active; 'I' for Inactive)
REMARK    1  A    between atoms: C_1  and  C_2
REMARK    2  A    between atoms: C_5  and  C_21
REMARK    3  A    between atoms: C_8  and  C_10
REMARK    4  A    between atoms: C_13  and  N_16
REMARK    5  A    between atoms: N_16  and  S_17
REMARK    6  A    between atoms: S_17  and  C_20
REMARK    7  A    between atoms: C_25  and  N_27
REMARK                            x       y       z     vdW  Elec       q    Type
REMARK                         _______ _______ _______ _____ _____    ______ ____
ROOT
ATOM      1  C   UNL     1      -3.519   3.323  -0.904  0.00  0.00    +0.111 C 
ATOM      2  C   UNL     1      -2.431   2.510  -1.559  0.00  0.00    +0.232 C 
ATOM      3  O   UNL     1      -2.384   2.423  -2.768  0.00  0.00    -0.274 OA
ATOM      4  N   UNL     1      -1.512   1.880  -0.801  0.00  0.00    -0.185 N 
ATOM      5  C   UNL     1      -0.402   1.058  -1.309  0.00  0.00    +0.137 C 
ATOM      6  C   UNL     1       0.319   0.593  -0.028  0.00  0.00    +0.087 C 
ATOM      7  C   UNL     1      -0.480   1.220   1.092  0.00  0.00    +0.069 C 
ATOM      8  N   UNL     1      -1.457   1.901   0.591  0.00  0.00    -0.181 NA
ENDROOT
BRANCH   7   9
ATOM      9  C   UNL     1      -0.189   1.075   2.529  0.00  0.00    -0.002 A 
ATOM     10  C   UNL     1       0.897   0.302   2.949  0.00  0.00    +0.011 A 
ATOM     11  C   UNL     1       1.170   0.174   4.293  0.00  0.00    +0.025 A 
ATOM     12  C   UNL     1       0.359   0.802   5.233  0.00  0.00    +0.048 A 
ATOM     13  C   UNL     1      -0.727   1.566   4.819  0.00  0.00    +0.025 A 
ATOM     14  C   UNL     1      -1.002   1.704   3.476  0.00  0.00    +0.011 A 
BRANCH  12  15
ATOM     15  N   UNL     1       0.635   0.665   6.593  0.00  0.00    -0.221 N 
ATOM     16  H   UNL     1       1.374   1.151   6.989  0.00  0.00    +0.173 HD
BRANCH  15  17
ATOM     17  S   UNL     1      -0.300  -0.329   7.531  0.00  0.00    +0.040 S 
ATOM     18  O   UNL     1       0.253  -0.222   8.836  0.00  0.00    -0.155 OA
ATOM     19  O   UNL     1      -1.636   0.081   7.275  0.00  0.00    -0.155 OA
ATOM     20  C   UNL     1      -0.020  -1.995   6.869  0.00  0.00    +0.218 C 
ENDBRANCH  15  17
ENDBRANCH  12  15
ENDBRANCH   7   9
BRANCH   5  21
ATOM     21  C   UNL     1      -0.929  -0.125  -2.080  0.00  0.00    -0.023 A 
ATOM     22  C   UNL     1      -2.107  -0.736  -1.691  0.00  0.00    +0.005 A 
ATOM     23  C   UNL     1      -2.591  -1.818  -2.401  0.00  0.00    +0.003 A 
ATOM     24  C   UNL     1      -1.894  -2.296  -3.494  0.00  0.00    +0.033 A 
ATOM     25  C   UNL     1      -0.714  -1.689  -3.881  0.00  0.00    +0.127 A 
ATOM     26  C   UNL     1      -0.231  -0.604  -3.173  0.00  0.00    +0.038 A 
BRANCH  25  27
ATOM     27  N   UNL     1       0.033  -2.200  -5.052  0.00  0.00    +0.056 N 
ATOM     28  O   UNL     1       1.073  -1.665  -5.392  0.00  0.00    -0.126 OA
ATOM     29  O   UNL     1      -0.393  -3.156  -5.675  0.00  0.00    -0.126 OA
ENDBRANCH  25  27
ENDBRANCH   5  21
TORSDOF 5
