REMARK  Name = ZINC20149100
REMARK  9 active torsions:
REMARK  status: ('A' for Active; 'I' for Inactive)
REMARK    1  A    between atoms: C_1  and  O_2
REMARK    2  A    between atoms: O_2  and  C_3
REMARK    3  A    between atoms: C_3  and  C_5
REMARK    4  A    between atoms: C_8  and  N_26
REMARK    5  A    between atoms: N_11  and  C_12
REMARK    6  A    between atoms: N_15  and  C_18
REMARK    7  A    between atoms: C_18  and  C_19
REMARK    8  A    between atoms: C_19  and  C_20
REMARK    9  A    between atoms: C_27  and  C_29
REMARK                            x       y       z     vdW  Elec       q    Type
REMARK                         _______ _______ _______ _____ _____    ______ ____
ROOT
ATOM      1  C   UNL     1      -3.470   4.178   0.085  0.00  0.00    +0.168 C 
ATOM      2  C   UNL     1      -3.832   2.831  -0.577  0.00  0.00    +0.054 C 
ATOM      3  C   UNL     1      -2.747   2.610  -1.651  0.00  0.00    +0.089 C 
ATOM      4  C   UNL     1      -1.822   3.841  -1.548  0.00  0.00    +0.107 C 
ATOM      5  N   UNL     1      -2.014   4.338  -0.161  0.00  0.00    -0.285 NA
ENDROOT
BRANCH   5   6
ATOM      6  C   UNL     1      -1.612   5.747  -0.046  0.00  0.00    +0.054 C 
ATOM      7  C   UNL     1      -2.467   6.601  -0.986  0.00  0.00    +0.000 C 
ATOM      8  C   UNL     1      -2.004   8.057  -0.907  0.00  0.00    -0.077 C 
ATOM      9  N   UNL     1      -0.589   8.143  -1.290  0.00  0.00    +0.380 N 
ATOM     10  C   UNL     1       0.258   7.368  -0.374  0.00  0.00    -0.077 C 
ATOM     11  C   UNL     1      -0.139   5.891  -0.437  0.00  0.00    +0.000 C 
ATOM     12  H   UNL     1      -0.486   7.704  -2.294  0.00  0.00    -0.082 HD
BRANCH   9  13
ATOM     13  C   UNL     1      -0.146   9.542  -1.360  0.00  0.00    -0.074 C 
BRANCH  13  14
ATOM     14  C   UNL     1      -0.881  10.253  -2.498  0.00  0.00    +0.016 C 
BRANCH  14  15
ATOM     15  C   UNL     1      -0.427  11.689  -2.570  0.00  0.00    -0.049 A 
ATOM     16  C   UNL     1      -1.093  12.661  -1.848  0.00  0.00    +0.003 A 
ATOM     17  C   UNL     1      -0.674  13.977  -1.910  0.00  0.00    +0.000 A 
ATOM     18  C   UNL     1       0.406  14.322  -2.701  0.00  0.00    +0.000 A 
ATOM     19  C   UNL     1       1.069  13.350  -3.427  0.00  0.00    +0.000 A 
ATOM     20  C   UNL     1       0.653  12.033  -3.361  0.00  0.00    +0.003 A 
ENDBRANCH  14  15
ENDBRANCH  13  14
ENDBRANCH   9  13
ENDBRANCH   5   6
BRANCH   3  21
ATOM     21  N   UNL     1      -3.356   2.541  -2.982  0.00  0.00    -0.306 N 
ATOM     22  C   UNL     1      -3.770   1.356  -3.474  0.00  0.00    +0.265 C 
ATOM     23  O   UNL     1      -3.633   0.344  -2.815  0.00  0.00    -0.268 OA
ATOM     24  H   UNL     1      -3.476   3.456  -3.580  0.00  0.00    +0.149 HD
BRANCH  22  25
ATOM     25  C   UNL     1      -4.389   1.288  -4.813  0.00  0.00    +0.154 A 
ATOM     26  C   UNL     1      -4.841   0.102  -5.387  0.00  0.00    +0.155 A 
ATOM     27  N   UNL     1      -5.358   0.254  -6.578  0.00  0.00    -0.198 NA
ATOM     28  S   UNL     1      -5.252   1.792  -6.886  0.00  0.00    +0.116 S 
ATOM     29  N   UNL     1      -4.575   2.347  -5.582  0.00  0.00    -0.186 NA
ENDBRANCH  22  25
ENDBRANCH   3  21
BRANCH   1  30
ATOM     30  C   UNL     1      -3.750   4.128   1.565  0.00  0.00    +0.324 C 
ATOM     31  O   UNL     1      -2.841   4.215   2.356  0.00  0.00    -0.249 OA
BRANCH  30  33
ATOM     32  C   UNL     1      -5.206   3.946   3.444  0.00  0.00    +0.280 C 
ATOM     33  O   UNL     1      -5.011   3.987   2.006  0.00  0.00    -0.467 OA
ENDBRANCH  30  33
ENDBRANCH   1  30
TORSDOF 8
