REMARK  Name = ZINC38686121
REMARK  16 active torsions:
REMARK  status: ('A' for Active; 'I' for Inactive)
REMARK    1  A    between atoms: C_1  and  C_2
REMARK    2  A    between atoms: C_2  and  C_3
REMARK    3  A    between atoms: C_3  and  C_4
REMARK    4  A    between atoms: C_4  and  C_5
REMARK    5  A    between atoms: C_5  and  O_6
REMARK    6  A    between atoms: O_6  and  C_7
REMARK    7  A    between atoms: C_12  and  C_13
REMARK    8  A    between atoms: C_18  and  O_27
REMARK    9  A    between atoms: C_22  and  N_26
REMARK   10  A    between atoms: C_23  and  C_24
REMARK   11  A    between atoms: O_27  and  C_28
REMARK   12  A    between atoms: C_28  and  C_30
REMARK   13  A    between atoms: C_33  and  O_36
REMARK   14  A    between atoms: O_36  and  C_37
REMARK   15  A    between atoms: C_37  and  C_38
REMARK   16  A    between atoms: C_37  and  C_39
REMARK                            x       y       z     vdW  Elec       q    Type
REMARK                         _______ _______ _______ _____ _____    ______ ____
ROOT
ATOM      1  C   UNL     1       1.623  -6.623   2.289  0.00  0.00    +0.101 C 
ATOM      2  C   UNL     1       2.675  -7.487   1.644  0.00  0.00    +0.008 A 
ATOM      3  C   UNL     1       3.528  -6.934   0.705  0.00  0.00    +0.012 A 
ATOM      4  C   UNL     1       4.498  -7.710   0.104  0.00  0.00    +0.047 A 
ATOM      5  C   UNL     1       4.620  -9.051   0.440  0.00  0.00    +0.135 A 
ATOM      6  C   UNL     1       3.768  -9.608   1.380  0.00  0.00    +0.093 A 
ATOM      7  C   UNL     1       2.793  -8.825   1.984  0.00  0.00    +0.138 A 
ATOM      8  O   UNL     1       1.966  -9.385   2.902  0.00  0.00    -0.441 OA
ATOM      9  C   UNL     1       0.802  -8.789   3.207  0.00  0.00    +0.199 C 
ATOM     10  C   UNL     1       0.578  -7.483   2.942  0.00  0.00    +0.098 C 
ENDROOT
BRANCH   1  16
ATOM     11  C   UNL     1       2.197  -4.363   3.212  0.00  0.00    +0.125 A 
ATOM     12  C   UNL     1       2.787  -3.556   4.174  0.00  0.00    +0.046 A 
ATOM     13  C   UNL     1       3.448  -4.129   5.243  0.00  0.00    +0.004 A 
ATOM     14  C   UNL     1       3.522  -5.505   5.354  0.00  0.00    +0.001 A 
ATOM     15  C   UNL     1       2.935  -6.311   4.397  0.00  0.00    +0.008 A 
ATOM     16  C   UNL     1       2.268  -5.744   3.329  0.00  0.00    +0.007 A 
BRANCH  11  17
ATOM     17  O   UNL     1       1.545  -3.802   2.159  0.00  0.00    -0.492 OA
BRANCH  17  18
ATOM     18  C   UNL     1       1.512  -2.375   2.103  0.00  0.00    +0.229 C 
BRANCH  18  19
ATOM     19  C   UNL     1       0.741  -1.931   0.858  0.00  0.00    +0.041 C 
BRANCH  19  20
ATOM     20  C   UNL     1       0.705  -0.403   0.798  0.00  0.00    +0.003 C 
BRANCH  20  22
ATOM     21  C   UNL     1      -0.102   1.569  -0.507  0.00  0.00    +0.004 C 
ATOM     22  C   UNL     1      -0.066   0.041  -0.447  0.00  0.00    -0.003 C 
ENDBRANCH  20  22
ENDBRANCH  19  20
ENDBRANCH  18  19
ENDBRANCH  17  18
ENDBRANCH  11  17
ENDBRANCH   1  16
BRANCH   9  23
ATOM     23  N   UNL     1      -0.188  -9.528   3.805  0.00  0.00    -0.328 N 
ATOM     24  H   UNL     1      -0.041 -10.466   4.002  0.00  0.00    +0.145 HD
ATOM     25  H   UNL     1      -1.035  -9.112   4.031  0.00  0.00    +0.145 HD
ENDBRANCH   9  23
BRANCH  10  26
ATOM     26  C   UNL     1      -0.685  -6.907   3.293  0.00  0.00    +0.101 C 
ATOM     27  N   UNL     1      -1.687  -6.450   3.572  0.00  0.00    -0.191 NA
ENDBRANCH  10  26
BRANCH   5  28
ATOM     28  O   UNL     1       5.575  -9.817  -0.151  0.00  0.00    -0.422 OA
BRANCH  28  29
ATOM     29  C   UNL     1       5.173 -10.820  -0.956  0.00  0.00    +0.344 C 
ATOM     30  O   UNL     1       3.992 -10.960  -1.209  0.00  0.00    -0.245 OA
BRANCH  29  31
ATOM     31  C   UNL     1       6.165 -11.749  -1.529  0.00  0.00    +0.060 A 
ATOM     32  C   UNL     1       7.522 -11.593  -1.234  0.00  0.00    +0.018 A 
ATOM     33  C   UNL     1       8.445 -12.463  -1.771  0.00  0.00    +0.046 A 
ATOM     34  C   UNL     1       8.028 -13.493  -2.606  0.00  0.00    +0.121 A 
ATOM     35  C   UNL     1       6.679 -13.651  -2.902  0.00  0.00    +0.046 A 
ATOM     36  C   UNL     1       5.749 -12.790  -2.364  0.00  0.00    +0.018 A 
BRANCH  34  37
ATOM     37  O   UNL     1       8.941 -14.348  -3.133  0.00  0.00    -0.489 OA
BRANCH  37  38
ATOM     38  C   UNL     1      10.290 -14.215  -2.682  0.00  0.00    +0.167 C 
ATOM     39  C   UNL     1      10.954 -15.593  -2.646  0.00  0.00    +0.051 C 
ATOM     40  C   UNL     1      11.061 -13.303  -3.638  0.00  0.00    +0.051 C 
ENDBRANCH  37  38
ENDBRANCH  34  37
ENDBRANCH  29  31
ENDBRANCH  28  29
ENDBRANCH   5  28
TORSDOF 13
