REMARK  Name = ZINC03897432
REMARK  6 active torsions:
REMARK  status: ('A' for Active; 'I' for Inactive)
REMARK    1  A    between atoms: C_1  and  C_2
REMARK    2  A    between atoms: C_4  and  O_23
REMARK    3  A    between atoms: C_6  and  O_22
REMARK    4  A    between atoms: C_8  and  O_21
REMARK    5  A    between atoms: C_10  and  N_13
REMARK    6  A    between atoms: N_13  and  C_14
REMARK                            x       y       z     vdW  Elec       q    Type
REMARK                         _______ _______ _______ _____ _____    ______ ____
ROOT
ATOM      1  C   UNL     1       2.407   5.240   0.170  0.00  0.00    +0.041 C 
ATOM      2  C   UNL     1       2.540   3.718   0.088  0.00  0.00    +0.149 C 
ATOM      3  C   UNL     1       1.147   3.087   0.019  0.00  0.00    +0.174 C 
ATOM      4  C   UNL     1       1.286   1.562  -0.002  0.00  0.00    +0.178 C 
ATOM      5  C   UNL     1       2.066   1.115   1.238  0.00  0.00    +0.192 C 
ATOM      6  C   UNL     1       3.424   1.822   1.261  0.00  0.00    +0.235 C 
ATOM      7  O   UNL     1       3.222   3.237   1.248  0.00  0.00    -0.351 OA
ENDROOT
BRANCH   6   8
ATOM      8  N   UNL     1       4.152   1.443   2.474  0.00  0.00    -0.317 N 
ATOM      9  H   UNL     1       3.669   1.289   3.302  0.00  0.00    +0.149 HD
BRANCH   8  10
ATOM     10  C   UNL     1       5.542   1.304   2.440  0.00  0.00    +0.029 A 
ATOM     11  C   UNL     1       6.234   1.518   1.255  0.00  0.00    +0.024 A 
ATOM     12  C   UNL     1       7.608   1.385   1.226  0.00  0.00    +0.017 A 
ATOM     13  C   UNL     1       8.294   1.028   2.372  0.00  0.00    +0.018 A 
ATOM     14  C   UNL     1       7.607   0.808   3.553  0.00  0.00    +0.017 A 
ATOM     15  C   UNL     1       6.233   0.945   3.590  0.00  0.00    +0.024 A 
ATOM     16 BR   UNL     1      10.175   0.839   2.326  0.00  0.00    -0.050 Br
ENDBRANCH   8  10
ENDBRANCH   6   8
BRANCH   5  17
ATOM     17  O   UNL     1       1.330   1.457   2.414  0.00  0.00    -0.385 OA
ATOM     18  H   UNL     1       1.766   1.202   3.239  0.00  0.00    +0.210 HD
ENDBRANCH   5  17
BRANCH   4  19
ATOM     19  O   UNL     1      -0.011   0.963   0.007  0.00  0.00    -0.386 OA
ATOM     20  H   UNL     1       0.002  -0.004   0.002  0.00  0.00    +0.210 HD
ENDBRANCH   4  19
BRANCH   3  21
ATOM     21  O   UNL     1       0.484   3.522  -1.170  0.00  0.00    -0.387 OA
ATOM     22  H   UNL     1       0.362   4.480  -1.224  0.00  0.00    +0.210 HD
ENDBRANCH   3  21
TORSDOF 5
