REMARK  Name = ZINC20028576
REMARK  9 active torsions:
REMARK  status: ('A' for Active; 'I' for Inactive)
REMARK    1  A    between atoms: C_1  and  N_2
REMARK    2  A    between atoms: N_2  and  C_3
REMARK    3  A    between atoms: N_2  and  C_4
REMARK    4  A    between atoms: C_4  and  C_5
REMARK    5  A    between atoms: C_5  and  C_6
REMARK    6  A    between atoms: C_6  and  N_7
REMARK    7  A    between atoms: C_8  and  C_13
REMARK    8  A    between atoms: C_18  and  C_31
REMARK    9  A    between atoms: C_21  and  C_24
REMARK                            x       y       z     vdW  Elec       q    Type
REMARK                         _______ _______ _______ _____ _____    ______ ____
ROOT
ATOM      1  C   UNL     1      -2.859  -4.219  -2.780  0.00  0.00    +0.132 A 
ATOM      2  C   UNL     1      -2.893  -4.983  -3.967  0.00  0.00    +0.076 A 
ATOM      3  C   UNL     1      -2.939  -4.121  -5.004  0.00  0.00    +0.119 A 
ATOM      4  N   UNL     1      -2.932  -2.852  -4.501  0.00  0.00    -0.238 N 
ATOM      5  N   UNL     1      -2.889  -2.941  -3.111  0.00  0.00    -0.166 NA
ATOM      6  C   UNL     1      -2.969  -1.647  -5.335  0.00  0.00    +0.215 C 
ATOM      7  C   UNL     1      -2.534  -2.015  -6.758  0.00  0.00    +0.063 C 
ATOM      8  C   UNL     1      -3.320  -3.238  -7.244  0.00  0.00    +0.104 C 
ATOM      9  N   UNL     1      -2.988  -4.385  -6.375  0.00  0.00    -0.322 N 
ATOM     10  H   UNL     1      -2.814  -5.269  -6.735  0.00  0.00    +0.148 HD
ENDROOT
BRANCH   8  11
ATOM     11  C   UNL     1      -2.939  -3.551  -8.668  0.00  0.00    -0.027 A 
ATOM     12  C   UNL     1      -1.774  -4.245  -8.936  0.00  0.00    +0.007 A 
ATOM     13  C   UNL     1      -1.424  -4.532 -10.242  0.00  0.00    +0.020 A 
ATOM     14  C   UNL     1      -2.240  -4.125 -11.282  0.00  0.00    +0.041 A 
ATOM     15  C   UNL     1      -3.407  -3.430 -11.014  0.00  0.00    +0.020 A 
ATOM     16  C   UNL     1      -3.758  -3.149  -9.707  0.00  0.00    +0.007 A 
ATOM     17 CL   UNL     1      -1.802  -4.485 -12.922  0.00  0.00    -0.084 Cl
ENDBRANCH   8  11
BRANCH   1  19
ATOM     18  N   UNL     1      -2.777  -4.025  -0.239  0.00  0.00    -0.300 N 
ATOM     19  C   UNL     1      -2.805  -4.758  -1.403  0.00  0.00    +0.185 A 
ATOM     20  N   UNL     1      -2.775  -6.025  -1.062  0.00  0.00    -0.127 NA
ATOM     21  N   UNL     1      -2.731  -6.134   0.218  0.00  0.00    -0.121 NA
ATOM     22  C   UNL     1      -2.724  -4.942   0.772  0.00  0.00    +0.203 A 
ATOM     23  S   UNL     1      -2.661  -4.593   2.498  0.00  0.00    -0.009 SA
BRANCH  18  24
ATOM     24  C   UNL     1      -2.794  -2.566  -0.111  0.00  0.00    +0.124 C 
BRANCH  24  25
ATOM     25  C   UNL     1      -1.358  -2.037  -0.122  0.00  0.00    +0.003 C 
BRANCH  25  26
ATOM     26  C   UNL     1      -1.376  -0.512   0.012  0.00  0.00    -0.078 C 
BRANCH  26  28
ATOM     27  C   UNL     1      -0.018   1.465   0.010  0.00  0.00    -0.097 C 
ATOM     28  N   UNL     1       0.002  -0.004   0.002  0.00  0.00    +0.376 N 
ATOM     29  C   UNL     1       0.713  -0.491   1.192  0.00  0.00    -0.097 C 
ATOM     30  H   UNL     1       0.474  -0.330  -0.828  0.00  0.00    -0.083 HD
ENDBRANCH  26  28
ENDBRANCH  25  26
ENDBRANCH  24  25
ENDBRANCH  18  24
ENDBRANCH   1  19
BRANCH   6  31
ATOM     31  C   UNL     1      -2.017  -0.597  -4.761  0.00  0.00    +0.412 C 
ATOM     32  F   UNL     1      -0.715  -1.109  -4.741  0.00  0.00    -0.168 F 
ATOM     33  F   UNL     1      -2.054   0.552  -5.559  0.00  0.00    -0.168 F 
ATOM     34  F   UNL     1      -2.410  -0.273  -3.458  0.00  0.00    -0.168 F 
ENDBRANCH   6  31
TORSDOF 7
