REMARK  Name = ZINC12029075
REMARK  9 active torsions:
REMARK  status: ('A' for Active; 'I' for Inactive)
REMARK    1  A    between atoms: C_1  and  C_2
REMARK    2  A    between atoms: C_5  and  C_7
REMARK    3  A    between atoms: C_7  and  N_8
REMARK    4  A    between atoms: C_13  and  C_21
REMARK    5  A    between atoms: C_24  and  C_26
REMARK    6  A    between atoms: C_27  and  C_28
REMARK    7  A    between atoms: C_28  and  C_29
REMARK    8  A    between atoms: C_28  and  C_30
REMARK    9  A    between atoms: C_28  and  O_31
REMARK                            x       y       z     vdW  Elec       q    Type
REMARK                         _______ _______ _______ _____ _____    ______ ____
ROOT
ATOM      1  N   UNL     1      -1.979   2.500   0.732  0.00  0.00    -0.295 N 
ATOM      2  C   UNL     1      -2.178   2.253  -0.701  0.00  0.00    +0.110 C 
ATOM      3  C   UNL     1      -0.777   1.944  -1.276  0.00  0.00    +0.003 C 
ATOM      4  C   UNL     1      -0.880   0.678  -2.152  0.00  0.00    -0.006 C 
ATOM      5  C   UNL     1      -0.776  -0.487  -1.151  0.00  0.00    -0.029 C 
ATOM      6  C   UNL     1      -0.017   1.477  -0.014  0.00  0.00    +0.018 C 
ATOM      7  C   UNL     1      -0.781   2.047   1.145  0.00  0.00    +0.206 C 
ATOM      8  O   UNL     1      -0.378   2.093   2.288  0.00  0.00    -0.277 OA
ATOM      9  C   UNL     1       1.434   1.981  -0.047  0.00  0.00    -0.004 C 
ATOM     10  C   UNL     1       2.242   0.755   0.458  0.00  0.00    -0.019 C 
ATOM     11  C   UNL     1       1.423  -0.424  -0.126  0.00  0.00    -0.077 C 
ATOM     12  N   UNL     1       0.019   0.019  -0.009  0.00  0.00    +0.394 N 
ATOM     13  H   UNL     1      -0.380  -0.335   0.868  0.00  0.00    -0.079 HD
ENDROOT
BRANCH   5  14
ATOM     14  C   UNL     1      -0.076  -1.658  -1.791  0.00  0.00    -0.022 A 
ATOM     15  C   UNL     1       0.331  -2.823  -1.225  0.00  0.00    +0.011 A 
ATOM     16  C   UNL     1       0.957  -3.767  -2.007  0.00  0.00    +0.025 A 
ATOM     17  C   UNL     1       1.149  -3.497  -3.338  0.00  0.00    +0.062 A 
ATOM     18  S   UNL     1       0.422  -1.873  -3.492  0.00  0.00    -0.086 S 
BRANCH  17  19
ATOM     19  C   UNL     1       1.768  -4.308  -4.343  0.00  0.00    -0.056 C 
ATOM     20  C   UNL     1       2.274  -4.973  -5.168  0.00  0.00    -0.062 C 
BRANCH  20  21
ATOM     21  C   UNL     1       2.909  -5.806  -6.201  0.00  0.00    +0.121 C 
ATOM     22  C   UNL     1       2.885  -5.066  -7.540  0.00  0.00    +0.055 C 
ATOM     23  C   UNL     1       4.359  -6.094  -5.804  0.00  0.00    +0.055 C 
BRANCH  21  24
ATOM     24  O   UNL     1       2.196  -7.038  -6.325  0.00  0.00    -0.377 OA
ATOM     25  H   UNL     1       2.560  -7.638  -6.990  0.00  0.00    +0.211 HD
ENDBRANCH  21  24
ENDBRANCH  20  21
ENDBRANCH  17  19
ENDBRANCH   5  14
BRANCH   1  26
ATOM     26  C   UNL     1      -2.959   3.155   1.601  0.00  0.00    +0.181 C 
BRANCH  26  31
ATOM     27  C   UNL     1      -6.877   0.039   2.215  0.00  0.00    +0.086 C 
ATOM     28  C   UNL     1      -5.579   0.762   2.464  0.00  0.00    +0.102 A 
ATOM     29  C   UNL     1      -4.774   0.591   3.528  0.00  0.00    +0.045 A 
ATOM     30  C   UNL     1      -3.676   1.465   3.356  0.00  0.00    +0.046 A 
ATOM     31  C   UNL     1      -3.876   2.118   2.197  0.00  0.00    +0.122 A 
ATOM     32  O   UNL     1      -5.033   1.693   1.664  0.00  0.00    -0.463 OA
ENDBRANCH  26  31
ENDBRANCH   1  26
TORSDOF 6
