REMARK  Name = ZINC40391282
REMARK  12 active torsions:
REMARK  status: ('A' for Active; 'I' for Inactive)
REMARK    1  A    between atoms: C_1  and  C_2
REMARK    2  A    between atoms: C_2  and  N_3
REMARK    3  A    between atoms: C_4  and  C_26
REMARK    4  A    between atoms: C_5  and  C_21
REMARK    5  A    between atoms: C_6  and  C_11
REMARK    6  A    between atoms: C_14  and  C_17
REMARK    7  A    between atoms: C_21  and  O_23
REMARK    8  A    between atoms: O_23  and  C_24
REMARK    9  A    between atoms: C_24  and  C_25
REMARK   10  A    between atoms: C_26  and  N_27
REMARK   11  A    between atoms: N_30  and  C_33
REMARK   12  A    between atoms: C_38  and  C_39
REMARK                            x       y       z     vdW  Elec       q    Type
REMARK                         _______ _______ _______ _____ _____    ______ ____
ROOT
ATOM      1  N   UNL     1       0.767  -0.413  -1.193  0.00  0.00    -0.258 N 
ATOM      2  C   UNL     1      -0.024  -0.546  -2.299  0.00  0.00    +0.041 C 
ATOM      3  C   UNL     1       0.469  -1.046  -3.452  0.00  0.00    +0.080 C 
ATOM      4  C   UNL     1       1.928  -1.453  -3.478  0.00  0.00    +0.144 C 
ATOM      5  N   UNL     1       2.694  -1.269  -2.234  0.00  0.00    -0.288 N 
ATOM      6  C   UNL     1       2.062  -0.751  -1.162  0.00  0.00    +0.307 C 
ATOM      7  O   UNL     1       2.687  -0.592  -0.132  0.00  0.00    -0.252 OA
ATOM      8  H   UNL     1       3.632  -1.510  -2.188  0.00  0.00    +0.151 HD
ENDROOT
BRANCH   4   9
ATOM      9  C   UNL     1       2.611  -0.664  -4.565  0.00  0.00    -0.022 A 
ATOM     10  C   UNL     1       3.001   0.642  -4.330  0.00  0.00    +0.006 A 
ATOM     11  C   UNL     1       3.628   1.365  -5.327  0.00  0.00    +0.013 A 
ATOM     12  C   UNL     1       3.865   0.784  -6.559  0.00  0.00    +0.055 A 
ATOM     13  C   UNL     1       3.476  -0.522  -6.793  0.00  0.00    +0.013 A 
ATOM     14  C   UNL     1       2.853  -1.247  -5.795  0.00  0.00    +0.006 A 
BRANCH  12  15
ATOM     15  C   UNL     1       4.547   1.573  -7.646  0.00  0.00    +0.417 C 
ATOM     16  F   UNL     1       5.932   1.392  -7.555  0.00  0.00    -0.166 F 
ATOM     17  F   UNL     1       4.100   1.130  -8.895  0.00  0.00    -0.166 F 
ATOM     18  F   UNL     1       4.244   2.931  -7.497  0.00  0.00    -0.166 F 
ENDBRANCH  12  15
ENDBRANCH   4   9
BRANCH   1  20
ATOM     19  C   UNL     1       0.316   1.659   0.024  0.00  0.00    +0.025 C 
ATOM     20  C   UNL     1       0.166   0.137   0.025  0.00  0.00    +0.111 C 
ENDBRANCH   1  20
BRANCH   3  21
ATOM     21  C   UNL     1      -0.350  -1.185  -4.597  0.00  0.00    +0.339 C 
ATOM     22  O   UNL     1      -0.801  -2.276  -4.894  0.00  0.00    -0.245 OA
BRANCH  21  23
ATOM     23  O   UNL     1      -0.630  -0.109  -5.361  0.00  0.00    -0.462 OA
BRANCH  23  24
ATOM     24  C   UNL     1      -1.463  -0.323  -6.503  0.00  0.00    +0.229 C 
ATOM     25  C   UNL     1      -1.669   1.002  -7.239  0.00  0.00    +0.048 C 
ENDBRANCH  23  24
ENDBRANCH  21  23
ENDBRANCH   3  21
BRANCH   2  26
ATOM     26  C   UNL     1      -1.470  -0.129  -2.229  0.00  0.00    +0.136 C 
BRANCH  26  27
ATOM     27  N   UNL     1      -2.195  -1.023  -1.316  0.00  0.00    -0.294 NA
ATOM     28  C   UNL     1      -2.243  -2.392  -1.847  0.00  0.00    +0.103 C 
ATOM     29  C   UNL     1      -2.843  -3.325  -0.790  0.00  0.00    +0.120 C 
ATOM     30  N   UNL     1      -4.140  -2.777  -0.364  0.00  0.00    -0.327 N 
ATOM     31  C   UNL     1      -4.196  -1.367   0.053  0.00  0.00    +0.120 C 
ATOM     32  C   UNL     1      -3.543  -0.511  -1.038  0.00  0.00    +0.103 C 
BRANCH  30  33
ATOM     33  C   UNL     1      -5.287  -3.573  -0.356  0.00  0.00    +0.033 A 
ATOM     34  C   UNL     1      -5.628  -4.292   0.784  0.00  0.00    +0.023 A 
ATOM     35  C   UNL     1      -6.763  -5.078   0.789  0.00  0.00    +0.002 A 
ATOM     36  C   UNL     1      -7.560  -5.151  -0.339  0.00  0.00    +0.000 A 
ATOM     37  C   UNL     1      -7.224  -4.438  -1.475  0.00  0.00    +0.005 A 
ATOM     38  C   UNL     1      -6.093  -3.644  -1.484  0.00  0.00    -0.029 A 
ATOM     39  C   UNL     1      -5.731  -2.862  -2.720  0.00  0.00    +0.045 C 
ENDBRANCH  30  33
ENDBRANCH  26  27
ENDBRANCH   2  26
TORSDOF 9
