REMARK  Name = ZINC06908590
REMARK  2 active torsions:
REMARK  status: ('A' for Active; 'I' for Inactive)
REMARK    1  A    between atoms: C_1  and  C_2
REMARK    2  A    between atoms: C_7  and  C_19
REMARK                            x       y       z     vdW  Elec       q    Type
REMARK                         _______ _______ _______ _____ _____    ______ ____
ROOT
ATOM      1  C   UNL     1      -5.646  -1.082   2.023  0.00  0.00    +0.008 C 
ATOM      2  C   UNL     1      -4.412  -0.231   1.714  0.00  0.00    -0.001 C 
ATOM      3  C   UNL     1      -3.536  -0.947   0.684  0.00  0.00    +0.055 C 
ATOM      4  C   UNL     1      -2.339  -0.088   0.351  0.00  0.00    +0.020 C 
ATOM      5  C   UNL     1      -2.424   1.259   0.378  0.00  0.00    +0.042 C 
ATOM      6  C   UNL     1      -1.254   2.148   0.020  0.00  0.00    +0.191 C 
ATOM      7  N   UNL     1      -0.017   1.373   0.010  0.00  0.00    -0.297 N 
ATOM      8  C   UNL     1       1.282   1.794  -0.001  0.00  0.00    +0.071 A 
ATOM      9  C   UNL     1       1.867   3.055   0.004  0.00  0.00    +0.028 A 
ATOM     10  C   UNL     1       3.251   3.108  -0.013  0.00  0.00    +0.002 A 
ATOM     11  C   UNL     1       4.029   1.964  -0.034  0.00  0.00    +0.002 A 
ATOM     12  C   UNL     1       3.473   0.698  -0.037  0.00  0.00    +0.030 A 
ATOM     13  C   UNL     1       2.075   0.619  -0.020  0.00  0.00    +0.091 A 
ATOM     14  N   UNL     1       1.234  -0.434  -0.019  0.00  0.00    -0.214 NA
ATOM     15  C   UNL     1       0.002  -0.004   0.002  0.00  0.00    +0.202 A 
ATOM     16  N   UNL     1      -1.173  -0.735   0.020  0.00  0.00    -0.288 N 
ATOM     17  C   UNL     1      -3.624   1.899   0.740  0.00  0.00    +0.163 C 
ATOM     18  O   UNL     1      -3.672   3.113   0.741  0.00  0.00    -0.292 OA
ATOM     19  C   UNL     1      -4.848   1.115   1.124  0.00  0.00    +0.083 C 
ATOM     20  H   UNL     1      -1.173  -1.681  -0.195  0.00  0.00    +0.155 HD
ENDROOT
BRANCH   6  21
ATOM     21  C   UNL     1      -1.141   3.255   1.036  0.00  0.00    +0.132 A 
ATOM     22  C   UNL     1      -1.234   4.572   0.778  0.00  0.00    +0.047 A 
ATOM     23  C   UNL     1      -1.070   5.244   2.012  0.00  0.00    +0.041 A 
ATOM     24  C   UNL     1      -0.887   4.297   2.950  0.00  0.00    +0.195 A 
ATOM     25  O   UNL     1      -0.937   3.094   2.354  0.00  0.00    -0.465 OA
ENDBRANCH   6  21
TORSDOF 1
