REMARK  Name = ZINC33916260
REMARK  7 active torsions:
REMARK  status: ('A' for Active; 'I' for Inactive)
REMARK    1  A    between atoms: C_1  and  C_2
REMARK    2  A    between atoms: C_2  and  C_4
REMARK    3  A    between atoms: C_7  and  N_10
REMARK    4  A    between atoms: C_15  and  C_33
REMARK    5  A    between atoms: C_18  and  C_23
REMARK    6  A    between atoms: C_18  and  C_30
REMARK    7  A    between atoms: C_23  and  C_24
REMARK                            x       y       z     vdW  Elec       q    Type
REMARK                         _______ _______ _______ _____ _____    ______ ____
ROOT
ATOM      1  N   UNL     1      -3.938  -4.069  -0.330  0.00  0.00    -0.210 N 
ATOM      2  C   UNL     1      -4.867  -3.067  -0.470  0.00  0.00    +0.229 C 
ATOM      3  O   UNL     1      -4.686  -1.942  -0.884  0.00  0.00    -0.275 OA
ATOM      4  C   UNL     1      -6.106  -3.654  -0.016  0.00  0.00    +0.078 C 
ATOM      5  C   UNL     1      -7.557  -3.436  -0.107  0.00  0.00    -0.020 C 
ATOM      6  N   UNL     1      -8.155  -4.761   0.263  0.00  0.00    +0.396 N 
ATOM      7  C   UNL     1      -7.026  -5.733   0.433  0.00  0.00    +0.048 C 
ATOM      8  C   UNL     1      -5.952  -5.148  -0.508  0.00  0.00    +0.086 C 
ATOM      9  C   UNL     1      -4.507  -5.292  -0.115  0.00  0.00    +0.229 C 
ATOM     10  O   UNL     1      -3.962  -6.288   0.307  0.00  0.00    -0.275 OA
ATOM     11  H   UNL     1      -8.667  -4.676   1.128  0.00  0.00    -0.083 HD
ATOM     12  H   UNL     1      -8.770  -5.076  -0.472  0.00  0.00    -0.083 HD
ENDROOT
BRANCH   1  16
ATOM     13  C   UNL     1       0.178  -3.446  -0.549  0.00  0.00    +0.017 A 
ATOM     14  C   UNL     1      -0.704  -2.369  -0.698  0.00  0.00    +0.013 A 
ATOM     15  C   UNL     1      -2.062  -2.579  -0.625  0.00  0.00    +0.024 A 
ATOM     16  C   UNL     1      -2.558  -3.860  -0.404  0.00  0.00    +0.044 A 
ATOM     17  C   UNL     1      -1.686  -4.933  -0.255  0.00  0.00    +0.024 A 
ATOM     18  C   UNL     1      -0.327  -4.734  -0.332  0.00  0.00    +0.013 A 
BRANCH  13  20
ATOM     19  C   UNL     1       2.170  -1.839  -0.859  0.00  0.00    +0.091 C 
ATOM     20  C   UNL     1       1.629  -3.226  -0.625  0.00  0.00    +0.160 C 
ATOM     21  O   UNL     1       2.391  -4.161  -0.501  0.00  0.00    -0.292 OA
ENDBRANCH  13  20
ENDBRANCH   1  16
BRANCH   5  22
ATOM     22  C   UNL     1      -7.945  -3.053  -1.512  0.00  0.00    -0.022 A 
ATOM     23  C   UNL     1      -8.199  -1.823  -2.021  0.00  0.00    +0.011 A 
ATOM     24  C   UNL     1      -8.543  -1.708  -3.356  0.00  0.00    +0.028 A 
ATOM     25  C   UNL     1      -8.615  -2.830  -4.115  0.00  0.00    +0.078 A 
ATOM     26  S   UNL     1      -8.183  -4.100  -2.937  0.00  0.00    -0.083 S 
ATOM     27 CL   UNL     1      -9.017  -2.988  -5.796  0.00  0.00    -0.076 Cl
ENDBRANCH   5  22
BRANCH   7  28
ATOM     28  C   UNL     1      -7.433  -7.110  -0.025  0.00  0.00    +0.346 C 
ATOM     29  O   UNL     1      -8.565  -7.306  -0.435  0.00  0.00    -0.248 OA
ATOM     30  O   UNL     1      -6.632  -8.028   0.015  0.00  0.00    -0.248 OA
ENDBRANCH   7  28
BRANCH   7  31
ATOM     31  C   UNL     1      -6.550  -5.762   1.887  0.00  0.00    +0.003 C 
BRANCH  31  32
ATOM     32  C   UNL     1      -7.503  -6.625   2.718  0.00  0.00    -0.012 C 
ATOM     33  C   UNL     1      -8.899  -5.998   2.708  0.00  0.00    +0.003 C 
ATOM     34  C   UNL     1      -9.851  -6.861   3.538  0.00  0.00    +0.000 C 
ATOM     35  C   UNL     1      -9.339  -6.943   4.978  0.00  0.00    +0.000 C 
ATOM     36  C   UNL     1      -7.943  -7.569   4.989  0.00  0.00    +0.000 C 
ATOM     37  C   UNL     1      -6.991  -6.706   4.158  0.00  0.00    +0.003 C 
ENDBRANCH  31  32
ENDBRANCH   7  31
TORSDOF 6
