REMARK  Name = ZINC39667181
REMARK  9 active torsions:
REMARK  status: ('A' for Active; 'I' for Inactive)
REMARK    1  A    between atoms: C_1  and  C_2
REMARK    2  A    between atoms: C_5  and  C_9
REMARK    3  A    between atoms: C_6  and  C_8
REMARK    4  A    between atoms: C_9  and  C_10
REMARK    5  A    between atoms: C_10  and  N_11
REMARK    6  A    between atoms: C_12  and  C_14
REMARK    7  A    between atoms: C_25  and  C_27
REMARK    8  A    between atoms: C_34  and  C_38
REMARK    9  A    between atoms: N_36  and  C_37
REMARK                            x       y       z     vdW  Elec       q    Type
REMARK                         _______ _______ _______ _____ _____    ______ ____
ROOT
ATOM      1  C   UNL     1      -2.479  -8.465   0.197  0.00  0.00    +0.100 C 
ATOM      2  C   UNL     1      -1.597  -9.004   1.346  0.00  0.00    +0.121 C 
ATOM      3  N   UNL     1      -2.546  -9.264   2.455  0.00  0.00    -0.296 N 
ATOM      4  C   UNL     1      -3.745  -9.827   1.790  0.00  0.00    +0.115 C 
ATOM      5  C   UNL     1      -3.886  -9.010   0.490  0.00  0.00    -0.004 C 
ATOM      6  C   UNL     1      -4.867  -7.859   0.696  0.00  0.00    -0.010 C 
ATOM      7  C   UNL     1      -6.270  -8.425   0.929  0.00  0.00    -0.082 C 
ATOM      8  N   UNL     1      -6.671  -9.235  -0.228  0.00  0.00    +0.379 N 
ATOM      9  C   UNL     1      -5.778 -10.392  -0.363  0.00  0.00    -0.082 C 
ATOM     10  C   UNL     1      -4.353  -9.909  -0.651  0.00  0.00    -0.010 C 
ATOM     11  C   UNL     1      -2.360  -9.040   3.771  0.00  0.00    +0.250 C 
ATOM     12  O   UNL     1      -1.352  -8.480   4.155  0.00  0.00    -0.270 OA
ATOM     13  H   UNL     1      -7.619  -9.557  -0.099  0.00  0.00    -0.086 HD
ATOM     14  H   UNL     1      -6.620  -8.673  -1.064  0.00  0.00    -0.086 HD
ENDROOT
BRANCH  11  15
ATOM     15  C   UNL     1      -3.380  -9.475   4.745  0.00  0.00    +0.074 A 
ATOM     16  C   UNL     1      -4.104 -10.656   4.535  0.00  0.00    +0.127 A 
ATOM     17  N   UNL     1      -5.015 -11.060   5.388  0.00  0.00    -0.235 NA
ATOM     18  C   UNL     1      -5.298 -10.374   6.491  0.00  0.00    +0.160 A 
ATOM     19  C   UNL     1      -4.613  -9.175   6.776  0.00  0.00    +0.060 A 
ATOM     20  C   UNL     1      -3.632  -8.717   5.891  0.00  0.00    +0.067 A 
ATOM     21 CL   UNL     1      -2.759  -7.249   6.204  0.00  0.00    -0.082 Cl
ATOM     22  C   UNL     1      -5.152  -8.681   8.039  0.00  0.00    +0.071 A 
ATOM     23  N   UNL     1      -6.062  -9.525   8.435  0.00  0.00    -0.174 NA
ATOM     24  N   UNL     1      -6.179 -10.572   7.516  0.00  0.00    -0.249 N 
ATOM     25  C   UNL     1      -7.102 -11.703   7.634  0.00  0.00    +0.174 C 
ATOM     26  C   UNL     1      -4.732  -7.423   8.755  0.00  0.00    +0.068 C 
ENDBRANCH  11  15
BRANCH   1  28
ATOM     27  N   UNL     1      -2.632  -6.278  -0.949  0.00  0.00    -0.315 N 
ATOM     28  C   UNL     1      -2.487  -6.958   0.206  0.00  0.00    +0.218 C 
ATOM     29  O   UNL     1      -2.364  -6.356   1.252  0.00  0.00    -0.275 OA
ATOM     30  H   UNL     1      -2.730  -6.759  -1.786  0.00  0.00    +0.149 HD
BRANCH  27  31
ATOM     31  C   UNL     1      -2.640  -4.813  -0.941  0.00  0.00    +0.109 C 
BRANCH  31  32
ATOM     32  C   UNL     1      -2.817  -4.296  -2.370  0.00  0.00    +0.054 C 
BRANCH  32  37
ATOM     33  C   UNL     1      -2.850   1.482  -2.335  0.00  0.00    +0.044 C 
ATOM     34  C   UNL     1      -2.841  -0.025  -2.345  0.00  0.00    -0.050 A 
ATOM     35  C   UNL     1      -4.034  -0.723  -2.310  0.00  0.00    +0.003 A 
ATOM     36  C   UNL     1      -4.026  -2.105  -2.318  0.00  0.00    +0.004 A 
ATOM     37  C   UNL     1      -2.825  -2.789  -2.362  0.00  0.00    -0.043 A 
ATOM     38  C   UNL     1      -1.633  -2.091  -2.398  0.00  0.00    -0.047 A 
ATOM     39  C   UNL     1      -1.641  -0.709  -2.394  0.00  0.00    +0.007 A 
ATOM     40  C   UNL     1      -0.324  -2.837  -2.445  0.00  0.00    +0.044 C 
ENDBRANCH  32  37
ENDBRANCH  31  32
ENDBRANCH  27  31
ENDBRANCH   1  28
TORSDOF 5
