REMARK  Name = ZINC08672660
REMARK  6 active torsions:
REMARK  status: ('A' for Active; 'I' for Inactive)
REMARK    1  A    between atoms: C_4  and  C_7
REMARK    2  A    between atoms: C_7  and  C_8
REMARK    3  A    between atoms: N_18  and  C_19
REMARK    4  A    between atoms: C_19  and  C_20
REMARK    5  A    between atoms: C_25  and  C_27
REMARK    6  A    between atoms: C_25  and  C_31
REMARK                            x       y       z     vdW  Elec       q    Type
REMARK                         _______ _______ _______ _____ _____    ______ ____
ROOT
ATOM      1  C   UNL     1       3.931  -0.319   1.379  0.00  0.00    +0.101 C 
ATOM      2  N   UNL     1       4.983  -1.192   1.253  0.00  0.00    -0.289 N 
ATOM      3  C   UNL     1       5.227  -2.108   2.248  0.00  0.00    +0.120 A 
ATOM      4  C   UNL     1       4.660  -1.933   3.476  0.00  0.00    +0.100 A 
ATOM      5  C   UNL     1       4.909  -2.881   4.484  0.00  0.00    +0.262 A 
ATOM      6  O   UNL     1       4.409  -2.750   5.588  0.00  0.00    -0.267 OA
ATOM      7  N   UNL     1       5.704  -3.936   4.218  0.00  0.00    -0.275 N 
ATOM      8  H   UNL     1       5.878  -4.593   4.911  0.00  0.00    +0.173 HD
ATOM      9  C   UNL     1       6.259  -4.088   3.002  0.00  0.00    +0.331 A 
ATOM     10  O   UNL     1       6.976  -5.047   2.786  0.00  0.00    -0.246 OA
ATOM     11  N   UNL     1       6.033  -3.195   2.020  0.00  0.00    -0.274 N 
ATOM     12  C   UNL     1       3.786  -0.742   3.750  0.00  0.00    +0.285 C 
ATOM     13  N   UNL     1       3.369  -0.097   2.512  0.00  0.00    -0.244 NA
ATOM     14  H   UNL     1       5.551  -1.162   0.466  0.00  0.00    +0.155 HD
ENDROOT
BRANCH  12  15
ATOM     15  C   UNL     1       2.548  -1.196   4.525  0.00  0.00    +0.428 C 
ATOM     16  F   UNL     1       2.897  -1.452   5.856  0.00  0.00    -0.167 F 
ATOM     17  F   UNL     1       1.577  -0.190   4.483  0.00  0.00    -0.167 F 
ATOM     18  F   UNL     1       2.036  -2.362   3.945  0.00  0.00    -0.167 F 
ENDBRANCH  12  15
BRANCH  12  19
ATOM     19  C   UNL     1       4.565   0.266   4.598  0.00  0.00    +0.428 C 
ATOM     20  F   UNL     1       5.710   0.672   3.905  0.00  0.00    -0.167 F 
ATOM     21  F   UNL     1       3.757   1.379   4.857  0.00  0.00    -0.167 F 
ATOM     22  F   UNL     1       4.939  -0.331   5.807  0.00  0.00    -0.167 F 
ENDBRANCH  12  19
BRANCH   1  23
ATOM     23  C   UNL     1       3.426   0.403   0.157  0.00  0.00    +0.106 C 
BRANCH  23  27
ATOM     24  C   UNL     1       0.179   2.956   1.247  0.00  0.00    +0.000 A 
ATOM     25  C   UNL     1       1.476   3.434   1.279  0.00  0.00    +0.000 A 
ATOM     26  C   UNL     1       2.526   2.608   0.927  0.00  0.00    +0.004 A 
ATOM     27  C   UNL     1       2.281   1.303   0.542  0.00  0.00    -0.040 A 
ATOM     28  C   UNL     1       0.984   0.824   0.511  0.00  0.00    +0.004 A 
ATOM     29  C   UNL     1      -0.067   1.651   0.862  0.00  0.00    +0.000 A 
ENDBRANCH  23  27
ENDBRANCH   1  23
BRANCH  11  30
ATOM     30  C   UNL     1       6.648  -3.384   0.704  0.00  0.00    +0.202 C 
BRANCH  30  31
ATOM     31  C   UNL     1       7.990  -2.699   0.674  0.00  0.00    +0.125 A 
ATOM     32  C   UNL     1       9.167  -3.259   1.007  0.00  0.00    +0.046 A 
ATOM     33  C   UNL     1      10.157  -2.265   0.834  0.00  0.00    +0.041 A 
ATOM     34  C   UNL     1       9.527  -1.158   0.405  0.00  0.00    +0.195 A 
ATOM     35  O   UNL     1       8.215  -1.428   0.304  0.00  0.00    -0.466 OA
ENDBRANCH  30  31
ENDBRANCH  11  30
TORSDOF 6
