REMARK  Name = ZINC36618857
REMARK  8 active torsions:
REMARK  status: ('A' for Active; 'I' for Inactive)
REMARK    1  A    between atoms: C_1  and  C_2
REMARK    2  A    between atoms: C_5  and  C_9
REMARK    3  A    between atoms: C_6  and  C_8
REMARK    4  A    between atoms: C_15  and  C_23
REMARK    5  A    between atoms: C_17  and  C_21
REMARK    6  A    between atoms: C_18  and  N_20
REMARK    7  A    between atoms: C_28  and  O_29
REMARK    8  A    between atoms: O_29  and  C_30
REMARK                            x       y       z     vdW  Elec       q    Type
REMARK                         _______ _______ _______ _____ _____    ______ ____
ROOT
ATOM      1  C   UNL     1       0.060  -4.246  -0.021  0.00  0.00    +0.084 C 
ATOM      2  N   UNL     1       0.071  -5.036   1.018  0.00  0.00    -0.150 NA
ATOM      3  N   UNL     1       0.054  -6.384   0.657  0.00  0.00    -0.115 NA
ATOM      4  C   UNL     1      -0.026  -6.541  -0.617  0.00  0.00    +0.227 C 
ATOM      5  C   UNL     1       0.067  -5.148  -1.234  0.00  0.00    +0.140 C 
ATOM      6  C   UNL     1      -1.214  -4.967  -2.057  0.00  0.00    +0.086 C 
ATOM      7  C   UNL     1      -1.508  -6.245  -2.796  0.00  0.00    +0.095 C 
ATOM      8  C   UNL     1      -1.022  -7.454  -2.448  0.00  0.00    +0.200 C 
ATOM      9  O   UNL     1      -0.187  -7.636  -1.389  0.00  0.00    -0.425 OA
ENDROOT
BRANCH   1  14
ATOM     10  C   UNL     1      -0.018   1.503   0.010  0.00  0.00    +0.044 C 
ATOM     11  C   UNL     1       0.002  -0.004   0.002  0.00  0.00    -0.050 A 
ATOM     12  C   UNL     1       0.006  -0.686  -1.203  0.00  0.00    +0.004 A 
ATOM     13  C   UNL     1       0.025  -2.064  -1.218  0.00  0.00    +0.010 A 
ATOM     14  C   UNL     1       0.041  -2.774  -0.013  0.00  0.00    +0.002 A 
ATOM     15  C   UNL     1       0.037  -2.078   1.199  0.00  0.00    -0.041 A 
ATOM     16  C   UNL     1       0.023  -0.699   1.199  0.00  0.00    +0.007 A 
ATOM     17  C   UNL     1       0.053  -2.833   2.504  0.00  0.00    +0.044 C 
ENDBRANCH   1  14
BRANCH   6  18
ATOM     18  C   UNL     1      -2.362  -4.640  -1.137  0.00  0.00    +0.006 A 
ATOM     19  C   UNL     1      -2.724  -5.527  -0.141  0.00  0.00    +0.028 A 
ATOM     20  C   UNL     1      -3.778  -5.228   0.704  0.00  0.00    +0.043 A 
ATOM     21  C   UNL     1      -4.473  -4.040   0.553  0.00  0.00    +0.043 A 
ATOM     22  C   UNL     1      -4.114  -3.151  -0.442  0.00  0.00    +0.084 A 
ATOM     23  C   UNL     1      -3.053  -3.447  -1.286  0.00  0.00    +0.142 A 
ATOM     24 CL   UNL     1      -4.986  -1.662  -0.631  0.00  0.00    -0.080 Cl
ATOM     25 CL   UNL     1      -4.230  -6.344   1.954  0.00  0.00    -0.083 Cl
BRANCH  23  26
ATOM     26  O   UNL     1      -2.695  -2.571  -2.263  0.00  0.00    -0.493 OA
ATOM     27  C   UNL     1      -3.331  -2.720  -3.534  0.00  0.00    +0.277 C 
ENDBRANCH  23  26
ENDBRANCH   6  18
BRANCH   8  28
ATOM     28  N   UNL     1      -1.381  -8.547  -3.197  0.00  0.00    -0.328 N 
ATOM     29  H   UNL     1      -1.972  -8.440  -3.959  0.00  0.00    +0.145 HD
ATOM     30  H   UNL     1      -1.043  -9.426  -2.965  0.00  0.00    +0.145 HD
ENDBRANCH   8  28
BRANCH   7  31
ATOM     31  C   UNL     1      -2.359  -6.172  -3.946  0.00  0.00    +0.100 C 
ATOM     32  N   UNL     1      -3.034  -6.114  -4.857  0.00  0.00    -0.191 NA
ENDBRANCH   7  31
TORSDOF 5
