REMARK  Name = ZINC01452571
REMARK  6 active torsions:
REMARK  status: ('A' for Active; 'I' for Inactive)
REMARK    1  A    between atoms: C_4  and  C_7
REMARK    2  A    between atoms: C_7  and  C_9
REMARK    3  A    between atoms: C_9  and  N_11
REMARK    4  A    between atoms: C_9  and  N_20
REMARK    5  A    between atoms: N_11  and  C_12
REMARK    6  A    between atoms: C_21  and  C_23
REMARK                            x       y       z     vdW  Elec       q    Type
REMARK                         _______ _______ _______ _____ _____    ______ ____
ROOT
ATOM      1  C   UNL     1       1.922   5.651  -0.549  0.00  0.00    +0.231 C 
ENDROOT
BRANCH   1   2
ATOM      2  N   UNL     1       1.986   6.130   0.833  0.00  0.00    -0.286 N 
ATOM      3  C   UNL     1       1.016   6.934   1.313  0.00  0.00    +0.252 C 
ATOM      4  O   UNL     1       0.087   7.260   0.598  0.00  0.00    -0.270 OA
ATOM      5  H   UNL     1       2.726   5.870   1.403  0.00  0.00    +0.151 HD
BRANCH   3   6
ATOM      6  C   UNL     1       1.079   7.413   2.697  0.00  0.00    +0.074 A 
ATOM      7  C   UNL     1       0.196   8.236   3.378  0.00  0.00    +0.021 A 
ATOM      8  C   UNL     1       0.498   8.533   4.683  0.00  0.00    +0.008 A 
ATOM      9  C   UNL     1       1.626   8.017   5.237  0.00  0.00    +0.046 A 
ATOM     10  S   UNL     1       2.310   7.085   3.946  0.00  0.00    -0.092 S 
ENDBRANCH   3   6
ENDBRANCH   1   2
BRANCH   1  11
ATOM     11  C   UNL     1       3.277   5.791  -1.193  0.00  0.00    +0.201 C 
ATOM     12  O   UNL     1       3.744   4.871  -1.830  0.00  0.00    -0.288 OA
BRANCH  11  16
ATOM     13  C   UNL     1       5.459   9.405  -0.777  0.00  0.00    +0.000 A 
ATOM     14  C   UNL     1       6.036   8.322  -1.416  0.00  0.00    +0.001 A 
ATOM     15  C   UNL     1       5.334   7.144  -1.556  0.00  0.00    +0.011 A 
ATOM     16  C   UNL     1       4.034   7.045  -1.048  0.00  0.00    +0.021 A 
ATOM     17  C   UNL     1       3.455   8.146  -0.408  0.00  0.00    +0.011 A 
ATOM     18  C   UNL     1       4.173   9.315  -0.272  0.00  0.00    +0.001 A 
ENDBRANCH  11  16
ENDBRANCH   1  11
BRANCH   1  19
ATOM     19  N   UNL     1       1.520   4.242  -0.559  0.00  0.00    -0.319 N 
ATOM     20  H   UNL     1       2.150   3.556  -0.287  0.00  0.00    +0.148 HD
BRANCH  19  21
ATOM     21  C   UNL     1       0.230   3.886  -0.961  0.00  0.00    +0.049 A 
ATOM     22  C   UNL     1      -0.715   4.871  -1.219  0.00  0.00    +0.044 A 
ATOM     23  C   UNL     1      -1.990   4.515  -1.617  0.00  0.00    +0.043 A 
ATOM     24  C   UNL     1      -2.324   3.180  -1.763  0.00  0.00    +0.021 A 
ATOM     25  C   UNL     1      -1.387   2.197  -1.502  0.00  0.00    +0.023 A 
ATOM     26  C   UNL     1      -0.111   2.546  -1.104  0.00  0.00    +0.062 A 
ATOM     27 CL   UNL     1       1.067   1.312  -0.782  0.00  0.00    -0.082 Cl
ATOM     28 CL   UNL     1      -3.172   5.745  -1.939  0.00  0.00    -0.083 Cl
ENDBRANCH  19  21
ENDBRANCH   1  19
TORSDOF 6
