REMARK  Name = ZINC02071621
REMARK  11 active torsions:
REMARK  status: ('A' for Active; 'I' for Inactive)
REMARK    1  A    between atoms: C_1  and  C_2
REMARK    2  A    between atoms: C_2  and  O_3
REMARK    3  A    between atoms: O_3  and  C_4
REMARK    4  A    between atoms: C_4  and  C_6
REMARK    5  A    between atoms: C_7  and  C_28
REMARK    6  A    between atoms: C_10  and  N_11
REMARK    7  A    between atoms: N_11  and  C_12
REMARK    8  A    between atoms: C_12  and  C_14
REMARK    9  A    between atoms: C_12  and  N_18
REMARK   10  A    between atoms: C_19  and  C_21
REMARK   11  A    between atoms: C_24  and  C_27
REMARK                            x       y       z     vdW  Elec       q    Type
REMARK                         _______ _______ _______ _____ _____    ______ ____
ROOT
ATOM      1  N   UNL     1       1.475   3.444   0.006  0.00  0.00    -0.316 N 
ATOM      2  H   UNL     1       0.742   4.079   0.016  0.00  0.00    +0.148 HD
ENDROOT
BRANCH   1   7
ATOM      3  C   UNL     1      -0.018   1.448   0.010  0.00  0.00    +0.095 A 
ATOM      4  C   UNL     1       0.002  -0.004   0.002  0.00  0.00    +0.005 A 
ATOM      5  C   UNL     1       1.222  -0.598  -0.013  0.00  0.00    +0.056 A 
ATOM      6  S   UNL     1       2.349   0.780  -0.016  0.00  0.00    -0.081 S 
ATOM      7  C   UNL     1       1.216   2.088   0.002  0.00  0.00    +0.082 A 
BRANCH   4   8
ATOM      8  C   UNL     1      -1.249  -0.798   0.010  0.00  0.00    -0.017 A 
ATOM      9  C   UNL     1      -2.244  -0.528   0.949  0.00  0.00    +0.008 A 
ATOM     10  C   UNL     1      -3.409  -1.268   0.949  0.00  0.00    +0.001 A 
ATOM     11  C   UNL     1      -3.586  -2.283   0.026  0.00  0.00    +0.000 A 
ATOM     12  C   UNL     1      -2.601  -2.560  -0.905  0.00  0.00    +0.001 A 
ATOM     13  C   UNL     1      -1.434  -1.823  -0.917  0.00  0.00    +0.008 A 
ENDBRANCH   4   8
BRANCH   3  14
ATOM     14  C   UNL     1      -1.235   2.176   0.020  0.00  0.00    +0.342 C 
ATOM     15  O   UNL     1      -1.752   2.482   1.078  0.00  0.00    -0.245 OA
BRANCH  14  16
ATOM     16  O   UNL     1      -1.819   2.528  -1.144  0.00  0.00    -0.461 OA
BRANCH  16  18
ATOM     17  C   UNL     1      -3.552   3.568  -2.469  0.00  0.00    +0.048 C 
ATOM     18  C   UNL     1      -3.043   3.261  -1.059  0.00  0.00    +0.229 C 
ENDBRANCH  16  18
ENDBRANCH  14  16
ENDBRANCH   3  14
ENDBRANCH   1   7
BRANCH   1  19
ATOM     19  C   UNL     1       2.859   3.926  -0.005  0.00  0.00    +0.211 C 
BRANCH  19  20
ATOM     20  C   UNL     1       2.996   5.061  -1.020  0.00  0.00    +0.225 C 
ATOM     21 CL   UNL     1       1.894   6.413  -0.564  0.00  0.00    -0.080 Cl
ATOM     22 CL   UNL     1       4.699   5.654  -1.034  0.00  0.00    -0.080 Cl
ATOM     23 CL   UNL     1       2.558   4.456  -2.661  0.00  0.00    -0.080 Cl
ENDBRANCH  19  20
BRANCH  19  24
ATOM     24  N   UNL     1       3.215   4.417   1.329  0.00  0.00    -0.290 N 
ATOM     25  C   UNL     1       4.016   3.683   2.126  0.00  0.00    +0.246 C 
ATOM     26  O   UNL     1       4.443   2.612   1.739  0.00  0.00    -0.270 OA
ATOM     27  H   UNL     1       2.875   5.271   1.638  0.00  0.00    +0.151 HD
BRANCH  25  28
ATOM     28  C   UNL     1       4.376   4.179   3.471  0.00  0.00    +0.037 A 
ATOM     29  C   UNL     1       3.892   5.410   3.917  0.00  0.00    +0.013 A 
ATOM     30  C   UNL     1       4.228   5.865   5.175  0.00  0.00    +0.004 A 
ATOM     31  C   UNL     1       5.050   5.109   5.991  0.00  0.00    -0.050 A 
ATOM     32  C   UNL     1       5.537   3.890   5.554  0.00  0.00    +0.004 A 
ATOM     33  C   UNL     1       5.205   3.421   4.300  0.00  0.00    +0.013 A 
ATOM     34  C   UNL     1       5.417   5.615   7.362  0.00  0.00    +0.044 C 
ENDBRANCH  25  28
ENDBRANCH  19  24
ENDBRANCH   1  19
TORSDOF 9
