REMARK  Name = ZINC09505148
REMARK  5 active torsions:
REMARK  status: ('A' for Active; 'I' for Inactive)
REMARK    1  A    between atoms: C_5  and  S_6
REMARK    2  A    between atoms: S_6  and  N_9
REMARK    3  A    between atoms: C_12  and  C_15
REMARK    4  A    between atoms: N_17  and  C_18
REMARK    5  A    between atoms: C_19  and  C_28
REMARK                            x       y       z     vdW  Elec       q    Type
REMARK                         _______ _______ _______ _____ _____    ______ ____
ROOT
ATOM      1  C   UNL     1       3.140  -0.347   2.169  0.00  0.00    +0.221 C 
ATOM      2  O   UNL     1       2.703  -1.145   2.971  0.00  0.00    -0.275 OA
ATOM      3  N   UNL     1       4.411   0.089   2.277  0.00  0.00    -0.279 N 
ATOM      4  H   UNL     1       4.760   0.728   1.636  0.00  0.00    +0.155 HD
ENDROOT
BRANCH   3   5
ATOM      5  C   UNL     1       5.218  -0.374   3.305  0.00  0.00    +0.084 A 
ATOM      6  C   UNL     1       6.537  -0.046   3.579  0.00  0.00    +0.068 A 
ATOM      7  C   UNL     1       7.165  -0.676   4.732  0.00  0.00    -0.023 A 
ATOM      8  C   UNL     1       6.377  -1.534   5.413  0.00  0.00    -0.004 A 
ATOM      9  S   UNL     1       4.822  -1.497   4.562  0.00  0.00    -0.077 S 
ATOM     10  C   UNL     1       6.731  -2.342   6.622  0.00  0.00    +0.043 C 
ATOM     11  C   UNL     1       7.397  -1.430   7.662  0.00  0.00    +0.005 C 
ATOM     12  C   UNL     1       8.901  -1.422   7.406  0.00  0.00    +0.001 C 
ATOM     13  C   UNL     1       9.180  -1.561   5.911  0.00  0.00    +0.005 C 
ATOM     14  C   UNL     1       8.601  -0.375   5.147  0.00  0.00    +0.037 C 
BRANCH   6  15
ATOM     15  C   UNL     1       7.273   0.902   2.738  0.00  0.00    +0.244 C 
ATOM     16  O   UNL     1       7.253   2.091   3.000  0.00  0.00    -0.270 OA
ATOM     17  N   UNL     1       7.972   0.458   1.674  0.00  0.00    -0.325 N 
ATOM     18  H   UNL     1       7.987  -0.489   1.465  0.00  0.00    +0.145 HD
ATOM     19  H   UNL     1       8.459   1.085   1.117  0.00  0.00    +0.145 HD
ENDBRANCH   6  15
ENDBRANCH   3   5
BRANCH   1  23
ATOM     20  N   UNL     1      -0.018   1.465   0.010  0.00  0.00    -0.176 NA
ATOM     21  C   UNL     1       1.261   2.189   0.002  0.00  0.00    +0.110 C 
ATOM     22  C   UNL     1       2.125   1.677   1.158  0.00  0.00    +0.030 C 
ATOM     23  C   UNL     1       2.263   0.156   1.052  0.00  0.00    +0.078 C 
ATOM     24  C   UNL     1       0.880  -0.492   1.159  0.00  0.00    +0.030 C 
ATOM     25  C   UNL     1       0.002  -0.004   0.002  0.00  0.00    +0.110 C 
BRANCH  20  26
ATOM     26  S   UNL     1      -1.454   2.289   0.021  0.00  0.00    +0.067 S 
ATOM     27  O   UNL     1      -1.189   3.575  -0.524  0.00  0.00    -0.152 OA
ATOM     28  O   UNL     1      -2.429   1.414  -0.530  0.00  0.00    -0.152 OA
BRANCH  26  33
ATOM     29  C   UNL     1      -1.589   3.574   2.527  0.00  0.00    +0.038 A 
ATOM     30  C   UNL     1      -2.052   3.559   3.830  0.00  0.00    +0.030 A 
ATOM     31  C   UNL     1      -2.802   2.509   4.249  0.00  0.00    +0.080 A 
ATOM     32  S   UNL     1      -2.878   1.500   2.779  0.00  0.00    -0.057 S 
ATOM     33  C   UNL     1      -1.898   2.539   1.708  0.00  0.00    +0.144 A 
ATOM     34 CL   UNL     1      -3.510   2.225   5.808  0.00  0.00    -0.076 Cl
ENDBRANCH  26  33
ENDBRANCH  20  26
ENDBRANCH   1  23
TORSDOF 5
