REMARK  Name = ZINC04855616
REMARK  10 active torsions:
REMARK  status: ('A' for Active; 'I' for Inactive)
REMARK    1  A    between atoms: C_1  and  C_2
REMARK    2  A    between atoms: C_6  and  N_9
REMARK    3  A    between atoms: C_7  and  C_8
REMARK    4  A    between atoms: C_14  and  C_16
REMARK    5  A    between atoms: C_14  and  C_23
REMARK    6  A    between atoms: C_14  and  N_60
REMARK    7  A    between atoms: N_27  and  C_28
REMARK    8  A    between atoms: C_28  and  C_29
REMARK    9  A    between atoms: C_29  and  O_30
REMARK   10  A    between atoms: O_30  and  C_31
REMARK                            x       y       z     vdW  Elec       q    Type
REMARK                         _______ _______ _______ _____ _____    ______ ____
ROOT
ATOM      1  C   UNL     1       0.002  -0.004   0.002  0.00  0.00    +0.033 C 
ENDROOT
BRANCH   1   7
ATOM      2  N   UNL     1      -2.042  -1.933   3.156  0.00  0.00    -0.333 N 
ATOM      3  C   UNL     1      -2.205  -2.472   1.799  0.00  0.00    +0.086 C 
ATOM      4  C   UNL     1      -1.054  -1.982   0.917  0.00  0.00    -0.058 C 
ATOM      5  C   UNL     1      -0.880   0.026   2.257  0.00  0.00    -0.058 C 
ATOM      6  C   UNL     1      -2.032  -0.463   3.139  0.00  0.00    +0.086 C 
ATOM      7  N   UNL     1      -1.069  -0.505   0.890  0.00  0.00    +0.391 N 
ATOM      8  H   UNL     1      -1.976  -0.187   0.531  0.00  0.00    -0.080 HD
BRANCH   2  14
ATOM      9  C   UNL     1      -3.299  -4.424   7.202  0.00  0.00    +0.044 C 
ATOM     10  C   UNL     1      -3.674  -3.628   5.979  0.00  0.00    -0.046 A 
ATOM     11  C   UNL     1      -5.005  -3.376   5.700  0.00  0.00    +0.004 A 
ATOM     12  C   UNL     1      -5.354  -2.645   4.579  0.00  0.00    +0.002 A 
ATOM     13  C   UNL     1      -4.373  -2.165   3.733  0.00  0.00    +0.023 A 
ATOM     14  C   UNL     1      -3.036  -2.417   4.010  0.00  0.00    +0.033 A 
ATOM     15  C   UNL     1      -2.689  -3.156   5.134  0.00  0.00    -0.027 A 
ATOM     16  C   UNL     1      -1.239  -3.437   5.435  0.00  0.00    +0.046 C 
ENDBRANCH   2  14
ENDBRANCH   1   7
BRANCH   1  17
ATOM     17  C   UNL     1      -0.018   1.503   0.010  0.00  0.00    -0.053 A 
ATOM     18  C   UNL     1      -1.225   2.177   0.020  0.00  0.00    +0.005 A 
ATOM     19  C   UNL     1      -1.245   3.559   0.033  0.00  0.00    +0.038 A 
ATOM     20  C   UNL     1      -0.056   4.268   0.025  0.00  0.00    +0.123 A 
ATOM     21  C   UNL     1       1.152   3.591   0.010  0.00  0.00    +0.038 A 
ATOM     22  C   UNL     1       1.170   2.210   0.003  0.00  0.00    +0.005 A 
ATOM     23  F   UNL     1      -0.074   5.619   0.032  0.00  0.00    -0.205 F 
ENDBRANCH   1  17
BRANCH   1  24
ATOM     24  C   UNL     1      -0.251  -0.502  -1.398  0.00  0.00    +0.142 A 
ATOM     25  N   UNL     1      -1.401  -0.518  -2.026  0.00  0.00    -0.115 NA
ATOM     26  N   UNL     1      -1.207  -1.016  -3.199  0.00  0.00    -0.023 NA
ATOM     27  N   UNL     1       0.037  -1.319  -3.334  0.00  0.00    -0.044 NA
ATOM     28  N   UNL     1       0.661  -1.012  -2.247  0.00  0.00    -0.228 N 
BRANCH  28  29
ATOM     29  C   UNL     1       2.091  -1.188  -1.984  0.00  0.00    +0.175 C 
BRANCH  29  30
ATOM     30  C   UNL     1       2.332  -2.571  -1.376  0.00  0.00    +0.183 C 
BRANCH  30  31
ATOM     31  O   UNL     1       3.727  -2.743  -1.120  0.00  0.00    -0.381 OA
ATOM     32  C   UNL     1       4.061  -4.009  -0.548  0.00  0.00    +0.194 C 
ENDBRANCH  30  31
ENDBRANCH  29  30
ENDBRANCH  28  29
ENDBRANCH   1  24
TORSDOF 7
