REMARK  Name = ZINC09474170
REMARK  6 active torsions:
REMARK  status: ('A' for Active; 'I' for Inactive)
REMARK    1  A    between atoms: C_1  and  C_2
REMARK    2  A    between atoms: C_7  and  N_8
REMARK    3  A    between atoms: C_20  and  S_22
REMARK    4  A    between atoms: S_22  and  C_23
REMARK    5  A    between atoms: C_23  and  C_24
REMARK    6  A    between atoms: C_29  and  C_33
REMARK                            x       y       z     vdW  Elec       q    Type
REMARK                         _______ _______ _______ _____ _____    ______ ____
ROOT
ATOM      1  N   UNL     1       0.025  -0.014   2.418  0.00  0.00    -0.281 N 
ATOM      2  C   UNL     1      -1.172   0.301   3.023  0.00  0.00    +0.159 A 
ATOM      3  C   UNL     1      -1.084   0.988   4.230  0.00  0.00    +0.100 A 
ATOM      4  C   UNL     1      -2.221   1.368   4.949  0.00  0.00    +0.158 A 
ATOM      5  N   UNL     1      -2.401   2.011   6.091  0.00  0.00    -0.226 NA
ATOM      6  C   UNL     1      -3.720   2.127   6.349  0.00  0.00    +0.090 A 
ATOM      7  C   UNL     1      -4.441   2.706   7.400  0.00  0.00    +0.030 A 
ATOM      8  C   UNL     1      -5.806   2.668   7.392  0.00  0.00    +0.002 A 
ATOM      9  C   UNL     1      -6.490   2.060   6.349  0.00  0.00    +0.002 A 
ATOM     10  C   UNL     1      -5.801   1.482   5.303  0.00  0.00    +0.028 A 
ATOM     11  C   UNL     1      -4.414   1.510   5.292  0.00  0.00    +0.076 A 
ATOM     12  N   UNL     1      -3.453   1.038   4.419  0.00  0.00    -0.270 N 
ATOM     13  C   UNL     1      -3.501   0.364   3.232  0.00  0.00    +0.178 A 
ATOM     14  N   UNL     1      -2.424   0.017   2.577  0.00  0.00    -0.204 NA
ATOM     15  S   UNL     1       0.665   1.167   4.473  0.00  0.00    -0.056 S 
ATOM     16  C   UNL     1       1.198   0.331   2.987  0.00  0.00    +0.132 A 
ATOM     17  S   UNL     1       2.790   0.043   2.427  0.00  0.00    -0.024 S 
ENDROOT
BRANCH   1  24
ATOM     18  C   UNL     1      -0.018   1.503   0.010  0.00  0.00    +0.046 C 
ATOM     19  C   UNL     1       0.002  -0.004   0.002  0.00  0.00    -0.027 A 
ATOM     20  C   UNL     1       0.006  -0.689  -1.198  0.00  0.00    +0.005 A 
ATOM     21  C   UNL     1       0.025  -2.071  -1.206  0.00  0.00    +0.000 A 
ATOM     22  C   UNL     1       0.040  -2.773  -0.014  0.00  0.00    +0.002 A 
ATOM     23  C   UNL     1       0.036  -2.094   1.188  0.00  0.00    +0.026 A 
ATOM     24  C   UNL     1       0.023  -0.705   1.200  0.00  0.00    +0.052 A 
ENDBRANCH   1  24
BRANCH  13  25
ATOM     25  S   UNL     1      -5.074  -0.057   2.559  0.00  0.00    -0.078 S 
BRANCH  25  26
ATOM     26  C   UNL     1      -4.673  -0.922   1.016  0.00  0.00    +0.173 C 
BRANCH  26  27
ATOM     27  C   UNL     1      -5.948  -1.342   0.330  0.00  0.00    +0.229 C 
ATOM     28  O   UNL     1      -7.021  -1.083   0.833  0.00  0.00    -0.275 OA
ATOM     29  N   UNL     1      -5.896  -2.005  -0.842  0.00  0.00    -0.268 N 
ATOM     30  C   UNL     1      -7.082  -2.396  -1.479  0.00  0.00    +0.147 A 
ATOM     31  C   UNL     1      -8.385  -2.158  -1.015  0.00  0.00    +0.068 A 
ATOM     32  C   UNL     1      -9.248  -2.689  -1.910  0.00  0.00    +0.035 A 
ATOM     33  N   UNL     1      -8.524  -3.243  -2.905  0.00  0.00    -0.280 N 
ATOM     34  H   UNL     1      -8.880  -3.697  -3.684  0.00  0.00    +0.189 HD
ATOM     35  N   UNL     1      -7.168  -3.043  -2.618  0.00  0.00    -0.158 NA
ATOM     36  C   UNL     1     -10.752  -2.667  -1.813  0.00  0.00    +0.065 C 
ATOM     37  H   UNL     1      -5.038  -2.212  -1.244  0.00  0.00    +0.156 HD
ENDBRANCH  26  27
ENDBRANCH  25  26
ENDBRANCH  13  25
TORSDOF 4
