REMARK  Name = ZINC03378441
REMARK  8 active torsions:
REMARK  status: ('A' for Active; 'I' for Inactive)
REMARK    1  A    between atoms: C_3  and  C_9
REMARK    2  A    between atoms: N_11  and  C_12
REMARK    3  A    between atoms: C_12  and  C_13
REMARK    4  A    between atoms: N_15  and  C_16
REMARK    5  A    between atoms: C_16  and  C_17
REMARK    6  A    between atoms: C_17  and  O_19
REMARK    7  A    between atoms: O_19  and  C_20
REMARK    8  A    between atoms: C_20  and  C_21
REMARK                            x       y       z     vdW  Elec       q    Type
REMARK                         _______ _______ _______ _____ _____    ______ ____
ROOT
ATOM      1  C   UNL     1       5.335   8.062  -0.009  0.00  0.00    +0.225 C 
ENDROOT
BRANCH   1   4
ATOM      2  C   UNL     1       4.606   5.737  -0.013  0.00  0.00    +0.231 C 
ATOM      3  O   UNL     1       3.458   6.127   0.000  0.00  0.00    -0.274 OA
ATOM      4  N   UNL     1       5.620   6.625  -0.018  0.00  0.00    -0.304 N 
ATOM      5  H   UNL     1       6.538   6.312  -0.029  0.00  0.00    +0.149 HD
BRANCH   2   6
ATOM      6  C   UNL     1       4.899   4.259  -0.023  0.00  0.00    +0.200 C 
BRANCH   6   9
ATOM      7  C   UNL     1       3.655   2.163  -0.022  0.00  0.00    +0.246 C 
ATOM      8  O   UNL     1       4.715   1.568  -0.035  0.00  0.00    -0.270 OA
ATOM      9  N   UNL     1       3.639   3.511  -0.015  0.00  0.00    -0.303 N 
ATOM     10  H   UNL     1       2.793   3.986  -0.004  0.00  0.00    +0.150 HD
BRANCH   7  13
ATOM     11  C   UNL     1      -0.017   1.381   0.010  0.00  0.00    +0.021 A 
ATOM     12  C   UNL     1       1.166   2.090   0.002  0.00  0.00    +0.016 A 
ATOM     13  C   UNL     1       2.385   1.410  -0.013  0.00  0.00    +0.055 A 
ATOM     14  C   UNL     1       2.398   0.012  -0.021  0.00  0.00    +0.054 A 
ATOM     15  C   UNL     1       1.207  -0.686  -0.013  0.00  0.00    +0.040 A 
ATOM     16  C   UNL     1       0.002  -0.004   0.002  0.00  0.00    +0.042 A 
ATOM     17 CL   UNL     1      -1.492  -0.889   0.011  0.00  0.00    -0.083 Cl
ATOM     18 CL   UNL     1       3.908  -0.844  -0.040  0.00  0.00    -0.083 Cl
ENDBRANCH   7  13
ENDBRANCH   6   9
ENDBRANCH   2   6
ENDBRANCH   1   4
BRANCH   1  19
ATOM     19  C   UNL     1       6.631   8.831  -0.017  0.00  0.00    +0.325 C 
ATOM     20  O   UNL     1       7.684   8.239  -0.030  0.00  0.00    -0.249 OA
BRANCH  19  21
ATOM     21  O   UNL     1       6.615  10.173  -0.010  0.00  0.00    -0.459 OA
BRANCH  21  22
ATOM     22  C   UNL     1       7.880  10.837  -0.019  0.00  0.00    +0.268 C 
BRANCH  22  23
ATOM     23  C   UNL     1       7.665  12.329  -0.010  0.00  0.00    +0.007 A 
ATOM     24  C   UNL     1       6.413  12.852   0.011  0.00  0.00    +0.099 A 
ATOM     25  C   UNL     1       6.239  14.253   0.019  0.00  0.00    +0.338 A 
ATOM     26  O   UNL     1       5.110  14.710   0.038  0.00  0.00    -0.245 OA
ATOM     27  O   UNL     1       7.285  15.094   0.008  0.00  0.00    -0.422 OA
ATOM     28  C   UNL     1       8.556  14.638  -0.012  0.00  0.00    +0.140 A 
ATOM     29  C   UNL     1       8.802  13.254  -0.016  0.00  0.00    +0.024 A 
ATOM     30  C   UNL     1      10.117  12.781  -0.032  0.00  0.00    +0.015 A 
ATOM     31  C   UNL     1      11.168  13.675  -0.037  0.00  0.00    -0.043 A 
ATOM     32  C   UNL     1      10.924  15.041  -0.027  0.00  0.00    -0.041 A 
ATOM     33  C   UNL     1       9.627  15.520  -0.021  0.00  0.00    +0.051 A 
ATOM     34  C   UNL     1      12.239  15.793  -0.035  0.00  0.00    +0.036 C 
ATOM     35  C   UNL     1      13.300  14.756   0.390  0.00  0.00    +0.009 C 
ATOM     36  C   UNL     1      12.661  13.423  -0.054  0.00  0.00    +0.036 C 
ENDBRANCH  22  23
ENDBRANCH  21  22
ENDBRANCH  19  21
ENDBRANCH   1  19
TORSDOF 8
