REMARK  Name = ZINC40115581
REMARK  8 active torsions:
REMARK  status: ('A' for Active; 'I' for Inactive)
REMARK    1  A    between atoms: C_1  and  C_2
REMARK    2  A    between atoms: C_2  and  O_3
REMARK    3  A    between atoms: O_3  and  C_4
REMARK    4  A    between atoms: C_4  and  C_6
REMARK    5  A    between atoms: C_10  and  N_11
REMARK    6  A    between atoms: C_12  and  C_14
REMARK    7  A    between atoms: C_15  and  C_24
REMARK    8  A    between atoms: N_26  and  C_29
REMARK                            x       y       z     vdW  Elec       q    Type
REMARK                         _______ _______ _______ _____ _____    ______ ____
ROOT
ATOM      1  C   UNL     1      -2.842  -2.416   0.016  0.00  0.00    +0.091 A 
ATOM      2  C   UNL     1      -3.547  -2.713  -1.215  0.00  0.00    -0.025 A 
ATOM      3  C   UNL     1      -4.779  -3.243  -1.037  0.00  0.00    -0.021 A 
ATOM      4  S   UNL     1      -4.976  -3.337   0.716  0.00  0.00    -0.079 S 
ATOM      5  C   UNL     1      -3.497  -2.709   1.206  0.00  0.00    +0.087 A 
ATOM      6  C   UNL     1      -5.733  -3.642  -2.119  0.00  0.00    -0.036 C 
ATOM      7  N   UNL     1      -5.287  -3.024  -3.381  0.00  0.00    +0.381 N 
ATOM      8  C   UNL     1      -3.861  -3.306  -3.592  0.00  0.00    -0.074 C 
ATOM      9  C   UNL     1      -3.010  -2.481  -2.620  0.00  0.00    +0.018 C 
ATOM     10  C   UNL     1      -6.065  -3.577  -4.498  0.00  0.00    -0.096 C 
ATOM     11  H   UNL     1      -5.429  -2.026  -3.335  0.00  0.00    -0.082 HD
ENDROOT
BRANCH   5  12
ATOM     12  N   UNL     1      -3.037  -2.524   2.498  0.00  0.00    -0.273 N 
ATOM     13  C   UNL     1      -3.813  -2.868   3.545  0.00  0.00    +0.284 C 
ATOM     14  O   UNL     1      -4.917  -3.341   3.354  0.00  0.00    -0.266 OA
ATOM     15  H   UNL     1      -2.156  -2.147   2.650  0.00  0.00    +0.156 HD
BRANCH  13  16
ATOM     16  C   UNL     1      -3.325  -2.672   4.917  0.00  0.00    +0.194 A 
ATOM     17  C   UNL     1      -4.014  -2.985   6.044  0.00  0.00    +0.008 A 
ATOM     18  C   UNL     1      -3.147  -2.621   7.164  0.00  0.00    +0.024 A 
ATOM     19  C   UNL     1      -3.270  -2.691   8.554  0.00  0.00    +0.013 A 
ATOM     20  C   UNL     1      -2.247  -2.255   9.347  0.00  0.00    +0.016 A 
ATOM     21  C   UNL     1      -1.087  -1.743   8.781  0.00  0.00    +0.021 A 
ATOM     22  C   UNL     1      -0.946  -1.666   7.412  0.00  0.00    +0.062 A 
ATOM     23  C   UNL     1      -1.973  -2.103   6.585  0.00  0.00    +0.137 A 
ATOM     24  O   UNL     1      -2.121  -2.158   5.246  0.00  0.00    -0.450 OA
ATOM     25 BR   UNL     1       0.315  -1.145   9.901  0.00  0.00    -0.050 Br
ATOM     26  C   UNL     1      -5.394  -3.586   6.125  0.00  0.00    +0.048 C 
ENDBRANCH  13  16
ENDBRANCH   5  12
BRANCH   1  27
ATOM     27  C   UNL     1      -1.497  -1.838   0.006  0.00  0.00    +0.342 C 
ATOM     28  O   UNL     1      -0.522  -2.566  -0.007  0.00  0.00    -0.245 OA
BRANCH  27  29
ATOM     29  O   UNL     1      -1.339  -0.499   0.012  0.00  0.00    -0.461 OA
BRANCH  29  31
ATOM     30  C   UNL     1      -0.019   1.526   0.010  0.00  0.00    +0.048 C 
ATOM     31  C   UNL     1       0.002  -0.004   0.002  0.00  0.00    +0.229 C 
ENDBRANCH  29  31
ENDBRANCH  27  29
ENDBRANCH   1  27
TORSDOF 5
