REMARK  Name = ZINC12453191
REMARK  11 active torsions:
REMARK  status: ('A' for Active; 'I' for Inactive)
REMARK    1  A    between atoms: C_1  and  C_2
REMARK    2  A    between atoms: C_5  and  N_8
REMARK    3  A    between atoms: C_10  and  C_20
REMARK    4  A    between atoms: C_11  and  C_13
REMARK    5  A    between atoms: C_17  and  C_19
REMARK    6  A    between atoms: C_20  and  N_54
REMARK    7  A    between atoms: C_21  and  C_22
REMARK    8  A    between atoms: C_21  and  N_54
REMARK    9  A    between atoms: C_22  and  S_23
REMARK   10  A    between atoms: S_23  and  C_24
REMARK   11  A    between atoms: N_28  and  C_29
REMARK                            x       y       z     vdW  Elec       q    Type
REMARK                         _______ _______ _______ _____ _____    ______ ____
ROOT
ATOM      1  N   UNL     1       1.075   1.891   0.002  0.00  0.00    -0.239 N 
ATOM      2  C   UNL     1      -0.013   1.076   0.008  0.00  0.00    +0.116 A 
ATOM      3  C   UNL     1      -1.115   1.856   0.017  0.00  0.00    -0.019 A 
ATOM      4  C   UNL     1      -0.694   3.201   0.026  0.00  0.00    +0.094 A 
ATOM      5  N   UNL     1       0.623   3.216   0.013  0.00  0.00    -0.166 NA
ENDROOT
BRANCH   1  10
ATOM      6  C   UNL     1       6.497   0.217  -0.057  0.00  0.00    +0.044 C 
ATOM      7  C   UNL     1       5.057   0.661  -0.041  0.00  0.00    -0.050 A 
ATOM      8  C   UNL     1       4.751   2.010  -0.031  0.00  0.00    +0.005 A 
ATOM      9  C   UNL     1       3.433   2.420  -0.017  0.00  0.00    +0.028 A 
ATOM     10  C   UNL     1       2.413   1.477  -0.012  0.00  0.00    +0.065 A 
ATOM     11  C   UNL     1       2.724   0.124  -0.016  0.00  0.00    +0.028 A 
ATOM     12  C   UNL     1       4.044  -0.280  -0.036  0.00  0.00    +0.005 A 
ENDBRANCH   1  10
BRANCH   4  13
ATOM     13  C   UNL     1      -1.579   4.391   0.041  0.00  0.00    +0.003 A 
ATOM     14  C   UNL     1      -2.793   4.368  -0.644  0.00  0.00    +0.010 A 
ATOM     15  C   UNL     1      -3.615   5.477  -0.623  0.00  0.00    +0.001 A 
ATOM     16  C   UNL     1      -3.231   6.613   0.068  0.00  0.00    +0.003 A 
ATOM     17  C   UNL     1      -2.026   6.643   0.744  0.00  0.00    -0.050 A 
ATOM     18  C   UNL     1      -1.198   5.538   0.734  0.00  0.00    +0.013 A 
ATOM     19  C   UNL     1      -1.614   7.884   1.493  0.00  0.00    +0.044 C 
ENDBRANCH   4  13
BRANCH   3  20
ATOM     20  C   UNL     1      -2.543   1.374   0.020  0.00  0.00    -0.043 C 
BRANCH  20  21
ATOM     21  N   UNL     1      -3.084   1.456  -1.350  0.00  0.00    +0.382 N 
ATOM     22  H   UNL     1      -2.518   0.867  -1.973  0.00  0.00    -0.085 HD
ATOM     23  H   UNL     1      -3.046   2.430  -1.672  0.00  0.00    -0.085 HD
BRANCH  21  24
ATOM     24  C   UNL     1      -4.483   0.989  -1.377  0.00  0.00    -0.071 C 
BRANCH  24  25
ATOM     25  C   UNL     1      -5.016   1.085  -2.807  0.00  0.00    +0.058 C 
BRANCH  25  26
ATOM     26  S   UNL     1      -6.733   0.514  -2.851  0.00  0.00    -0.086 S 
BRANCH  26  27
ATOM     27  C   UNL     1      -7.083   0.726  -4.565  0.00  0.00    +0.209 A 
ATOM     28  N   UNL     1      -6.256   1.181  -5.481  0.00  0.00    -0.102 NA
ATOM     29  N   UNL     1      -6.828   1.210  -6.630  0.00  0.00    -0.022 NA
ATOM     30  N   UNL     1      -8.041   0.783  -6.537  0.00  0.00    -0.043 NA
ATOM     31  N   UNL     1      -8.252   0.447  -5.188  0.00  0.00    -0.223 N 
ATOM     32  C   UNL     1      -9.475  -0.090  -4.586  0.00  0.00    +0.177 C 
ENDBRANCH  26  27
ENDBRANCH  25  26
ENDBRANCH  24  25
ENDBRANCH  21  24
ENDBRANCH  20  21
ENDBRANCH   3  20
TORSDOF 8
