REMARK  Name = ZINC14545099
REMARK  4 active torsions:
REMARK  status: ('A' for Active; 'I' for Inactive)
REMARK    1  A    between atoms: C_7  and  C_11
REMARK    2  A    between atoms: C_24  and  O_27
REMARK    3  A    between atoms: O_27  and  C_28
REMARK    4  A    between atoms: C_28  and  C_29
REMARK                            x       y       z     vdW  Elec       q    Type
REMARK                         _______ _______ _______ _____ _____    ______ ____
ROOT
ATOM      1  C   UNL     1       0.643   3.233  -2.061  0.00  0.00    +0.107 C 
ATOM      2  C   UNL     1       0.643   3.349  -0.534  0.00  0.00    +0.029 C 
ATOM      3  C   UNL     1       1.137   1.994   0.045  0.00  0.00    +0.033 C 
ATOM      4  C   UNL     1      -0.107   1.127   0.029  0.00  0.00    -0.030 C 
ATOM      5  C   UNL     1      -1.184   1.870  -0.015  0.00  0.00    -0.023 C 
ATOM      6  C   UNL     1      -0.816   3.336  -0.031  0.00  0.00    +0.049 C 
ATOM      7  C   UNL     1      -1.724   4.096  -0.952  0.00  0.00    -0.016 A 
ATOM      8  C   UNL     1      -3.037   4.305  -0.547  0.00  0.00    +0.006 A 
ATOM      9  C   UNL     1      -3.923   4.991  -1.351  0.00  0.00    +0.004 A 
ATOM     10  C   UNL     1      -3.509   5.481  -2.577  0.00  0.00    +0.047 A 
ATOM     11  C   UNL     1      -2.205   5.281  -2.990  0.00  0.00    +0.142 A 
ATOM     12  C   UNL     1      -1.305   4.586  -2.175  0.00  0.00    +0.074 A 
ATOM     13  N   UNL     1       0.002   4.415  -2.639  0.00  0.00    -0.334 N 
ATOM     14  H   UNL     1       0.026   4.383  -3.647  0.00  0.00    +0.147 HD
ENDROOT
BRANCH   1  21
ATOM     15  C   UNL     1       1.886  -1.247  -2.662  0.00  0.00    +0.001 A 
ATOM     16  C   UNL     1       0.827  -2.054  -3.054  0.00  0.00    +0.002 A 
ATOM     17  C   UNL     1      -0.434  -1.526  -3.222  0.00  0.00    +0.026 A 
ATOM     18  C   UNL     1      -0.649  -0.168  -3.008  0.00  0.00    +0.047 A 
ATOM     19  C   UNL     1       0.428   0.646  -2.613  0.00  0.00    +0.005 A 
ATOM     20  C   UNL     1       1.697   0.088  -2.442  0.00  0.00    +0.010 A 
ATOM     21  C   UNL     1      -0.118   1.998  -2.470  0.00  0.00    -0.002 A 
ATOM     22  C   UNL     1      -1.422   1.929  -2.778  0.00  0.00    +0.089 A 
ATOM     23  N   UNL     1      -1.758   0.642  -3.102  0.00  0.00    -0.360 N 
ATOM     24  H   UNL     1      -2.645   0.346  -3.359  0.00  0.00    +0.165 HD
ENDBRANCH   1  21
BRANCH  11  25
ATOM     25  O   UNL     1      -1.795   5.762  -4.194  0.00  0.00    -0.488 OA
BRANCH  25  26
ATOM     26  C   UNL     1      -2.764   6.462  -4.977  0.00  0.00    +0.260 C 
BRANCH  26  27
ATOM     27  C   UNL     1      -2.123   6.925  -6.287  0.00  0.00    +0.156 C 
ATOM     28  C   UNL     1      -3.128   7.780  -7.088  0.00  0.00    +0.037 C 
ATOM     29  C   UNL     1      -2.866   7.317  -8.547  0.00  0.00    +0.031 C 
ATOM     30  C   UNL     1      -2.521   5.823  -8.324  0.00  0.00    +0.160 C 
ATOM     31  O   UNL     1      -1.786   5.788  -7.091  0.00  0.00    -0.373 OA
ENDBRANCH  26  27
ENDBRANCH  25  26
ENDBRANCH  11  25
TORSDOF 4
