REMARK  Name = ZINC36743104
REMARK  6 active torsions:
REMARK  status: ('A' for Active; 'I' for Inactive)
REMARK    1  A    between atoms: C_1  and  C_2
REMARK    2  A    between atoms: C_5  and  N_20
REMARK    3  A    between atoms: C_6  and  N_9
REMARK    4  A    between atoms: C_7  and  C_8
REMARK    5  A    between atoms: N_9  and  S_10
REMARK    6  A    between atoms: S_10  and  C_13
REMARK                            x       y       z     vdW  Elec       q    Type
REMARK                         _______ _______ _______ _____ _____    ______ ____
ROOT
ATOM      1  N   UNL     1       0.932  -2.738   2.208  0.00  0.00    -0.214 N 
ATOM      2  H   UNL     1       0.435  -2.684   3.039  0.00  0.00    +0.174 HD
ENDROOT
BRANCH   1   8
ATOM      3  C   UNL     1       0.248   1.671   0.144  0.00  0.00    +0.044 C 
ATOM      4  C   UNL     1       0.194   0.166   0.075  0.00  0.00    -0.046 A 
ATOM      5  C   UNL     1      -0.245  -0.456  -1.079  0.00  0.00    +0.005 A 
ATOM      6  C   UNL     1      -0.297  -1.836  -1.149  0.00  0.00    +0.025 A 
ATOM      7  C   UNL     1       0.093  -2.600  -0.059  0.00  0.00    +0.047 A 
ATOM      8  C   UNL     1       0.537  -1.972   1.105  0.00  0.00    +0.072 A 
ATOM      9  C   UNL     1       0.590  -0.588   1.164  0.00  0.00    -0.023 A 
ATOM     10  C   UNL     1       1.074   0.094   2.418  0.00  0.00    +0.046 C 
BRANCH   7  11
ATOM     11  N   UNL     1       0.042  -3.997  -0.128  0.00  0.00    -0.356 N 
ATOM     12  H   UNL     1      -0.025  -4.439  -0.989  0.00  0.00    +0.142 HD
ATOM     13  H   UNL     1       0.072  -4.524   0.686  0.00  0.00    +0.142 HD
ENDBRANCH   7  11
ENDBRANCH   1   8
BRANCH   1  14
ATOM     14  S   UNL     1       2.248  -3.737   2.095  0.00  0.00    +0.072 S 
ATOM     15  O   UNL     1       2.390  -4.367   3.361  0.00  0.00    -0.150 OA
ATOM     16  O   UNL     1       2.095  -4.475   0.890  0.00  0.00    -0.150 OA
BRANCH  14  17
ATOM     17  C   UNL     1       3.664  -2.711   1.881  0.00  0.00    +0.109 A 
ATOM     18  C   UNL     1       4.142  -2.449   0.611  0.00  0.00    +0.030 A 
ATOM     19  C   UNL     1       5.253  -1.644   0.443  0.00  0.00    +0.017 A 
ATOM     20  C   UNL     1       5.886  -1.100   1.546  0.00  0.00    +0.018 A 
ATOM     21  C   UNL     1       5.407  -1.363   2.817  0.00  0.00    +0.017 A 
ATOM     22  C   UNL     1       4.293  -2.164   2.984  0.00  0.00    +0.030 A 
ATOM     23 BR   UNL     1       7.406   0.001   1.317  0.00  0.00    -0.050 Br
ENDBRANCH  14  17
ENDBRANCH   1  14
TORSDOF 4
