REMARK  Name = ZINC09712025
REMARK  9 active torsions:
REMARK  status: ('A' for Active; 'I' for Inactive)
REMARK    1  A    between atoms: C_4  and  N_13
REMARK    2  A    between atoms: C_5  and  C_7
REMARK    3  A    between atoms: N_9  and  C_10
REMARK    4  A    between atoms: C_14  and  C_16
REMARK    5  A    between atoms: C_16  and  S_17
REMARK    6  A    between atoms: S_17  and  C_18
REMARK    7  A    between atoms: C_21  and  C_30
REMARK    8  A    between atoms: N_22  and  C_23
REMARK    9  A    between atoms: C_23  and  C_24
REMARK                            x       y       z     vdW  Elec       q    Type
REMARK                         _______ _______ _______ _____ _____    ______ ____
ROOT
ATOM      1  S   UNL     1      -3.748   0.200   3.173  0.00  0.00    -0.077 S 
ENDROOT
BRANCH   1   2
ATOM      2  C   UNL     1      -2.533   1.162   4.011  0.00  0.00    +0.192 A 
ATOM      3  N   UNL     1      -2.714   1.861   5.110  0.00  0.00    -0.122 NA
ATOM      4  N   UNL     1      -1.619   2.441   5.449  0.00  0.00    -0.128 NA
ATOM      5  C   UNL     1      -0.670   2.144   4.592  0.00  0.00    +0.165 A 
ATOM      6  N   UNL     1      -1.228   1.320   3.642  0.00  0.00    -0.300 N 
BRANCH   5   7
ATOM      7  C   UNL     1       0.732   2.609   4.637  0.00  0.00    +0.019 A 
ATOM      8  C   UNL     1       1.274   3.086   5.832  0.00  0.00    +0.014 A 
ATOM      9  C   UNL     1       2.584   3.516   5.870  0.00  0.00    +0.039 A 
ATOM     10  C   UNL     1       3.360   3.483   4.722  0.00  0.00    +0.123 A 
ATOM     11  C   UNL     1       2.826   3.014   3.532  0.00  0.00    +0.039 A 
ATOM     12  C   UNL     1       1.518   2.579   3.484  0.00  0.00    +0.014 A 
ATOM     13  F   UNL     1       4.641   3.909   4.763  0.00  0.00    -0.205 F 
ENDBRANCH   5   7
BRANCH   6  14
ATOM     14  C   UNL     1      -0.559   0.730   2.479  0.00  0.00    +0.157 C 
BRANCH  14  15
ATOM     15  C   UNL     1      -0.786   1.619   1.255  0.00  0.00    +0.138 C 
ATOM     16  C   UNL     1       0.013   1.087   0.038  0.00  0.00    +0.035 C 
ATOM     17  C   UNL     1      -0.794   1.655  -1.155  0.00  0.00    +0.031 C 
ATOM     18  C   UNL     1      -2.184   1.954  -0.562  0.00  0.00    +0.160 C 
ATOM     19  O   UNL     1      -2.160   1.540   0.815  0.00  0.00    -0.375 OA
ENDBRANCH  14  15
ENDBRANCH   6  14
ENDBRANCH   1   2
BRANCH   1  20
ATOM     20  C   UNL     1      -5.175   0.489   4.248  0.00  0.00    +0.173 C 
BRANCH  20  22
ATOM     21  N   UNL     1      -7.551  -0.190   4.353  0.00  0.00    -0.284 N 
ATOM     22  C   UNL     1      -6.368  -0.258   3.711  0.00  0.00    +0.228 C 
ATOM     23  O   UNL     1      -6.264  -0.921   2.701  0.00  0.00    -0.275 OA
ATOM     24  H   UNL     1      -7.656   0.402   5.115  0.00  0.00    +0.155 HD
BRANCH  21  28
ATOM     25  C   UNL     1     -10.759  -2.523   3.066  0.00  0.00    +0.001 A 
ATOM     26  C   UNL     1      -9.465  -3.013   2.991  0.00  0.00    +0.002 A 
ATOM     27  C   UNL     1      -8.401  -2.240   3.411  0.00  0.00    +0.024 A 
ATOM     28  C   UNL     1      -8.623  -0.969   3.923  0.00  0.00    +0.046 A 
ATOM     29  C   UNL     1      -9.932  -0.471   4.001  0.00  0.00    +0.058 A 
ATOM     30  C   UNL     1     -10.998  -1.262   3.566  0.00  0.00    +0.015 A 
BRANCH  29  31
ATOM     31  C   UNL     1     -10.181   0.880   4.538  0.00  0.00    +0.246 C 
ATOM     32  O   UNL     1      -9.263   1.530   4.998  0.00  0.00    -0.270 OA
ATOM     33  N   UNL     1     -11.427   1.394   4.518  0.00  0.00    -0.308 N 
ATOM     34  H   UNL     1     -12.160   0.876   4.150  0.00  0.00    +0.149 HD
BRANCH  33  35
ATOM     35  C   UNL     1     -11.675   2.736   5.051  0.00  0.00    +0.073 C 
ATOM     36  C   UNL     1     -12.910   2.929   5.933  0.00  0.00    +0.024 C 
ATOM     37  C   UNL     1     -12.887   3.498   4.512  0.00  0.00    +0.024 C 
ENDBRANCH  33  35
ENDBRANCH  29  31
ENDBRANCH  21  28
ENDBRANCH  20  22
ENDBRANCH   1  20
TORSDOF 9
