REMARK  Name = ZINC35913298
REMARK  6 active torsions:
REMARK  status: ('A' for Active; 'I' for Inactive)
REMARK    1  A    between atoms: C_1  and  C_2
REMARK    2  A    between atoms: C_5  and  C_24
REMARK    3  A    between atoms: C_6  and  C_8
REMARK    4  A    between atoms: N_11  and  C_14
REMARK    5  A    between atoms: C_14  and  C_15
REMARK    6  A    between atoms: C_18  and  N_21
REMARK                            x       y       z     vdW  Elec       q    Type
REMARK                         _______ _______ _______ _____ _____    ______ ____
ROOT
ATOM      1  C   UNL     1      -0.086   1.524   0.100  0.00  0.00    +0.065 C 
ATOM      2  C   UNL     1      -0.052   0.019   0.042  0.00  0.00    +0.039 A 
ATOM      3  C   UNL     1      -0.055  -0.616  -1.187  0.00  0.00    +0.024 A 
ATOM      4  C   UNL     1      -0.024  -1.998  -1.236  0.00  0.00    +0.016 A 
ATOM      5  C   UNL     1       0.011  -2.704  -0.028  0.00  0.00    +0.058 A 
ATOM      6  C   UNL     1       0.012  -1.990   1.170  0.00  0.00    +0.057 A 
ATOM      7  N   UNL     1      -0.013  -0.673   1.165  0.00  0.00    -0.256 NA
ENDROOT
BRANCH   5   8
ATOM      8  C   UNL     1       0.045  -4.182  -0.022  0.00  0.00    +0.248 C 
ATOM      9  O   UNL     1      -0.787  -4.807   0.608  0.00  0.00    -0.270 OA
ATOM     10  N   UNL     1       0.997  -4.837  -0.714  0.00  0.00    -0.297 N 
ATOM     11  C   UNL     1       2.084  -4.101  -1.374  0.00  0.00    +0.108 C 
ATOM     12  C   UNL     1       3.424  -4.679  -0.907  0.00  0.00    +0.023 C 
ATOM     13  C   UNL     1       3.443  -6.188  -1.164  0.00  0.00    -0.005 C 
ATOM     14  C   UNL     1       4.795  -6.756  -0.725  0.00  0.00    +0.004 C 
ATOM     15  C   UNL     1       4.821  -8.265  -0.974  0.00  0.00    +0.000 C 
ATOM     16  C   UNL     1       3.704  -8.932  -0.169  0.00  0.00    +0.000 C 
ATOM     17  C   UNL     1       2.353  -8.368  -0.612  0.00  0.00    +0.005 C 
ATOM     18  C   UNL     1       2.321  -6.858  -0.368  0.00  0.00    +0.010 C 
ATOM     19  C   UNL     1       0.974  -6.302  -0.820  0.00  0.00    +0.112 C 
ENDBRANCH   5   8
BRANCH   6  20
ATOM     20  C   UNL     1       0.049  -2.731   2.482  0.00  0.00    +0.035 C 
ATOM     21  C   UNL     1       1.226  -2.226   3.322  0.00  0.00    -0.009 C 
ATOM     22  C   UNL     1       1.210  -2.925   4.684  0.00  0.00    -0.078 C 
ATOM     23  N   UNL     1      -0.050  -2.629   5.375  0.00  0.00    +0.382 N 
ATOM     24  C   UNL     1      -1.178  -3.174   4.610  0.00  0.00    -0.078 C 
ATOM     25  C   UNL     1      -1.255  -2.484   3.247  0.00  0.00    -0.009 C 
ATOM     26  H   UNL     1      -0.157  -1.630   5.465  0.00  0.00    -0.081 HD
BRANCH  23  27
ATOM     27  C   UNL     1      -0.028  -3.238   6.712  0.00  0.00    -0.043 C 
BRANCH  27  28
ATOM     28  C   UNL     1      -1.266  -2.833   7.469  0.00  0.00    -0.064 A 
ATOM     29  C   UNL     1      -1.262  -1.685   8.239  0.00  0.00    +0.004 A 
ATOM     30  C   UNL     1      -2.398  -1.314   8.934  0.00  0.00    +0.033 A 
ATOM     31  C   UNL     1      -3.539  -2.091   8.858  0.00  0.00    +0.126 A 
ATOM     32  C   UNL     1      -3.544  -3.239   8.087  0.00  0.00    +0.033 A 
ATOM     33  C   UNL     1      -2.409  -3.607   7.389  0.00  0.00    +0.004 A 
BRANCH  31  34
ATOM     34  N   UNL     1      -4.755  -1.694   9.602  0.00  0.00    +0.056 N 
ATOM     35  O   UNL     1      -4.751  -0.691  10.276  0.00  0.00    -0.126 OA
ATOM     36  O   UNL     1      -5.753  -2.374   9.536  0.00  0.00    -0.126 OA
ENDBRANCH  31  34
ENDBRANCH  27  28
ENDBRANCH  23  27
ENDBRANCH   6  20
TORSDOF 5
