REMARK  Name = ZINC13417787
REMARK  5 active torsions:
REMARK  status: ('A' for Active; 'I' for Inactive)
REMARK    1  A    between atoms: C_1  and  C_2
REMARK    2  A    between atoms: N_7  and  C_10
REMARK    3  A    between atoms: C_10  and  C_11
REMARK    4  A    between atoms: N_13  and  C_14
REMARK    5  A    between atoms: C_23  and  C_24
REMARK                            x       y       z     vdW  Elec       q    Type
REMARK                         _______ _______ _______ _____ _____    ______ ____
ROOT
ATOM      1  C   UNL     1       4.390  -0.597   3.590  0.00  0.00    +0.046 C 
ATOM      2  C   UNL     1       4.766  -0.914   2.166  0.00  0.00    -0.015 A 
ATOM      3  C   UNL     1       4.063  -0.332   1.109  0.00  0.00    +0.076 A 
ATOM      4  C   UNL     1       4.492  -0.692  -0.189  0.00  0.00    +0.116 A 
ATOM      5  N   UNL     1       3.908  -0.208  -1.278  0.00  0.00    -0.230 NA
ATOM      6  C   UNL     1       2.906   0.625  -1.204  0.00  0.00    +0.203 A 
ATOM      7  N   UNL     1       2.407   1.043  -0.015  0.00  0.00    -0.290 N 
ATOM      8  C   UNL     1       2.929   0.619   1.152  0.00  0.00    +0.263 A 
ATOM      9  O   UNL     1       2.476   1.005   2.216  0.00  0.00    -0.267 OA
ATOM     10  S   UNL     1       5.836  -1.809   0.121  0.00  0.00    -0.062 S 
ATOM     11  C   UNL     1       5.796  -1.771   1.905  0.00  0.00    +0.106 A 
ENDROOT
BRANCH  11  12
ATOM     12  C   UNL     1       6.655  -2.484   2.853  0.00  0.00    +0.393 C 
ATOM     13  O   UNL     1       6.488  -2.343   4.050  0.00  0.00    -0.240 OA
ATOM     14  O   UNL     1       7.631  -3.297   2.400  0.00  0.00    -0.240 OA
ENDBRANCH  11  12
BRANCH   7  15
ATOM     15  C   UNL     1       1.280   1.980   0.001  0.00  0.00    +0.221 C 
BRANCH  15  16
ATOM     16  C   UNL     1      -0.014   1.209   0.009  0.00  0.00    +0.233 C 
ATOM     17  O   UNL     1       0.002  -0.004   0.002  0.00  0.00    -0.274 OA
ATOM     18  N   UNL     1      -1.191   1.867   0.018  0.00  0.00    -0.309 N 
ATOM     19  H   UNL     1      -1.204   2.837   0.023  0.00  0.00    +0.149 HD
BRANCH  18  20
ATOM     20  C   UNL     1      -2.449   1.117   0.020  0.00  0.00    +0.095 C 
ATOM     21  C   UNL     1      -2.854   0.779  -1.425  0.00  0.00    +0.046 C 
ATOM     22  C   UNL     1      -4.319   0.279  -1.458  0.00  0.00    +0.168 C 
ATOM     23  S   UNL     1      -5.069   1.127  -0.009  0.00  0.00    -0.029 S 
ATOM     24  O   UNL     1      -5.492   0.149   0.931  0.00  0.00    -0.174 OA
ATOM     25  O   UNL     1      -5.995   2.100  -0.471  0.00  0.00    -0.174 OA
ATOM     26  C   UNL     1      -3.577   1.985   0.648  0.00  0.00    +0.188 C 
ENDBRANCH  18  20
ENDBRANCH  15  16
ENDBRANCH   7  15
TORSDOF 4
