REMARK  Name = ZINC21321618
REMARK  7 active torsions:
REMARK  status: ('A' for Active; 'I' for Inactive)
REMARK    1  A    between atoms: C_3  and  C_8
REMARK    2  A    between atoms: N_9  and  N_10
REMARK    3  A    between atoms: C_14  and  S_17
REMARK    4  A    between atoms: N_15  and  N_16
REMARK    5  A    between atoms: S_17  and  C_18
REMARK    6  A    between atoms: C_18  and  C_19
REMARK    7  A    between atoms: C_19  and  C_21
REMARK                            x       y       z     vdW  Elec       q    Type
REMARK                         _______ _______ _______ _____ _____    ______ ____
ROOT
ATOM      1  N   UNL     1       3.596   5.955  -0.002  0.00  0.00    -0.204 N 
ATOM      2  C   UNL     1       3.573   7.343   0.005  0.00  0.00    +0.254 A 
ATOM      3  N   UNL     1       2.499   8.095   0.014  0.00  0.00    -0.109 NA
ATOM      4  N   UNL     1       2.909   9.434   0.021  0.00  0.00    -0.119 NA
ATOM      5  C   UNL     1       4.221   9.457   0.009  0.00  0.00    +0.210 A 
ATOM      6  N   UNL     1       4.665   8.165  -0.001  0.00  0.00    -0.211 N 
ATOM      7  H   UNL     1       4.558   5.422  -0.014  0.00  0.00    +0.177 HD
ENDROOT
BRANCH   6   8
ATOM      8  N   UNL     1       5.971   7.765  -0.015  0.00  0.00    -0.294 N 
ATOM      9  H   UNL     1       6.776   8.515  -0.019  0.00  0.00    +0.163 HD
ATOM     10  H   UNL     1       6.218   6.693  -0.022  0.00  0.00    +0.163 HD
ENDBRANCH   6   8
BRANCH   1  12
ATOM     11  C   UNL     1       2.417   3.936  -0.001  0.00  0.00    +0.138 C 
ATOM     12  N   UNL     1       2.395   5.234   0.006  0.00  0.00    -0.188 NA
BRANCH  11  15
ATOM     13  C   UNL     1      -0.013   1.076   0.008  0.00  0.00    +0.002 A 
ATOM     14  C   UNL     1       1.174   1.780   0.000  0.00  0.00    +0.009 A 
ATOM     15  C   UNL     1       1.153   3.177   0.008  0.00  0.00    -0.004 A 
ATOM     16  C   UNL     1      -0.070   3.851   0.022  0.00  0.00    +0.029 A 
ATOM     17  C   UNL     1      -1.249   3.134   0.030  0.00  0.00    +0.042 A 
ATOM     18  C   UNL     1      -1.221   1.749   0.017  0.00  0.00    +0.020 A 
ATOM     19 CL   UNL     1      -2.771   3.969   0.048  0.00  0.00    -0.084 Cl
ENDBRANCH  11  15
ENDBRANCH   1  12
BRANCH   5  20
ATOM     20  S   UNL     1       5.232  10.900   0.007  0.00  0.00    -0.076 S 
BRANCH  20  21
ATOM     21  C   UNL     1       4.043  12.269   0.024  0.00  0.00    +0.157 C 
BRANCH  21  22
ATOM     22  C   UNL     1       4.786  13.580   0.024  0.00  0.00    +0.173 C 
ATOM     23  O   UNL     1       5.999  13.589   0.013  0.00  0.00    -0.291 OA
BRANCH  22  24
ATOM     24  C   UNL     1       4.041  14.848   0.037  0.00  0.00    +0.018 A 
ATOM     25  C   UNL     1       2.642  14.841   0.044  0.00  0.00    +0.012 A 
ATOM     26  C   UNL     1       1.951  16.034   0.063  0.00  0.00    +0.016 A 
ATOM     27  C   UNL     1       2.637  17.237   0.062  0.00  0.00    +0.018 A 
ATOM     28  C   UNL     1       4.022  17.251   0.049  0.00  0.00    +0.016 A 
ATOM     29  C   UNL     1       4.728  16.067   0.036  0.00  0.00    +0.012 A 
ATOM     30 BR   UNL     1       1.679  18.867   0.079  0.00  0.00    -0.050 Br
ENDBRANCH  22  24
ENDBRANCH  21  22
ENDBRANCH  20  21
ENDBRANCH   5  20
TORSDOF 7
