REMARK  Name = ZINC66727486
REMARK  9 active torsions:
REMARK  status: ('A' for Active; 'I' for Inactive)
REMARK    1  A    between atoms: C_1  and  C_2
REMARK    2  A    between atoms: C_2  and  C_3
REMARK    3  A    between atoms: C_2  and  C_4
REMARK    4  A    between atoms: C_2  and  C_5
REMARK    5  A    between atoms: C_14  and  C_16
REMARK    6  A    between atoms: C_16  and  C_17
REMARK    7  A    between atoms: C_16  and  C_18
REMARK    8  A    between atoms: C_16  and  N_19
REMARK    9  A    between atoms: N_22  and  C_23
REMARK                            x       y       z     vdW  Elec       q    Type
REMARK                         _______ _______ _______ _____ _____    ______ ____
ROOT
ATOM      1  C   UNL     1      -0.414  -0.125  -1.186  0.00  0.00    +0.221 C 
ATOM      2  O   UNL     1       0.097   0.808  -1.769  0.00  0.00    -0.275 OA
ATOM      3  N   UNL     1      -0.245  -1.381  -1.645  0.00  0.00    -0.299 N 
ATOM      4  C   UNL     1       0.476  -1.643  -2.842  0.00  0.00    +0.109 C 
ATOM      5  C   UNL     1      -0.365  -1.504  -4.153  0.00  0.00    +0.038 C 
ATOM      6  C   UNL     1      -1.794  -2.063  -3.849  0.00  0.00    +0.109 C 
ATOM      7  N   UNL     1      -1.815  -3.207  -3.006  0.00  0.00    -0.298 N 
ATOM      8  C   UNL     1      -2.048  -2.973  -1.557  0.00  0.00    +0.126 C 
ATOM      9  C   UNL     1      -0.798  -2.553  -0.919  0.00  0.00    +0.126 C 
ATOM     10  C   UNL     1      -1.634  -4.448  -3.498  0.00  0.00    +0.239 C 
ATOM     11  O   UNL     1      -1.286  -4.598  -4.650  0.00  0.00    -0.273 OA
ENDROOT
BRANCH   1  13
ATOM     12  C   UNL     1      -1.459   1.624   0.227  0.00  0.00    +0.020 C 
ATOM     13  C   UNL     1      -1.239   0.120   0.051  0.00  0.00    +0.039 C 
ATOM     14  C   UNL     1      -0.502  -0.434   1.272  0.00  0.00    +0.020 C 
ATOM     15  C   UNL     1      -2.591  -0.580  -0.090  0.00  0.00    +0.020 C 
ENDBRANCH   1  13
BRANCH  10  16
ATOM     16  C   UNL     1      -1.864  -5.649  -2.618  0.00  0.00    +0.107 C 
ATOM     17  C   UNL     1      -3.365  -5.926  -2.514  0.00  0.00    +0.041 C 
ATOM     18  C   UNL     1      -1.161  -6.866  -3.221  0.00  0.00    +0.041 C 
BRANCH  16  19
ATOM     19  N   UNL     1      -1.323  -5.386  -1.282  0.00  0.00    -0.286 N 
ATOM     20  C   UNL     1      -1.341  -6.354  -0.344  0.00  0.00    +0.300 C 
ATOM     21  O   UNL     1      -1.806  -7.446  -0.608  0.00  0.00    -0.253 OA
ATOM     22  N   UNL     1      -0.843  -6.112   0.884  0.00  0.00    -0.302 N 
ATOM     23  C   UNL     1      -0.863  -7.165   1.903  0.00  0.00    +0.129 C 
ATOM     24  H   UNL     1      -0.952  -4.514  -1.072  0.00  0.00    +0.151 HD
ATOM     25  H   UNL     1      -0.472  -5.240   1.095  0.00  0.00    +0.150 HD
ENDBRANCH  16  19
ENDBRANCH  10  16
TORSDOF 3
