REMARK  Name = ZINC19234520
REMARK  7 active torsions:
REMARK  status: ('A' for Active; 'I' for Inactive)
REMARK    1  A    between atoms: C_1  and  C_2
REMARK    2  A    between atoms: C_6  and  C_8
REMARK    3  A    between atoms: C_8  and  O_28
REMARK    4  A    between atoms: N_11  and  C_14
REMARK    5  A    between atoms: C_14  and  C_15
REMARK    6  A    between atoms: C_18  and  N_22
REMARK    7  A    between atoms: C_20  and  C_21
REMARK                            x       y       z     vdW  Elec       q    Type
REMARK                         _______ _______ _______ _____ _____    ______ ____
ROOT
ATOM      1  C   UNL     1      -0.572   3.257   1.220  0.00  0.00    +0.088 C 
ATOM      2  C   UNL     1      -0.634   1.728   1.268  0.00  0.00    +0.021 C 
ATOM      3  C   UNL     1       0.028   1.156   0.013  0.00  0.00    -0.075 C 
ATOM      4  N   UNL     1      -0.670   1.655  -1.180  0.00  0.00    +0.383 N 
ATOM      5  C   UNL     1      -0.584   3.118  -1.272  0.00  0.00    -0.075 C 
ATOM      6  C   UNL     1      -1.263   3.748  -0.055  0.00  0.00    +0.021 C 
ATOM      7  H   UNL     1      -1.732   1.387  -1.083  0.00  0.00    -0.081 HD
ENDROOT
BRANCH   1  13
ATOM      8  C   UNL     1      -0.435   4.866   5.957  0.00  0.00    +0.044 C 
ATOM      9  C   UNL     1      -1.208   4.599   4.692  0.00  0.00    -0.050 A 
ATOM     10  C   UNL     1      -2.561   4.878   4.636  0.00  0.00    +0.003 A 
ATOM     11  C   UNL     1      -3.270   4.634   3.475  0.00  0.00    +0.001 A 
ATOM     12  C   UNL     1      -2.626   4.113   2.368  0.00  0.00    +0.006 A 
ATOM     13  C   UNL     1      -1.274   3.829   2.425  0.00  0.00    -0.016 A 
ATOM     14  C   UNL     1      -0.565   4.074   3.586  0.00  0.00    +0.009 A 
ENDBRANCH   1  13
BRANCH   1  15
ATOM     15  O   UNL     1       0.792   3.680   1.217  0.00  0.00    -0.384 OA
ATOM     16  H   UNL     1       1.466   3.360   0.409  0.00  0.00    +0.211 HD
ENDBRANCH   1  15
BRANCH   4  17
ATOM     17  C   UNL     1      -0.151   1.018  -2.398  0.00  0.00    -0.043 C 
BRANCH  17  18
ATOM     18  C   UNL     1      -0.819   1.625  -3.605  0.00  0.00    -0.061 A 
ATOM     19  C   UNL     1      -0.116   2.497  -4.417  0.00  0.00    +0.004 A 
ATOM     20  C   UNL     1      -0.725   3.054  -5.524  0.00  0.00    +0.023 A 
ATOM     21  C   UNL     1      -2.045   2.738  -5.821  0.00  0.00    +0.030 A 
ATOM     22  C   UNL     1      -2.747   1.862  -5.004  0.00  0.00    +0.026 A 
ATOM     23  C   UNL     1      -2.130   1.304  -3.902  0.00  0.00    -0.047 A 
ATOM     24  C   UNL     1      -2.890   0.348  -3.018  0.00  0.00    +0.044 C 
BRANCH  21  25
ATOM     25  N   UNL     1      -2.664   3.300  -6.941  0.00  0.00    -0.326 N 
ATOM     26  C   UNL     1      -3.182   2.255  -7.836  0.00  0.00    +0.133 C 
ATOM     27  C   UNL     1      -3.903   2.913  -9.015  0.00  0.00    +0.178 C 
ATOM     28  O   UNL     1      -3.002   3.800  -9.683  0.00  0.00    -0.377 OA
ATOM     29  C   UNL     1      -2.478   4.831  -8.841  0.00  0.00    +0.178 C 
ATOM     30  C   UNL     1      -1.743   4.192  -7.659  0.00  0.00    +0.133 C 
ENDBRANCH  21  25
ENDBRANCH  17  18
ENDBRANCH   4  17
TORSDOF 5
