REMARK  Name = ZINC36586383
REMARK  14 active torsions:
REMARK  status: ('A' for Active; 'I' for Inactive)
REMARK    1  A    between atoms: C_1  and  C_2
REMARK    2  A    between atoms: C_5  and  S_8
REMARK    3  A    between atoms: S_8  and  C_11
REMARK    4  A    between atoms: C_11  and  N_12
REMARK    5  A    between atoms: C_13  and  C_15
REMARK    6  A    between atoms: C_15  and  C_17
REMARK    7  A    between atoms: C_15  and  N_24
REMARK    8  A    between atoms: C_22  and  C_23
REMARK    9  A    between atoms: N_24  and  C_34
REMARK   10  A    between atoms: C_25  and  C_27
REMARK   11  A    between atoms: C_30  and  O_33
REMARK   12  A    between atoms: C_34  and  C_35
REMARK   13  A    between atoms: C_34  and  C_36
REMARK   14  A    between atoms: C_34  and  C_37
REMARK                            x       y       z     vdW  Elec       q    Type
REMARK                         _______ _______ _______ _____ _____    ______ ____
ROOT
ATOM      1  C   UNL     1       1.915  -6.684   2.944  0.00  0.00    +0.193 C 
ENDROOT
BRANCH   1   2
ATOM      2  C   UNL     1       1.303  -5.346   3.270  0.00  0.00    -0.015 A 
ATOM      3  C   UNL     1      -0.071  -5.215   3.350  0.00  0.00    +0.006 A 
ATOM      4  C   UNL     1      -0.632  -3.987   3.650  0.00  0.00    +0.000 A 
ATOM      5  C   UNL     1       0.181  -2.891   3.869  0.00  0.00    +0.000 A 
ATOM      6  C   UNL     1       1.555  -3.022   3.790  0.00  0.00    +0.004 A 
ATOM      7  C   UNL     1       2.116  -4.251   3.495  0.00  0.00    -0.045 A 
ATOM      8  C   UNL     1       3.614  -4.395   3.414  0.00  0.00    +0.044 C 
ENDBRANCH   1   2
BRANCH   1  10
ATOM      9  N   UNL     1       0.991  -7.096   0.687  0.00  0.00    -0.294 N 
ATOM     10  C   UNL     1       1.015  -7.429   1.992  0.00  0.00    +0.239 C 
ATOM     11  O   UNL     1       0.311  -8.328   2.401  0.00  0.00    -0.273 OA
ATOM     12  H   UNL     1       1.518  -6.346   0.368  0.00  0.00    +0.150 HD
BRANCH   9  13
ATOM     13  C   UNL     1       0.170  -7.865  -0.251  0.00  0.00    +0.278 C 
BRANCH  13  14
ATOM     14  S   UNL     1      -1.436  -7.049  -0.459  0.00  0.00    +0.013 S 
ATOM     15  O   UNL     1      -1.977  -6.702   0.808  0.00  0.00    -0.168 OA
ATOM     16  O   UNL     1      -2.221  -7.749  -1.415  0.00  0.00    -0.168 OA
BRANCH  14  21
ATOM     17  C   UNL     1      -0.166  -1.768  -3.086  0.00  0.00    +0.044 C 
ATOM     18  C   UNL     1      -0.483  -3.087  -2.430  0.00  0.00    -0.050 A 
ATOM     19  C   UNL     1      -0.746  -4.199  -3.207  0.00  0.00    +0.005 A 
ATOM     20  C   UNL     1      -1.037  -5.409  -2.605  0.00  0.00    +0.027 A 
ATOM     21  C   UNL     1      -1.065  -5.507  -1.226  0.00  0.00    +0.090 A 
ATOM     22  C   UNL     1      -0.801  -4.394  -0.450  0.00  0.00    +0.027 A 
ATOM     23  C   UNL     1      -0.505  -3.185  -1.051  0.00  0.00    +0.005 A 
ENDBRANCH  14  21
ENDBRANCH  13  14
ENDBRANCH   9  13
ENDBRANCH   1  10
BRANCH   1  24
ATOM     24  N   UNL     1       2.074  -7.461   4.176  0.00  0.00    -0.277 N 
ATOM     25  C   UNL     1       2.262  -8.794   4.111  0.00  0.00    +0.248 C 
ATOM     26  O   UNL     1       2.325  -9.449   5.134  0.00  0.00    -0.270 OA
BRANCH  25  27
ATOM     27  C   UNL     1       2.392  -9.459   2.800  0.00  0.00    +0.037 A 
ATOM     28  C   UNL     1       2.746  -8.717   1.670  0.00  0.00    +0.016 A 
ATOM     29  C   UNL     1       2.866  -9.341   0.449  0.00  0.00    +0.046 A 
ATOM     30  C   UNL     1       2.635 -10.707   0.338  0.00  0.00    +0.117 A 
ATOM     31  C   UNL     1       2.282 -11.449   1.459  0.00  0.00    +0.046 A 
ATOM     32  C   UNL     1       2.165 -10.833   2.686  0.00  0.00    +0.016 A 
BRANCH  30  33
ATOM     33  O   UNL     1       2.753 -11.318  -0.868  0.00  0.00    -0.507 OA
ATOM     34  H   UNL     1       3.642 -11.653  -1.053  0.00  0.00    +0.292 HD
ENDBRANCH  30  33
ENDBRANCH  25  27
BRANCH  24  35
ATOM     35  C   UNL     1       2.028  -6.790   5.477  0.00  0.00    +0.030 C 
ATOM     36  C   UNL     1       0.864  -5.798   5.498  0.00  0.00    +0.031 C 
ATOM     37  C   UNL     1       1.831  -7.830   6.581  0.00  0.00    +0.031 C 
ATOM     38  C   UNL     1       3.341  -6.040   5.710  0.00  0.00    +0.031 C 
ENDBRANCH  24  35
ENDBRANCH   1  24
TORSDOF 9
