REMARK  Name = ZINC08836810
REMARK  11 active torsions:
REMARK  status: ('A' for Active; 'I' for Inactive)
REMARK    1  A    between atoms: C_1  and  C_2
REMARK    2  A    between atoms: C_5  and  C_8
REMARK    3  A    between atoms: C_11  and  C_12
REMARK    4  A    between atoms: C_11  and  O_24
REMARK    5  A    between atoms: C_15  and  S_18
REMARK    6  A    between atoms: S_18  and  N_21
REMARK    7  A    between atoms: N_21  and  C_22
REMARK    8  A    between atoms: N_21  and  C_23
REMARK    9  A    between atoms: N_29  and  C_30
REMARK   10  A    between atoms: C_30  and  C_31
REMARK   11  A    between atoms: C_31  and  N_69
REMARK                            x       y       z     vdW  Elec       q    Type
REMARK                         _______ _______ _______ _____ _____    ______ ____
ROOT
ATOM      1  C   UNL     1      -4.381   4.186   6.613  0.00  0.00    +0.144 C 
ATOM      2  C   UNL     1      -3.660   3.651   5.397  0.00  0.00    +0.071 C 
ATOM      3  C   UNL     1      -2.315   3.366   5.290  0.00  0.00    +0.133 C 
ATOM      4  C   UNL     1      -4.638   3.496   4.401  0.00  0.00    +0.249 C 
ATOM      5  O   UNL     1      -4.448   3.081   3.272  0.00  0.00    -0.282 OA
ATOM      6  C   UNL     1      -5.946   3.927   4.964  0.00  0.00    +0.288 C 
ATOM      7  O   UNL     1      -7.000   3.918   4.361  0.00  0.00    -0.266 OA
ATOM      8  N   UNL     1      -5.791   4.327   6.237  0.00  0.00    -0.285 N 
ENDROOT
BRANCH   1  13
ATOM      9  C   UNL     1      -2.215   9.335   8.090  0.00  0.00    +0.044 C 
ATOM     10  C   UNL     1      -2.780   7.992   7.705  0.00  0.00    -0.050 A 
ATOM     11  C   UNL     1      -2.410   6.860   8.406  0.00  0.00    +0.004 A 
ATOM     12  C   UNL     1      -2.928   5.628   8.053  0.00  0.00    +0.006 A 
ATOM     13  C   UNL     1      -3.816   5.529   6.998  0.00  0.00    -0.022 A 
ATOM     14  C   UNL     1      -4.182   6.660   6.293  0.00  0.00    +0.006 A 
ATOM     15  C   UNL     1      -3.668   7.893   6.650  0.00  0.00    +0.004 A 
ENDBRANCH   1  13
BRANCH   3  16
ATOM     16  C   UNL     1      -1.743   2.994   3.984  0.00  0.00    +0.017 A 
ATOM     17  C   UNL     1      -1.984   3.788   2.859  0.00  0.00    +0.013 A 
ATOM     18  C   UNL     1      -1.444   3.434   1.640  0.00  0.00    +0.029 A 
ATOM     19  C   UNL     1      -0.665   2.295   1.529  0.00  0.00    +0.105 A 
ATOM     20  C   UNL     1      -0.427   1.500   2.637  0.00  0.00    +0.029 A 
ATOM     21  C   UNL     1      -0.955   1.845   3.864  0.00  0.00    +0.013 A 
BRANCH  19  22
ATOM     22  S   UNL     1       0.020   1.851  -0.032  0.00  0.00    +0.060 S 
ATOM     23  O   UNL     1      -0.802   2.453  -1.022  0.00  0.00    -0.153 OA
ATOM     24  O   UNL     1       0.258   0.451   0.013  0.00  0.00    -0.153 OA
BRANCH  22  25
ATOM     25  N   UNL     1       1.503   2.580  -0.141  0.00  0.00    -0.183 NA
ATOM     26  C   UNL     1       2.699   1.883   0.338  0.00  0.00    +0.131 C 
ATOM     27  C   UNL     1       1.619   3.922  -0.717  0.00  0.00    +0.131 C 
ENDBRANCH  22  25
ENDBRANCH  19  22
ENDBRANCH   3  16
BRANCH   3  28
ATOM     28  O   UNL     1      -1.522   3.429   6.381  0.00  0.00    -0.506 OA
ATOM     29  H   UNL     1      -0.585   3.194   6.125  0.00  0.00    +0.292 HD
ENDBRANCH   3  28
BRANCH   8  30
ATOM     30  C   UNL     1      -6.859   4.817   7.111  0.00  0.00    +0.090 C 
BRANCH  30  31
ATOM     31  C   UNL     1      -7.479   3.641   7.868  0.00  0.00    -0.060 C 
BRANCH  31  37
ATOM     32  C   UNL     1      -8.010   4.992   9.806  0.00  0.00    -0.079 C 
ATOM     33  C   UNL     1      -9.162   5.601  10.608  0.00  0.00    -0.019 C 
ATOM     34  C   UNL     1     -10.005   4.476  11.216  0.00  0.00    -0.004 C 
ATOM     35  C   UNL     1     -10.516   3.569  10.094  0.00  0.00    -0.019 C 
ATOM     36  C   UNL     1      -9.324   3.019   9.307  0.00  0.00    -0.079 C 
ATOM     37  N   UNL     1      -8.569   4.150   8.727  0.00  0.00    +0.381 N 
ATOM     38  H   UNL     1      -9.205   4.718   8.157  0.00  0.00    -0.082 HD
ENDBRANCH  31  37
ENDBRANCH  30  31
ENDBRANCH   8  30
TORSDOF 8
