REMARK  Name = ZINC04244676
REMARK  8 active torsions:
REMARK  status: ('A' for Active; 'I' for Inactive)
REMARK    1  A    between atoms: C_1  and  C_2
REMARK    2  A    between atoms: C_5  and  C_8
REMARK    3  A    between atoms: C_8  and  C_10
REMARK    4  A    between atoms: C_8  and  O_31
REMARK    5  A    between atoms: C_15  and  N_16
REMARK    6  A    between atoms: N_16  and  S_17
REMARK    7  A    between atoms: S_17  and  C_20
REMARK    8  A    between atoms: C_23  and  C_26
REMARK                            x       y       z     vdW  Elec       q    Type
REMARK                         _______ _______ _______ _____ _____    ______ ____
ROOT
ATOM      1  C   UNL     1      -1.387   1.954   0.258  0.00  0.00    +0.011 A 
ATOM      2  C   UNL     1      -1.515   3.317   0.444  0.00  0.00    +0.057 A 
ATOM      3  C   UNL     1      -0.386   4.114   0.549  0.00  0.00    +0.163 A 
ATOM      4  C   UNL     1       0.878   3.540   0.475  0.00  0.00    +0.164 A 
ATOM      5  C   UNL     1       1.006   2.172   0.292  0.00  0.00    +0.074 A 
ATOM      6  C   UNL     1      -0.127   1.377   0.186  0.00  0.00    +0.058 A 
ATOM      7  O   UNL     1       1.999   4.306   0.584  0.00  0.00    -0.485 OA
ATOM      8  C   UNL     1       1.836   5.716   0.394  0.00  0.00    +0.270 C 
ATOM      9  C   UNL     1       0.614   6.172   1.202  0.00  0.00    +0.270 C 
ATOM     10  O   UNL     1      -0.531   5.457   0.724  0.00  0.00    -0.485 OA
ENDROOT
BRANCH   6  11
ATOM     11  N   UNL     1       0.002  -0.004   0.002  0.00  0.00    -0.216 N 
ATOM     12  H   UNL     1      -0.647  -0.484  -0.536  0.00  0.00    +0.174 HD
BRANCH  11  13
ATOM     13  S   UNL     1       1.262  -0.819   0.703  0.00  0.00    +0.072 S 
ATOM     14  O   UNL     1       1.040  -2.200   0.454  0.00  0.00    -0.150 OA
ATOM     15  O   UNL     1       2.451  -0.153   0.299  0.00  0.00    -0.150 OA
BRANCH  13  16
ATOM     16  C   UNL     1       1.125  -0.592   2.445  0.00  0.00    +0.109 A 
ATOM     17  C   UNL     1       1.753   0.477   3.054  0.00  0.00    +0.029 A 
ATOM     18  C   UNL     1       1.642   0.658   4.420  0.00  0.00    +0.005 A 
ATOM     19  C   UNL     1       0.909  -0.237   5.178  0.00  0.00    -0.050 A 
ATOM     20  C   UNL     1       0.285  -1.309   4.569  0.00  0.00    +0.005 A 
ATOM     21  C   UNL     1       0.393  -1.487   3.203  0.00  0.00    +0.029 A 
ATOM     22  C   UNL     1       0.792  -0.043   6.668  0.00  0.00    +0.044 C 
ENDBRANCH  13  16
ENDBRANCH  11  13
ENDBRANCH   6  11
BRANCH   1  23
ATOM     23  C   UNL     1      -2.618   1.091   0.138  0.00  0.00    +0.177 C 
BRANCH  23  28
ATOM     24  C   UNL     1      -3.936  -1.109   5.316  0.00  0.00    +0.044 C 
ATOM     25  C   UNL     1      -3.593  -0.535   3.966  0.00  0.00    -0.050 A 
ATOM     26  C   UNL     1      -2.831  -1.270   3.076  0.00  0.00    +0.004 A 
ATOM     27  C   UNL     1      -2.515  -0.743   1.838  0.00  0.00    +0.007 A 
ATOM     28  C   UNL     1      -2.962   0.517   1.488  0.00  0.00    -0.015 A 
ATOM     29  C   UNL     1      -3.720   1.254   2.380  0.00  0.00    +0.007 A 
ATOM     30  C   UNL     1      -4.040   0.725   3.616  0.00  0.00    +0.004 A 
ENDBRANCH  23  28
BRANCH  23  31
ATOM     31  O   UNL     1      -3.709   1.883  -0.335  0.00  0.00    -0.382 OA
ATOM     32  H   UNL     1      -3.936   2.625   0.241  0.00  0.00    +0.211 HD
ENDBRANCH  23  31
ENDBRANCH   1  23
TORSDOF 6
