REMARK  Name = ZINC18086856
REMARK  10 active torsions:
REMARK  status: ('A' for Active; 'I' for Inactive)
REMARK    1  A    between atoms: C_1  and  O_2
REMARK    2  A    between atoms: O_2  and  C_3
REMARK    3  A    between atoms: C_6  and  C_13
REMARK    4  A    between atoms: C_7  and  O_11
REMARK    5  A    between atoms: C_8  and  O_9
REMARK    6  A    between atoms: O_9  and  C_10
REMARK    7  A    between atoms: O_11  and  C_12
REMARK    8  A    between atoms: N_21  and  C_24
REMARK    9  A    between atoms: C_27  and  N_30
REMARK   10  A    between atoms: N_34  and  C_35
REMARK                            x       y       z     vdW  Elec       q    Type
REMARK                         _______ _______ _______ _____ _____    ______ ____
ROOT
ATOM      1  C   UNL     1       2.509  -2.494  -4.394  0.00  0.00    +0.161 C 
ATOM      2  C   UNL     1       1.493  -2.799  -5.487  0.00  0.00    +0.146 C 
ATOM      3  C   UNL     1       2.469  -2.644  -6.715  0.00  0.00    +0.249 C 
ATOM      4  C   UNL     1       1.735  -3.333  -7.758  0.00  0.00    +0.259 C 
ATOM      5  O   UNL     1       1.718  -3.071  -8.941  0.00  0.00    -0.272 OA
ATOM      6  N   UNL     1       1.065  -4.345  -7.121  0.00  0.00    -0.208 N 
ATOM      7  C   UNL     1       1.055  -4.207  -5.749  0.00  0.00    +0.235 C 
ATOM      8  O   UNL     1       0.762  -5.044  -4.923  0.00  0.00    -0.274 OA
ATOM      9  O   UNL     1       3.087  -1.452  -6.462  0.00  0.00    -0.257 OA
ATOM     10  N   UNL     1       3.463  -1.555  -5.051  0.00  0.00    -0.244 N 
ENDROOT
BRANCH   1  14
ATOM     11  C   UNL     1       0.606  -0.608  -1.056  0.00  0.00    +0.165 A 
ATOM     12  C   UNL     1       1.173   0.160  -2.063  0.00  0.00    +0.050 A 
ATOM     13  C   UNL     1       1.787  -0.452  -3.139  0.00  0.00    +0.013 A 
ATOM     14  C   UNL     1       1.838  -1.831  -3.217  0.00  0.00    +0.024 A 
ATOM     15  C   UNL     1       1.274  -2.606  -2.216  0.00  0.00    +0.170 A 
ATOM     16  C   UNL     1       0.661  -1.994  -1.128  0.00  0.00    +0.204 A 
BRANCH  11  18
ATOM     17  C   UNL     1      -0.017   1.425   0.010  0.00  0.00    +0.277 C 
ATOM     18  O   UNL     1       0.002  -0.004   0.002  0.00  0.00    -0.491 OA
ENDBRANCH  11  18
BRANCH  16  19
ATOM     19  O   UNL     1       0.111  -2.751  -0.140  0.00  0.00    -0.488 OA
ATOM     20  C   UNL     1      -1.260  -3.123  -0.295  0.00  0.00    +0.277 C 
ENDBRANCH  16  19
BRANCH  15  21
ATOM     21  O   UNL     1       1.325  -3.963  -2.294  0.00  0.00    -0.491 OA
ATOM     22  C   UNL     1       2.456  -4.605  -1.704  0.00  0.00    +0.277 C 
ENDBRANCH  15  21
ENDBRANCH   1  14
BRANCH   6  23
ATOM     23  C   UNL     1       0.441  -5.405  -7.792  0.00  0.00    +0.044 A 
ATOM     24  C   UNL     1      -0.224  -6.389  -7.072  0.00  0.00    +0.026 A 
ATOM     25  C   UNL     1      -0.839  -7.432  -7.737  0.00  0.00    +0.034 A 
ATOM     26  C   UNL     1      -0.792  -7.498  -9.117  0.00  0.00    +0.126 A 
ATOM     27  C   UNL     1      -0.130  -6.520  -9.836  0.00  0.00    +0.034 A 
ATOM     28  C   UNL     1       0.481  -5.471  -9.178  0.00  0.00    +0.026 A 
BRANCH  26  29
ATOM     29  N   UNL     1      -1.452  -8.618  -9.826  0.00  0.00    +0.056 N 
ATOM     30  O   UNL     1      -2.031  -9.474  -9.198  0.00  0.00    -0.126 OA
ATOM     31  O   UNL     1      -1.412  -8.677 -11.033  0.00  0.00    -0.126 OA
ENDBRANCH  26  29
ENDBRANCH   6  23
BRANCH  10  32
ATOM     32  C   UNL     1       4.519  -0.887  -4.427  0.00  0.00    +0.065 A 
ATOM     33  C   UNL     1       4.758  -1.075  -3.072  0.00  0.00    +0.028 A 
ATOM     34  C   UNL     1       5.803  -0.414  -2.458  0.00  0.00    +0.002 A 
ATOM     35  C   UNL     1       6.610   0.437  -3.190  0.00  0.00    +0.000 A 
ATOM     36  C   UNL     1       6.375   0.627  -4.540  0.00  0.00    +0.002 A 
ATOM     37  C   UNL     1       5.336  -0.036  -5.161  0.00  0.00    +0.028 A 
ENDBRANCH  10  32
TORSDOF 7
