REMARK  Name = ZINC01088417
REMARK  6 active torsions:
REMARK  status: ('A' for Active; 'I' for Inactive)
REMARK    1  A    between atoms: C_1  and  C_2
REMARK    2  A    between atoms: N_11  and  C_35
REMARK    3  A    between atoms: C_17  and  C_19
REMARK    4  A    between atoms: C_19  and  S_20
REMARK    5  A    between atoms: S_20  and  C_21
REMARK    6  A    between atoms: N_25  and  C_26
REMARK                            x       y       z     vdW  Elec       q    Type
REMARK                         _______ _______ _______ _____ _____    ______ ____
ROOT
ATOM      1  C   UNL     1      -0.000   1.503   0.011  0.00  0.00    +0.044 C 
ATOM      2  C   UNL     1       0.016  -0.004   0.002  0.00  0.00    -0.050 A 
ATOM      3  C   UNL     1       0.018  -0.690  -1.198  0.00  0.00    +0.005 A 
ATOM      4  C   UNL     1       0.028  -2.069  -1.209  0.00  0.00    +0.024 A 
ATOM      5  C   UNL     1       0.033  -2.783  -0.011  0.00  0.00    +0.040 A 
ATOM      6  C   UNL     1       0.042  -2.084   1.189  0.00  0.00    -0.023 A 
ATOM      7  C   UNL     1       0.035  -0.703   1.195  0.00  0.00    +0.009 A 
ATOM      8  C   UNL     1       0.077  -3.093   2.305  0.00  0.00    +0.025 C 
ATOM      9  C   UNL     1      -0.817  -2.759   3.452  0.00  0.00    -0.069 C 
ATOM     10  N   UNL     1      -2.127  -3.377   3.423  0.00  0.00    +0.378 N 
ATOM     11  C   UNL     1      -2.054  -4.809   3.188  0.00  0.00    -0.077 C 
ATOM     12  C   UNL     1      -1.392  -5.141   1.873  0.00  0.00    +0.005 C 
ATOM     13  C   UNL     1      -0.087  -4.445   1.648  0.00  0.00    +0.085 C 
ATOM     14  N   UNL     1       0.037  -4.166   0.202  0.00  0.00    -0.267 N 
ATOM     15  C   UNL     1       0.139  -5.101  -0.763  0.00  0.00    +0.230 C 
ATOM     16  O   UNL     1       0.142  -4.770  -1.930  0.00  0.00    -0.274 OA
ATOM     17  C   UNL     1      -2.923  -2.759   2.355  0.00  0.00    -0.096 C 
ATOM     18  H   UNL     1      -2.586  -3.214   4.307  0.00  0.00    -0.082 HD
ENDROOT
BRANCH  15  19
ATOM     19  C   UNL     1       0.248  -6.558  -0.393  0.00  0.00    +0.173 C 
BRANCH  19  20
ATOM     20  S   UNL     1       0.521  -7.543  -1.892  0.00  0.00    -0.075 S 
BRANCH  20  21
ATOM     21  C   UNL     1       0.626  -9.200  -1.299  0.00  0.00    +0.214 A 
ATOM     22  N   UNL     1       0.519  -9.591  -0.048  0.00  0.00    -0.101 NA
ATOM     23  N   UNL     1       0.644 -10.866   0.037  0.00  0.00    -0.022 NA
ATOM     24  N   UNL     1       0.837 -11.377  -1.130  0.00  0.00    -0.038 NA
ATOM     25  N   UNL     1       0.827 -10.313  -2.048  0.00  0.00    -0.187 N 
BRANCH  25  26
ATOM     26  C   UNL     1       0.992 -10.386  -3.439  0.00  0.00    +0.074 A 
ATOM     27  C   UNL     1       0.302  -9.511  -4.267  0.00  0.00    +0.032 A 
ATOM     28  C   UNL     1       0.463  -9.581  -5.637  0.00  0.00    +0.051 A 
ATOM     29  C   UNL     1       1.314 -10.525  -6.190  0.00  0.00    +0.166 A 
ATOM     30  C   UNL     1       2.008 -11.404  -5.362  0.00  0.00    +0.168 A 
ATOM     31  C   UNL     1       1.851 -11.329  -3.988  0.00  0.00    +0.077 A 
ATOM     32  O   UNL     1       2.771 -12.226  -6.140  0.00  0.00    -0.453 OA
ATOM     33  C   UNL     1       2.226 -12.113  -7.468  0.00  0.00    +0.466 C 
ATOM     34  O   UNL     1       1.642 -10.797  -7.487  0.00  0.00    -0.453 OA
ENDBRANCH  25  26
ENDBRANCH  20  21
ENDBRANCH  19  20
ENDBRANCH  15  19
TORSDOF 4
