REMARK  Name = ZINC15670398
REMARK  8 active torsions:
REMARK  status: ('A' for Active; 'I' for Inactive)
REMARK    1  A    between atoms: C_1  and  C_2
REMARK    2  A    between atoms: C_2  and  O_3
REMARK    3  A    between atoms: O_3  and  C_4
REMARK    4  A    between atoms: C_5  and  C_12
REMARK    5  A    between atoms: C_9  and  O_10
REMARK    6  A    between atoms: O_10  and  C_11
REMARK    7  A    between atoms: C_20  and  C_36
REMARK    8  A    between atoms: C_25  and  C_29
REMARK                            x       y       z     vdW  Elec       q    Type
REMARK                         _______ _______ _______ _____ _____    ______ ____
ROOT
ATOM      1  C   UNL     1      -1.332   2.117   0.020  0.00  0.00    +0.067 C 
ATOM      2  C   UNL     1      -1.436   3.006  -1.224  0.00  0.00    +0.109 C 
ATOM      3  C   UNL     1      -0.584   4.235  -1.087  0.00  0.00    +0.219 C 
ATOM      4  O   UNL     1       0.013   4.648  -2.060  0.00  0.00    -0.275 OA
ATOM      5  N   UNL     1      -0.462   4.896   0.084  0.00  0.00    -0.270 N 
ATOM      6  C   UNL     1      -0.989   4.303   1.230  0.00  0.00    +0.136 A 
ATOM      7  C   UNL     1      -1.411   3.000   1.240  0.00  0.00    +0.023 A 
ATOM      8  C   UNL     1      -1.883   2.712   2.513  0.00  0.00    +0.066 A 
ATOM      9  N   UNL     1      -1.744   3.784   3.256  0.00  0.00    -0.167 NA
ATOM     10  N   UNL     1      -1.172   4.799   2.472  0.00  0.00    -0.182 N 
ATOM     11  C   UNL     1      -0.851   6.087   2.898  0.00  0.00    +0.273 A 
ATOM     12  N   UNL     1      -1.088   6.438   4.154  0.00  0.00    -0.208 NA
ATOM     13  C   UNL     1      -0.779   7.670   4.557  0.00  0.00    +0.095 A 
ATOM     14  C   UNL     1      -0.212   8.554   3.633  0.00  0.00    +0.163 A 
ATOM     15  N   UNL     1      -0.001   8.142   2.396  0.00  0.00    -0.152 NA
ATOM     16  N   UNL     1      -0.307   6.943   2.044  0.00  0.00    -0.109 NA
ATOM     17  C   UNL     1      -2.457   1.394   2.964  0.00  0.00    +0.068 C 
ATOM     18  H   UNL     1      -0.020   5.758   0.127  0.00  0.00    +0.156 HD
ENDROOT
BRANCH  13  19
ATOM     19  C   UNL     1      -1.031   8.094   5.955  0.00  0.00    +0.002 A 
ATOM     20  C   UNL     1      -1.504   7.175   6.890  0.00  0.00    +0.011 A 
ATOM     21  C   UNL     1      -1.732   7.574   8.191  0.00  0.00    +0.020 A 
ATOM     22  C   UNL     1      -1.502   8.887   8.566  0.00  0.00    +0.041 A 
ATOM     23  C   UNL     1      -1.037   9.805   7.639  0.00  0.00    +0.020 A 
ATOM     24  C   UNL     1      -0.801   9.415   6.337  0.00  0.00    +0.011 A 
ATOM     25 CL   UNL     1      -1.798   9.385  10.202  0.00  0.00    -0.084 Cl
ENDBRANCH  13  19
BRANCH   1  27
ATOM     26  C   UNL     1       0.002  -0.004   0.002  0.00  0.00    +0.166 A 
ATOM     27  C   UNL     1      -0.017   1.381   0.010  0.00  0.00    +0.006 A 
ATOM     28  C   UNL     1       1.171   2.089   0.002  0.00  0.00    +0.008 A 
ATOM     29  C   UNL     1       2.379   1.417  -0.013  0.00  0.00    +0.004 A 
ATOM     30  C   UNL     1       2.405   0.035  -0.021  0.00  0.00    +0.049 A 
ATOM     31  C   UNL     1       1.218  -0.680  -0.013  0.00  0.00    +0.162 A 
BRANCH  31  32
ATOM     32  O   UNL     1       1.242  -2.040  -0.021  0.00  0.00    -0.491 OA
ATOM     33  C   UNL     1       2.526  -2.666  -0.037  0.00  0.00    +0.277 C 
ENDBRANCH  31  32
BRANCH  26  34
ATOM     34  O   UNL     1      -1.165  -0.702   0.009  0.00  0.00    -0.488 OA
BRANCH  34  36
ATOM     35  C   UNL     1      -3.034  -1.806  -1.053  0.00  0.00    +0.048 C 
ATOM     36  C   UNL     1      -1.734  -1.027  -1.261  0.00  0.00    +0.226 C 
ENDBRANCH  34  36
ENDBRANCH  26  34
ENDBRANCH   1  27
TORSDOF 5
