REMARK  Name = ZINC39836405
REMARK  10 active torsions:
REMARK  status: ('A' for Active; 'I' for Inactive)
REMARK    1  A    between atoms: C_1  and  C_2
REMARK    2  A    between atoms: C_2  and  C_3
REMARK    3  A    between atoms: C_6  and  O_9
REMARK    4  A    between atoms: O_9  and  C_10
REMARK    5  A    between atoms: C_10  and  C_12
REMARK    6  A    between atoms: C_10  and  C_13
REMARK    7  A    between atoms: N_15  and  C_16
REMARK    8  A    between atoms: C_17  and  C_27
REMARK    9  A    between atoms: C_22  and  C_26
REMARK   10  A    between atoms: N_29  and  C_30
REMARK                            x       y       z     vdW  Elec       q    Type
REMARK                         _______ _______ _______ _____ _____    ______ ____
ROOT
ATOM      1  C   UNL     1      -9.574  -1.516  -1.973  0.00  0.00    +0.085 A 
ATOM      2  C   UNL     1     -10.560  -1.520  -2.946  0.00  0.00    +0.069 A 
ATOM      3  C   UNL     1     -11.908  -1.176  -2.528  0.00  0.00    -0.023 A 
ATOM      4  C   UNL     1     -12.022  -0.891  -1.213  0.00  0.00    -0.004 A 
ATOM      5  S   UNL     1     -10.386  -1.085  -0.568  0.00  0.00    -0.077 S 
ATOM      6  C   UNL     1     -13.270  -0.504  -0.481  0.00  0.00    +0.046 C 
ATOM      7  C   UNL     1     -14.475  -0.846  -1.369  0.00  0.00    -0.009 C 
ATOM      8  C   UNL     1     -14.218  -0.311  -2.781  0.00  0.00    +0.008 C 
ATOM      9  C   UNL     1     -13.114  -1.128  -3.455  0.00  0.00    +0.037 C 
ATOM     10  C   UNL     1     -15.736  -0.198  -0.794  0.00  0.00    +0.008 C 
ENDROOT
BRANCH   1  13
ATOM     11  C   UNL     1      -7.403  -1.758  -1.058  0.00  0.00    +0.258 C 
ATOM     12  O   UNL     1      -7.841  -1.460   0.034  0.00  0.00    -0.271 OA
ATOM     13  N   UNL     1      -8.226  -1.807  -2.124  0.00  0.00    -0.276 N 
ATOM     14  H   UNL     1      -7.876  -2.045  -2.996  0.00  0.00    +0.155 HD
BRANCH  11  15
ATOM     15  C   UNL     1      -5.939  -2.074  -1.221  0.00  0.00    +0.256 C 
ATOM     16  C   UNL     1      -5.781  -3.503  -1.746  0.00  0.00    +0.062 C 
BRANCH  15  17
ATOM     17  O   UNL     1      -5.282  -1.955   0.042  0.00  0.00    -0.480 OA
BRANCH  17  21
ATOM     18  C   UNL     1      -1.236  -1.149  -0.020  0.00  0.00    -0.047 A 
ATOM     19  C   UNL     1      -1.911  -1.388  -1.203  0.00  0.00    +0.007 A 
ATOM     20  C   UNL     1      -3.265  -1.658  -1.185  0.00  0.00    +0.046 A 
ATOM     21  C   UNL     1      -3.949  -1.690   0.022  0.00  0.00    +0.122 A 
ATOM     22  C   UNL     1      -3.270  -1.450   1.207  0.00  0.00    +0.046 A 
ATOM     23  C   UNL     1      -1.914  -1.186   1.184  0.00  0.00    +0.007 A 
BRANCH  18  25
ATOM     24  C   UNL     1       1.025  -2.164   0.066  0.00  0.00    +0.009 C 
ATOM     25  C   UNL     1       0.242  -0.854  -0.043  0.00  0.00    +0.032 C 
ENDBRANCH  18  25
ENDBRANCH  17  21
ENDBRANCH  15  17
ENDBRANCH  11  15
ENDBRANCH   1  13
BRANCH   2  26
ATOM     26  C   UNL     1     -10.257  -1.858  -4.340  0.00  0.00    +0.247 C 
ATOM     27  O   UNL     1     -10.327  -3.014  -4.716  0.00  0.00    -0.270 OA
ATOM     28  N   UNL     1      -9.899  -0.889  -5.206  0.00  0.00    -0.307 N 
ATOM     29  H   UNL     1      -9.843   0.032  -4.907  0.00  0.00    +0.149 HD
BRANCH  28  30
ATOM     30  C   UNL     1      -9.596  -1.227  -6.599  0.00  0.00    +0.096 C 
ATOM     31  C   UNL     1      -8.118  -1.633  -6.725  0.00  0.00    +0.046 C 
ATOM     32  C   UNL     1      -7.709  -1.679  -8.217  0.00  0.00    +0.168 C 
ATOM     33  S   UNL     1      -8.841  -0.450  -8.985  0.00  0.00    -0.029 S 
ATOM     34  O   UNL     1      -9.682  -1.116  -9.916  0.00  0.00    -0.174 OA
ATOM     35  O   UNL     1      -8.084   0.676  -9.407  0.00  0.00    -0.174 OA
ATOM     36  C   UNL     1      -9.835   0.015  -7.505  0.00  0.00    +0.188 C 
ENDBRANCH  28  30
ENDBRANCH   2  26
TORSDOF 7
