REMARK  Name = ZINC35961870
REMARK  9 active torsions:
REMARK  status: ('A' for Active; 'I' for Inactive)
REMARK    1  A    between atoms: C_1  and  C_2
REMARK    2  A    between atoms: C_6  and  C_7
REMARK    3  A    between atoms: C_10  and  C_24
REMARK    4  A    between atoms: C_13  and  C_15
REMARK    5  A    between atoms: C_15  and  N_16
REMARK    6  A    between atoms: N_19  and  C_20
REMARK    7  A    between atoms: C_20  and  C_21
REMARK    8  A    between atoms: C_20  and  C_22
REMARK    9  A    between atoms: C_20  and  C_23
REMARK                            x       y       z     vdW  Elec       q    Type
REMARK                         _______ _______ _______ _____ _____    ______ ____
ROOT
ATOM      1  C   UNL     1       0.030  -0.179   2.581  0.00  0.00    +0.144 C 
ATOM      2  C   UNL     1      -1.340  -0.408   3.250  0.00  0.00    +0.088 C 
ATOM      3  C   UNL     1      -1.028  -1.317   4.417  0.00  0.00    +0.075 C 
ATOM      4  N   UNL     1       0.238  -1.570   4.439  0.00  0.00    -0.180 NA
ATOM      5  N   UNL     1       0.960  -0.957   3.413  0.00  0.00    -0.183 N 
ATOM      6  C   UNL     1       2.290  -1.060   3.216  0.00  0.00    +0.253 C 
ATOM      7  O   UNL     1       2.812  -0.481   2.286  0.00  0.00    -0.272 OA
ENDROOT
BRANCH   1  13
ATOM      8  C   UNL     1      -0.018   1.503   0.010  0.00  0.00    +0.044 C 
ATOM      9  C   UNL     1       0.002  -0.004   0.002  0.00  0.00    -0.038 A 
ATOM     10  C   UNL     1       0.006  -0.699  -1.193  0.00  0.00    +0.011 A 
ATOM     11  C   UNL     1       0.024  -2.054  -1.165  0.00  0.00    +0.046 A 
ATOM     12  S   UNL     1       0.037  -2.387   0.589  0.00  0.00    -0.099 S 
ATOM     13  C   UNL     1       0.023  -0.698   1.166  0.00  0.00    +0.015 A 
ENDBRANCH   1  13
BRANCH   3  14
ATOM     14  C   UNL     1      -2.011  -1.830   5.377  0.00  0.00    +0.035 A 
ATOM     15  C   UNL     1      -1.814  -2.656   6.471  0.00  0.00    +0.017 A 
ATOM     16  C   UNL     1      -2.906  -3.005   7.231  0.00  0.00    +0.008 A 
ATOM     17  C   UNL     1      -4.133  -2.533   6.888  0.00  0.00    +0.046 A 
ATOM     18  S   UNL     1      -3.772  -1.546   5.445  0.00  0.00    -0.095 S 
ENDBRANCH   3  14
BRANCH   6  19
ATOM     19  C   UNL     1       3.127  -1.895   4.150  0.00  0.00    +0.203 C 
BRANCH  19  20
ATOM     20  N   UNL     1       4.529  -1.846   3.724  0.00  0.00    -0.291 N 
ATOM     21  C   UNL     1       5.467  -2.523   4.416  0.00  0.00    +0.300 C 
ATOM     22  O   UNL     1       5.150  -3.174   5.393  0.00  0.00    -0.253 OA
ATOM     23  N   UNL     1       6.756  -2.478   4.025  0.00  0.00    -0.295 N 
ATOM     24  H   UNL     1       4.781  -1.326   2.945  0.00  0.00    +0.151 HD
ATOM     25  H   UNL     1       7.008  -1.958   3.246  0.00  0.00    +0.151 HD
BRANCH  23  26
ATOM     26  C   UNL     1       7.776  -3.214   4.776  0.00  0.00    +0.028 C 
ATOM     27  C   UNL     1       7.438  -4.706   4.767  0.00  0.00    +0.031 C 
ATOM     28  C   UNL     1       9.144  -2.996   4.127  0.00  0.00    +0.031 C 
ATOM     29  C   UNL     1       7.809  -2.708   6.220  0.00  0.00    +0.031 C 
ENDBRANCH  23  26
ENDBRANCH  19  20
ENDBRANCH   6  19
TORSDOF 5
