REMARK  Name = ZINC25170457
REMARK  7 active torsions:
REMARK  status: ('A' for Active; 'I' for Inactive)
REMARK    1  A    between atoms: C_1  and  C_2
REMARK    2  A    between atoms: C_3  and  N_14
REMARK    3  A    between atoms: C_4  and  C_13
REMARK    4  A    between atoms: N_5  and  C_7
REMARK    5  A    between atoms: C_15  and  C_17
REMARK    6  A    between atoms: C_17  and  C_18
REMARK    7  A    between atoms: C_18  and  C_19
REMARK                            x       y       z     vdW  Elec       q    Type
REMARK                         _______ _______ _______ _____ _____    ______ ____
ROOT
ATOM      1  N   UNL     1      -2.382   4.127  -9.459  0.00  0.00    -0.283 N 
ATOM      2  C   UNL     1      -1.449   3.469  -8.743  0.00  0.00    +0.218 C 
ATOM      3  O   UNL     1      -0.525   2.923  -9.308  0.00  0.00    -0.275 OA
ATOM      4  H   UNL     1      -3.271   4.538  -8.959  0.00  0.00    +0.155 HD
ENDROOT
BRANCH   1   7
ATOM      5  C   UNL     1       0.371   4.362 -10.898  0.00  0.00    +0.069 C 
ATOM      6  C   UNL     1      -0.997   4.398 -11.529  0.00  0.00    +0.082 A 
ATOM      7  C   UNL     1      -2.219   4.289 -10.848  0.00  0.00    +0.078 A 
ATOM      8  C   UNL     1      -3.216   4.372 -11.765  0.00  0.00    +0.063 A 
ATOM      9  N   UNL     1      -2.637   4.523 -12.988  0.00  0.00    -0.235 N 
ATOM     10  N   UNL     1      -1.248   4.532 -12.806  0.00  0.00    -0.170 NA
ATOM     11  C   UNL     1      -4.695   4.309 -11.482  0.00  0.00    +0.068 C 
BRANCH   9  12
ATOM     12  C   UNL     1      -3.311   4.648 -14.210  0.00  0.00    +0.066 A 
ATOM     13  C   UNL     1      -2.844   3.977 -15.333  0.00  0.00    +0.028 A 
ATOM     14  C   UNL     1      -3.513   4.097 -16.535  0.00  0.00    +0.002 A 
ATOM     15  C   UNL     1      -4.640   4.894 -16.624  0.00  0.00    +0.000 A 
ATOM     16  C   UNL     1      -5.104   5.567 -15.509  0.00  0.00    +0.002 A 
ATOM     17  C   UNL     1      -4.442   5.447 -14.303  0.00  0.00    +0.028 A 
ENDBRANCH   9  12
ENDBRANCH   1   7
BRANCH   2  18
ATOM     18  C   UNL     1      -1.554   3.412  -7.241  0.00  0.00    +0.104 C 
BRANCH  18  19
ATOM     19  C   UNL     1      -0.379   2.611  -6.678  0.00  0.00    +0.083 C 
BRANCH  19  20
ATOM     20  C   UNL     1      -0.484   2.553  -5.176  0.00  0.00    +0.111 A 
ATOM     21  N   UNL     1       0.463   1.886  -4.466  0.00  0.00    -0.310 N 
ATOM     22  H   UNL     1       1.297   1.395  -4.989  0.00  0.00    +0.170 HD
ATOM     23  C   UNL     1       0.407   1.810  -3.123  0.00  0.00    +0.260 A 
ATOM     24  O   UNL     1       1.264   1.207  -2.499  0.00  0.00    -0.267 OA
ATOM     25  C   UNL     1      -0.679   2.449  -2.441  0.00  0.00    +0.075 A 
ATOM     26  C   UNL     1      -0.940   2.494  -0.994  0.00  0.00    -0.023 A 
ATOM     27  C   UNL     1      -2.035   3.164  -0.595  0.00  0.00    -0.004 A 
ATOM     28  S   UNL     1      -2.777   3.766  -2.095  0.00  0.00    -0.073 S 
ATOM     29  C   UNL     1      -1.606   3.112  -3.255  0.00  0.00    +0.116 A 
ATOM     30  N   UNL     1      -1.484   3.145  -4.580  0.00  0.00    -0.227 NA
ATOM     31  C   UNL     1      -2.198   3.147   0.901  0.00  0.00    +0.043 C 
ATOM     32  C   UNL     1      -0.807   2.733   1.438  0.00  0.00    +0.010 C 
ATOM     33  C   UNL     1      -0.238   1.937   0.248  0.00  0.00    +0.037 C 
ENDBRANCH  19  20
ENDBRANCH  18  19
ENDBRANCH   2  18
TORSDOF 5
