REMARK  Name = ZINC15866435
REMARK  3 active torsions:
REMARK  status: ('A' for Active; 'I' for Inactive)
REMARK    1  A    between atoms: C_1  and  C_2
REMARK    2  A    between atoms: C_6  and  C_8
REMARK    3  A    between atoms: C_11  and  C_19
REMARK                            x       y       z     vdW  Elec       q    Type
REMARK                         _______ _______ _______ _____ _____    ______ ____
ROOT
ATOM      1  C   UNL     1      -0.070   5.347   0.032  0.00  0.00    +0.144 C 
ATOM      2  C   UNL     1      -0.804   5.844   1.284  0.00  0.00    +0.059 C 
ATOM      3  C   UNL     1      -1.075   7.348   1.164  0.00  0.00    +0.112 C 
ATOM      4  N   UNL     1      -1.958   7.579   0.004  0.00  0.00    -0.305 N 
ATOM      5  C   UNL     1      -1.652   6.870  -1.149  0.00  0.00    +0.236 A 
ATOM      6  N   UNL     1      -0.776   5.834  -1.151  0.00  0.00    -0.206 N 
ATOM      7  N   UNL     1      -0.727   5.388  -2.472  0.00  0.00    -0.042 NA
ATOM      8  N   UNL     1      -1.536   6.142  -3.144  0.00  0.00    -0.021 NA
ATOM      9  N   UNL     1      -2.083   7.016  -2.370  0.00  0.00    -0.092 NA
ATOM     10  H   UNL     1      -2.710   8.191   0.046  0.00  0.00    +0.150 HD
ENDROOT
BRANCH   1  16
ATOM     11  C   UNL     1       2.490   1.048  -0.016  0.00  0.00    +0.044 C 
ATOM     12  C   UNL     1       1.175   1.783   0.000  0.00  0.00    -0.050 A 
ATOM     13  C   UNL     1      -0.013   1.076   0.008  0.00  0.00    +0.003 A 
ATOM     14  C   UNL     1      -1.219   1.750   0.017  0.00  0.00    +0.001 A 
ATOM     15  C   UNL     1      -1.238   3.133   0.029  0.00  0.00    +0.006 A 
ATOM     16  C   UNL     1      -0.050   3.840   0.023  0.00  0.00    -0.023 A 
ATOM     17  C   UNL     1       1.157   3.165   0.008  0.00  0.00    +0.009 A 
ENDBRANCH   1  16
BRANCH   3  18
ATOM     18  C   UNL     1      -1.748   7.842   2.419  0.00  0.00    +0.011 A 
ATOM     19  C   UNL     1      -1.208   8.499   3.474  0.00  0.00    +0.014 A 
ATOM     20  C   UNL     1      -2.027   8.863   4.527  0.00  0.00    +0.023 A 
ATOM     21  C   UNL     1      -3.344   8.542   4.477  0.00  0.00    +0.055 A 
ATOM     22  S   UNL     1      -3.461   7.707   2.903  0.00  0.00    -0.085 S 
ATOM     23 BR   UNL     1      -4.704   8.890   5.744  0.00  0.00    -0.043 Br
ENDBRANCH   3  18
TORSDOF 2
