REMARK  Name = ZINC45285341
REMARK  14 active torsions:
REMARK  status: ('A' for Active; 'I' for Inactive)
REMARK    1  A    between atoms: C_1  and  C_2
REMARK    2  A    between atoms: C_2  and  N_3
REMARK    3  A    between atoms: N_3  and  C_4
REMARK    4  A    between atoms: N_3  and  C_6
REMARK    5  A    between atoms: C_4  and  C_5
REMARK    6  A    between atoms: C_6  and  C_7
REMARK    7  A    between atoms: C_7  and  N_8
REMARK    8  A    between atoms: N_17  and  C_18
REMARK    9  A    between atoms: C_18  and  C_20
REMARK   10  A    between atoms: C_20  and  C_22
REMARK   11  A    between atoms: C_20  and  N_26
REMARK   12  A    between atoms: C_22  and  C_23
REMARK   13  A    between atoms: C_23  and  C_24
REMARK   14  A    between atoms: C_23  and  C_25
REMARK                            x       y       z     vdW  Elec       q    Type
REMARK                         _______ _______ _______ _____ _____    ______ ____
ROOT
ATOM      1  N   UNL     1      -2.018  -3.350  -1.862  0.00  0.00    -0.314 N 
ATOM      2  C   UNL     1      -2.055  -3.969  -3.107  0.00  0.00    +0.068 A 
ATOM      3  C   UNL     1      -2.159  -3.485  -4.404  0.00  0.00    +0.028 A 
ATOM      4  C   UNL     1      -2.171  -4.364  -5.468  0.00  0.00    +0.002 A 
ATOM      5  C   UNL     1      -2.080  -5.729  -5.247  0.00  0.00    +0.002 A 
ATOM      6  C   UNL     1      -1.976  -6.221  -3.962  0.00  0.00    +0.028 A 
ATOM      7  C   UNL     1      -1.962  -5.345  -2.885  0.00  0.00    +0.066 A 
ATOM      8  N   UNL     1      -1.871  -5.532  -1.510  0.00  0.00    -0.326 N 
ATOM      9  C   UNL     1      -1.900  -4.313  -0.911  0.00  0.00    +0.201 A 
ATOM     10  N   UNL     1      -1.829  -4.096   0.400  0.00  0.00    -0.145 NA
ATOM     11  H   UNL     1      -1.795  -6.386  -1.056  0.00  0.00    +0.169 HD
ENDROOT
BRANCH  10  12
ATOM     12  C   UNL     1      -1.585  -5.107   1.228  0.00  0.00    +0.260 C 
ATOM     13  O   UNL     1      -1.340  -6.212   0.784  0.00  0.00    -0.272 OA
BRANCH  12  14
ATOM     14  C   UNL     1      -1.612  -4.883   2.719  0.00  0.00    +0.172 C 
BRANCH  14  15
ATOM     15  N   UNL     1      -1.313  -6.141   3.407  0.00  0.00    -0.230 N 
ATOM     16  C   UNL     1      -0.205  -6.328   4.149  0.00  0.00    +0.227 C 
ATOM     17  O   UNL     1       0.568  -5.470   4.516  0.00  0.00    -0.275 OA
ATOM     18  C   UNL     1      -0.104  -7.834   4.446  0.00  0.00    +0.091 C 
ATOM     19  C   UNL     1       0.678  -8.414   3.264  0.00  0.00    +0.040 C 
ATOM     20  C   UNL     1       0.237  -9.783   2.879  0.00  0.00    -0.030 C 
ATOM     21  C   UNL     1      -0.886 -10.322   3.223  0.00  0.00    -0.030 C 
ATOM     22  C   UNL     1      -1.884  -9.645   4.108  0.00  0.00    +0.040 C 
ATOM     23  C   UNL     1      -1.596  -8.195   4.369  0.00  0.00    +0.091 C 
ATOM     24  C   UNL     1      -2.128  -7.219   3.359  0.00  0.00    +0.227 C 
ATOM     25  O   UNL     1      -3.094  -7.370   2.643  0.00  0.00    -0.275 OA
ENDBRANCH  14  15
BRANCH  14  26
ATOM     26  C   UNL     1      -2.999  -4.390   3.135  0.00  0.00    +0.035 C 
BRANCH  26  27
ATOM     27  C   UNL     1      -3.241  -2.996   2.554  0.00  0.00    -0.015 C 
ATOM     28  C   UNL     1      -4.679  -2.564   2.845  0.00  0.00    +0.007 C 
ATOM     29  C   UNL     1      -2.270  -2.001   3.195  0.00  0.00    +0.007 C 
ENDBRANCH  26  27
ENDBRANCH  14  26
ENDBRANCH  12  14
ENDBRANCH  10  12
BRANCH   1  30
ATOM     30  C   UNL     1      -2.087  -1.907  -1.619  0.00  0.00    +0.106 C 
BRANCH  30  31
ATOM     31  C   UNL     1      -0.674  -1.320  -1.626  0.00  0.00    -0.057 C 
BRANCH  31  32
ATOM     32  N   UNL     1      -0.743   0.127  -1.382  0.00  0.00    +0.380 N 
ATOM     33  H   UNL     1      -1.359   0.553  -2.059  0.00  0.00    -0.082 HD
BRANCH  32  35
ATOM     34  C   UNL     1      -1.435   1.876   0.186  0.00  0.00    -0.017 C 
ATOM     35  C   UNL     1      -1.259   0.371  -0.029  0.00  0.00    -0.082 C 
ENDBRANCH  32  35
BRANCH  32  36
ATOM     36  C   UNL     1       0.600   0.709  -1.507  0.00  0.00    -0.082 C 
ATOM     37  C   UNL     1       1.090   0.555  -2.948  0.00  0.00    -0.017 C 
ENDBRANCH  32  36
ENDBRANCH  31  32
ENDBRANCH  30  31
ENDBRANCH   1  30
TORSDOF 10
