REMARK  Name = ZINC05343293
REMARK  4 active torsions:
REMARK  status: ('A' for Active; 'I' for Inactive)
REMARK    1  A    between atoms: C_1  and  C_2
REMARK    2  A    between atoms: C_13  and  C_24
REMARK    3  A    between atoms: C_19  and  N_23
REMARK    4  A    between atoms: C_20  and  C_21
REMARK                            x       y       z     vdW  Elec       q    Type
REMARK                         _______ _______ _______ _____ _____    ______ ____
ROOT
ATOM      1  C   UNL     1      -0.018   1.503   0.010  0.00  0.00    +0.045 C 
ATOM      2  C   UNL     1       0.002  -0.004   0.002  0.00  0.00    -0.029 A 
ATOM      3  C   UNL     1       0.006  -0.720  -1.186  0.00  0.00    +0.005 A 
ATOM      4  C   UNL     1       0.024  -2.099  -1.207  0.00  0.00    +0.001 A 
ATOM      5  C   UNL     1       0.040  -2.842  -0.031  0.00  0.00    +0.007 A 
ATOM      6  C   UNL     1       0.037  -2.138   1.154  0.00  0.00    -0.001 A 
ATOM      7  C   UNL     1       0.023  -0.737   1.189  0.00  0.00    +0.041 A 
ATOM      8  N   UNL     1       0.029  -0.289   2.498  0.00  0.00    -0.284 N 
ATOM      9  C   UNL     1       0.052  -1.309   3.382  0.00  0.00    +0.238 C 
ATOM     10  O   UNL     1       0.062  -1.215   4.591  0.00  0.00    -0.274 OA
ATOM     11  C   UNL     1       0.053  -2.590   2.578  0.00  0.00    +0.144 C 
ATOM     12  C   UNL     1      -1.154  -3.425   2.903  0.00  0.00    +0.061 A 
ATOM     13  C   UNL     1      -2.447  -3.079   2.986  0.00  0.00    +0.042 A 
ATOM     14  N   UNL     1      -3.150  -4.189   3.309  0.00  0.00    -0.278 N 
ATOM     15  H   UNL     1      -4.111  -4.237   3.435  0.00  0.00    +0.189 HD
ATOM     16  N   UNL     1      -2.248  -5.257   3.428  0.00  0.00    -0.135 NA
ATOM     17  C   UNL     1      -1.052  -4.807   3.186  0.00  0.00    +0.245 A 
ATOM     18  O   UNL     1       0.143  -5.455   3.179  0.00  0.00    -0.421 OA
ATOM     19  C   UNL     1       1.264  -4.707   3.154  0.00  0.00    +0.201 C 
ATOM     20  C   UNL     1       1.293  -3.383   2.886  0.00  0.00    +0.110 C 
ATOM     21  C   UNL     1      -3.015  -1.701   2.760  0.00  0.00    +0.065 C 
ATOM     22  H   UNL     1       0.018   0.648   2.751  0.00  0.00    +0.155 HD
ENDROOT
BRANCH  19  23
ATOM     23  N   UNL     1       2.457  -5.332   3.420  0.00  0.00    -0.328 N 
ATOM     24  H   UNL     1       2.474  -6.282   3.617  0.00  0.00    +0.145 HD
ATOM     25  H   UNL     1       3.283  -4.825   3.410  0.00  0.00    +0.145 HD
ENDBRANCH  19  23
BRANCH  20  26
ATOM     26  C   UNL     1       2.555  -2.708   2.894  0.00  0.00    +0.102 C 
ATOM     27  N   UNL     1       3.557  -2.172   2.901  0.00  0.00    -0.191 NA
ENDBRANCH  20  26
TORSDOF 2
