REMARK  Name = ZINC28049490
REMARK  9 active torsions:
REMARK  status: ('A' for Active; 'I' for Inactive)
REMARK    1  A    between atoms: C_1  and  C_2
REMARK    2  A    between atoms: C_2  and  C_24
REMARK    3  A    between atoms: N_3  and  N_4
REMARK    4  A    between atoms: C_8  and  C_11
REMARK    5  A    between atoms: C_11  and  C_12
REMARK    6  A    between atoms: N_14  and  C_15
REMARK    7  A    between atoms: C_24  and  C_25
REMARK    8  A    between atoms: C_24  and  C_26
REMARK    9  A    between atoms: C_24  and  C_27
REMARK                            x       y       z     vdW  Elec       q    Type
REMARK                         _______ _______ _______ _____ _____    ______ ____
ROOT
ATOM      1  N   UNL     1      10.084   0.976  -2.560  0.00  0.00    -0.127 NA
ATOM      2  C   UNL     1       9.239   1.156  -1.561  0.00  0.00    +0.183 C 
ATOM      3  N   UNL     1       9.418   1.877  -0.432  0.00  0.00    -0.263 N 
ATOM      4  C   UNL     1       8.540   1.997   0.490  0.00  0.00    +0.233 C 
ATOM      5  C   UNL     1       7.224   1.265   0.258  0.00  0.00    +0.149 C 
ATOM      6  S   UNL     1       7.584   0.504  -1.377  0.00  0.00    -0.075 S 
ATOM      7  O   UNL     1       8.764   2.727   1.597  0.00  0.00    -0.274 OA
ATOM      8  H   UNL     1      10.366   2.407  -0.262  0.00  0.00    +0.157 HD
ENDROOT
BRANCH   1  11
ATOM      9  C   UNL     1      11.780   0.549  -4.682  0.00  0.00    +0.063 C 
ATOM     10  C   UNL     1      12.178   1.398  -3.503  0.00  0.00    +0.043 C 
ATOM     11  N   UNL     1      11.350   1.574  -2.523  0.00  0.00    -0.156 NA
BRANCH  10  12
ATOM     12  C   UNL     1      13.540   2.042  -3.463  0.00  0.00    +0.002 C 
ATOM     13  C   UNL     1      13.688   2.842  -2.167  0.00  0.00    +0.017 C 
ATOM     14  C   UNL     1      14.618   0.958  -3.519  0.00  0.00    +0.017 C 
ATOM     15  C   UNL     1      13.696   2.979  -4.662  0.00  0.00    +0.017 C 
ENDBRANCH  10  12
ENDBRANCH   1  11
BRANCH   5  16
ATOM     16  C   UNL     1       6.049   2.241   0.173  0.00  0.00    +0.120 C 
BRANCH  16  17
ATOM     17  C   UNL     1       4.760   1.468   0.067  0.00  0.00    +0.219 C 
ATOM     18  O   UNL     1       4.779   0.255   0.060  0.00  0.00    -0.275 OA
ATOM     19  N   UNL     1       3.586   2.124  -0.021  0.00  0.00    -0.284 N 
ATOM     20  H   UNL     1       3.574   3.220  -0.106  0.00  0.00    +0.155 HD
BRANCH  19  21
ATOM     21  C   UNL     1       2.382   1.410  -0.002  0.00  0.00    +0.053 A 
ATOM     22  C   UNL     1       2.324   0.160   0.600  0.00  0.00    +0.044 A 
ATOM     23  C   UNL     1       1.134  -0.543   0.617  0.00  0.00    +0.043 A 
ATOM     24  C   UNL     1       0.001  -0.001   0.034  0.00  0.00    +0.021 A 
ATOM     25  C   UNL     1       0.056   1.243  -0.566  0.00  0.00    +0.023 A 
ATOM     26  C   UNL     1       1.243   1.950  -0.586  0.00  0.00    +0.062 A 
ATOM     27 CL   UNL     1       1.311   3.513  -1.340  0.00  0.00    -0.082 Cl
ATOM     28 CL   UNL     1       1.060  -2.106   1.368  0.00  0.00    -0.083 Cl
ENDBRANCH  19  21
ENDBRANCH  16  17
ENDBRANCH   5  16
TORSDOF 5
