REMARK  Name = ZINC41585954
REMARK  5 active torsions:
REMARK  status: ('A' for Active; 'I' for Inactive)
REMARK    1  A    between atoms: C_4  and  C_7
REMARK    2  A    between atoms: C_10  and  C_12
REMARK    3  A    between atoms: C_17  and  O_36
REMARK    4  A    between atoms: C_18  and  C_23
REMARK    5  A    between atoms: C_23  and  N_24
REMARK                            x       y       z     vdW  Elec       q    Type
REMARK                         _______ _______ _______ _____ _____    ______ ____
ROOT
ATOM      1  C   UNL     1       7.346  -0.058  -0.062  0.00  0.00    +0.092 A 
ATOM      2  C   UNL     1       8.458  -0.885  -0.107  0.00  0.00    +0.029 A 
ATOM      3  C   UNL     1       9.741  -0.281  -0.089  0.00  0.00    +0.019 A 
ATOM      4  C   UNL     1      10.890  -1.048  -0.334  0.00  0.00    +0.015 A 
ATOM      5  C   UNL     1      12.115  -0.448  -0.355  0.00  0.00    +0.046 A 
ATOM      6  C   UNL     1      12.236   0.922  -0.129  0.00  0.00    +0.125 A 
ATOM      7  C   UNL     1      11.114   1.692   0.133  0.00  0.00    +0.051 A 
ATOM      8  C   UNL     1       9.863   1.098   0.167  0.00  0.00    +0.147 A 
ATOM      9  O   UNL     1       8.763   1.833   0.464  0.00  0.00    -0.421 OA
ATOM     10  C   UNL     1       7.583   1.396  -0.039  0.00  0.00    +0.347 A 
ATOM     11  O   UNL     1       6.746   2.176  -0.454  0.00  0.00    -0.244 OA
ENDROOT
BRANCH   1  15
ATOM     12  C   UNL     1       3.675  -0.638   0.004  0.00  0.00    +0.079 A 
ATOM     13  C   UNL     1       3.690  -2.008  -0.022  0.00  0.00    +0.075 A 
ATOM     14  S   UNL     1       5.450  -2.320  -0.064  0.00  0.00    -0.075 S 
ATOM     15  C   UNL     1       5.979  -0.612  -0.044  0.00  0.00    +0.116 A 
ATOM     16  N   UNL     1       4.817   0.024  -0.012  0.00  0.00    -0.239 NA
BRANCH  12  20
ATOM     17  C   UNL     1      -0.019   1.465   0.118  0.00  0.00    +0.000 A 
ATOM     18  C   UNL     1       1.173   2.167   0.103  0.00  0.00    +0.001 A 
ATOM     19  C   UNL     1       2.375   1.489   0.066  0.00  0.00    +0.010 A 
ATOM     20  C   UNL     1       2.386   0.096   0.045  0.00  0.00    +0.001 A 
ATOM     21  C   UNL     1       1.182  -0.606   0.061  0.00  0.00    +0.010 A 
ATOM     22  C   UNL     1      -0.014   0.082   0.098  0.00  0.00    +0.001 A 
ENDBRANCH  12  20
ENDBRANCH   1  15
BRANCH   6  23
ATOM     23  O   UNL     1      13.461   1.506  -0.165  0.00  0.00    -0.506 OA
ATOM     24  H   UNL     1      13.718   1.826  -1.040  0.00  0.00    +0.292 HD
ENDBRANCH   6  23
BRANCH   7  25
ATOM     25  C   UNL     1      11.255   3.172   0.382  0.00  0.00    +0.127 C 
BRANCH  25  26
ATOM     26  N   UNL     1      11.150   3.895  -0.893  0.00  0.00    -0.295 NA
ATOM     27  C   UNL     1      12.280   3.572  -1.775  0.00  0.00    +0.103 C 
ATOM     28  C   UNL     1      12.042   4.199  -3.153  0.00  0.00    +0.122 C 
ATOM     29  N   UNL     1      11.783   5.635  -2.975  0.00  0.00    -0.314 N 
ATOM     30  C   UNL     1      10.757   6.042  -2.003  0.00  0.00    +0.122 C 
ATOM     31  C   UNL     1      11.045   5.343  -0.670  0.00  0.00    +0.103 C 
ATOM     32  C   UNL     1      12.489   6.584  -3.706  0.00  0.00    +0.099 A 
ATOM     33  C   UNL     1      13.535   6.181  -4.530  0.00  0.00    +0.042 A 
ATOM     34  C   UNL     1      14.229   7.135  -5.251  0.00  0.00    +0.005 A 
ATOM     35  C   UNL     1      13.851   8.466  -5.125  0.00  0.00    +0.018 A 
ATOM     36  C   UNL     1      12.803   8.795  -4.290  0.00  0.00    +0.084 A 
ATOM     37  N   UNL     1      12.155   7.862  -3.617  0.00  0.00    -0.350 N 
ATOM     38  H   UNL     1      11.419   8.120  -3.040  0.00  0.00    +0.166 HD
ENDBRANCH  25  26
ENDBRANCH   7  25
TORSDOF 5
