REMARK  Name = ZINC40036884
REMARK  7 active torsions:
REMARK  status: ('A' for Active; 'I' for Inactive)
REMARK    1  A    between atoms: C_1  and  C_2
REMARK    2  A    between atoms: C_5  and  N_8
REMARK    3  A    between atoms: N_15  and  N_16
REMARK    4  A    between atoms: C_17  and  C_18
REMARK    5  A    between atoms: C_19  and  C_20
REMARK    6  A    between atoms: C_25  and  O_26
REMARK    7  A    between atoms: O_26  and  C_27
REMARK                            x       y       z     vdW  Elec       q    Type
REMARK                         _______ _______ _______ _____ _____    ______ ____
ROOT
ATOM      1  N   UNL     1       0.072  -4.171  -0.022  0.00  0.00    -0.248 N 
ATOM      2  C   UNL     1       0.183  -4.850   1.140  0.00  0.00    +0.264 A 
ATOM      3  O   UNL     1       0.305  -4.256   2.200  0.00  0.00    -0.267 OA
ATOM      4  C   UNL     1       0.155  -6.250   1.104  0.00  0.00    +0.050 A 
ATOM      5  C   UNL     1       0.011  -6.886  -0.119  0.00  0.00    +0.084 A 
ATOM      6  N   UNL     1      -0.063  -6.163  -1.242  0.00  0.00    -0.214 NA
ATOM      7  C   UNL     1      -0.043  -4.846  -1.202  0.00  0.00    +0.223 A 
ATOM      8  N   UNL     1      -0.134  -4.139  -2.373  0.00  0.00    -0.206 N 
ATOM      9  C   UNL     1      -0.087  -8.362  -0.156  0.00  0.00    +0.004 A 
ATOM     10  C   UNL     1       0.074  -9.056  -1.353  0.00  0.00    +0.010 A 
ATOM     11  C   UNL     1      -0.002 -10.435  -1.359  0.00  0.00    +0.001 A 
ATOM     12  C   UNL     1      -0.236 -11.122  -0.181  0.00  0.00    +0.000 A 
ATOM     13  C   UNL     1      -0.405 -10.435   1.008  0.00  0.00    +0.004 A 
ATOM     14  C   UNL     1      -0.342  -9.057   1.025  0.00  0.00    -0.037 A 
ATOM     15  C   UNL     1      -0.579  -8.304   2.307  0.00  0.00    +0.047 C 
ATOM     16  C   UNL     1       0.295  -7.052   2.369  0.00  0.00    +0.007 C 
ATOM     17  C   UNL     1      -0.135  -6.193   3.562  0.00  0.00    +0.012 C 
ATOM     18  C   UNL     1       0.010  -7.004   4.851  0.00  0.00    +0.001 C 
ATOM     19  C   UNL     1       1.471  -7.421   5.030  0.00  0.00    +0.000 C 
ATOM     20  C   UNL     1       1.906  -8.275   3.837  0.00  0.00    +0.001 C 
ATOM     21  C   UNL     1       1.760  -7.465   2.548  0.00  0.00    +0.012 C 
ATOM     22  H   UNL     1      -0.053  -3.172  -2.363  0.00  0.00    +0.177 HD
ENDROOT
BRANCH   1  27
ATOM     23  C   UNL     1       0.058   1.503   0.002  0.00  0.00    +0.044 C 
ATOM     24  C   UNL     1       0.061  -0.004  -0.004  0.00  0.00    -0.050 A 
ATOM     25  C   UNL     1       1.257  -0.690  -0.110  0.00  0.00    +0.005 A 
ATOM     26  C   UNL     1       1.264  -2.071  -0.116  0.00  0.00    +0.026 A 
ATOM     27  C   UNL     1       0.068  -2.771  -0.015  0.00  0.00    +0.053 A 
ATOM     28  C   UNL     1      -1.131  -2.078   0.091  0.00  0.00    +0.026 A 
ATOM     29  C   UNL     1      -1.130  -0.697   0.103  0.00  0.00    +0.005 A 
ENDBRANCH   1  27
BRANCH   8  30
ATOM     30  N   UNL     1      -0.342  -4.812  -3.583  0.00  0.00    -0.188 NA
ATOM     31  C   UNL     1      -0.428  -4.139  -4.696  0.00  0.00    +0.130 C 
BRANCH  31  32
ATOM     32  C   UNL     1      -0.640  -4.820  -5.921  0.00  0.00    +0.022 C 
ATOM     33  C   UNL     1      -0.729  -4.124  -7.074  0.00  0.00    +0.013 C 
BRANCH  33  34
ATOM     34  C   UNL     1      -0.948  -4.830  -8.345  0.00  0.00    +0.017 A 
ATOM     35  C   UNL     1      -1.071  -6.223  -8.363  0.00  0.00    +0.011 A 
ATOM     36  C   UNL     1      -1.276  -6.878  -9.559  0.00  0.00    +0.001 A 
ATOM     37  C   UNL     1      -1.362  -6.164 -10.742  0.00  0.00    +0.004 A 
ATOM     38  C   UNL     1      -1.243  -4.786 -10.737  0.00  0.00    +0.046 A 
ATOM     39  C   UNL     1      -1.041  -4.110  -9.546  0.00  0.00    +0.127 A 
BRANCH  39  40
ATOM     40  O   UNL     1      -0.929  -2.757  -9.540  0.00  0.00    -0.495 OA
ATOM     41  C   UNL     1      -1.034  -2.092 -10.800  0.00  0.00    +0.277 C 
ENDBRANCH  39  40
ENDBRANCH  33  34
ENDBRANCH  31  32
ENDBRANCH   8  30
TORSDOF 5
