REMARK  Name = ZINC39652792
REMARK  10 active torsions:
REMARK  status: ('A' for Active; 'I' for Inactive)
REMARK    1  A    between atoms: C_1  and  C_2
REMARK    2  A    between atoms: C_2  and  O_3
REMARK    3  A    between atoms: O_3  and  C_4
REMARK    4  A    between atoms: C_9  and  C_10
REMARK    5  A    between atoms: C_10  and  C_11
REMARK    6  A    between atoms: C_11  and  N_12
REMARK    7  A    between atoms: C_13  and  C_15
REMARK    8  A    between atoms: C_26  and  C_28
REMARK    9  A    between atoms: C_29  and  C_39
REMARK   10  A    between atoms: C_32  and  C_33
REMARK                            x       y       z     vdW  Elec       q    Type
REMARK                         _______ _______ _______ _____ _____    ______ ____
ROOT
ATOM      1  C   UNL     1      -7.203   1.180  -2.525  0.00  0.00    +0.100 C 
ATOM      2  C   UNL     1      -8.457   0.388  -2.092  0.00  0.00    +0.121 C 
ATOM      3  N   UNL     1      -9.553   0.938  -2.925  0.00  0.00    -0.296 N 
ATOM      4  C   UNL     1      -8.934   1.148  -4.256  0.00  0.00    +0.115 C 
ATOM      5  C   UNL     1      -7.519   1.677  -3.945  0.00  0.00    -0.004 C 
ATOM      6  C   UNL     1      -7.505   3.202  -3.987  0.00  0.00    -0.010 C 
ATOM      7  C   UNL     1      -7.766   3.670  -5.422  0.00  0.00    -0.082 C 
ATOM      8  N   UNL     1      -6.733   3.126  -6.312  0.00  0.00    +0.379 N 
ATOM      9  C   UNL     1      -6.815   1.661  -6.337  0.00  0.00    -0.082 C 
ATOM     10  C   UNL     1      -6.514   1.107  -4.941  0.00  0.00    -0.010 C 
ATOM     11  C   UNL     1     -10.824   1.190  -2.557  0.00  0.00    +0.252 C 
ATOM     12  O   UNL     1     -11.613   1.645  -3.363  0.00  0.00    -0.270 OA
ATOM     13  H   UNL     1      -6.872   3.485  -7.245  0.00  0.00    -0.086 HD
ATOM     14  H   UNL     1      -5.823   3.405  -5.979  0.00  0.00    -0.086 HD
ENDROOT
BRANCH  11  15
ATOM     15  C   UNL     1     -11.259   0.915  -1.177  0.00  0.00    +0.106 A 
ATOM     16  C   UNL     1     -11.218   1.780  -0.123  0.00  0.00    +0.147 A 
ATOM     17  O   UNL     1     -11.701   1.152   0.953  0.00  0.00    -0.359 OA
ATOM     18  N   UNL     1     -12.072  -0.166   0.603  0.00  0.00    -0.077 NA
ATOM     19  C   UNL     1     -11.827  -0.344  -0.671  0.00  0.00    +0.126 A 
ATOM     20  C   UNL     1     -10.715   3.200  -0.165  0.00  0.00    +0.090 C 
BRANCH  19  21
ATOM     21  C   UNL     1     -12.072  -1.580  -1.453  0.00  0.00    +0.004 A 
ATOM     22  C   UNL     1     -12.463  -1.497  -2.788  0.00  0.00    +0.010 A 
ATOM     23  C   UNL     1     -12.689  -2.651  -3.511  0.00  0.00    +0.001 A 
ATOM     24  C   UNL     1     -12.528  -3.888  -2.913  0.00  0.00    +0.000 A 
ATOM     25  C   UNL     1     -12.140  -3.976  -1.588  0.00  0.00    +0.001 A 
ATOM     26  C   UNL     1     -11.905  -2.829  -0.857  0.00  0.00    +0.010 A 
ENDBRANCH  19  21
ENDBRANCH  11  15
BRANCH   1  28
ATOM     27  N   UNL     1      -4.768   0.794  -2.317  0.00  0.00    -0.315 N 
ATOM     28  C   UNL     1      -5.994   0.280  -2.541  0.00  0.00    +0.218 C 
ATOM     29  O   UNL     1      -6.124  -0.907  -2.754  0.00  0.00    -0.275 OA
ATOM     30  H   UNL     1      -4.664   1.743  -2.147  0.00  0.00    +0.149 HD
BRANCH  27  31
ATOM     31  C   UNL     1      -3.593  -0.081  -2.333  0.00  0.00    +0.109 C 
BRANCH  31  32
ATOM     32  C   UNL     1      -2.337   0.747  -2.054  0.00  0.00    +0.057 C 
BRANCH  32  38
ATOM     33  C   UNL     1      -0.502  -0.453  -3.270  0.00  0.00    +0.124 A 
ATOM     34  C   UNL     1       0.614  -1.277  -3.281  0.00  0.00    +0.046 A 
ATOM     35  C   UNL     1       1.095  -1.802  -2.097  0.00  0.00    +0.004 A 
ATOM     36  C   UNL     1       0.465  -1.505  -0.902  0.00  0.00    +0.000 A 
ATOM     37  C   UNL     1      -0.647  -0.684  -0.889  0.00  0.00    +0.007 A 
ATOM     38  C   UNL     1      -1.129  -0.153  -2.069  0.00  0.00    -0.004 A 
BRANCH  33  39
ATOM     39  O   UNL     1      -0.978   0.065  -4.434  0.00  0.00    -0.492 OA
BRANCH  39  41
ATOM     40  C   UNL     1      -0.958   0.385  -6.829  0.00  0.00    +0.048 C 
ATOM     41  C   UNL     1      -0.282  -0.287  -5.632  0.00  0.00    +0.225 C 
ENDBRANCH  39  41
ENDBRANCH  33  39
ENDBRANCH  32  38
ENDBRANCH  31  32
ENDBRANCH  27  31
ENDBRANCH   1  28
TORSDOF 8
