REMARK  Name = ZINC36493798
REMARK  13 active torsions:
REMARK  status: ('A' for Active; 'I' for Inactive)
REMARK    1  A    between atoms: C_1  and  C_2
REMARK    2  A    between atoms: C_2  and  C_3
REMARK    3  A    between atoms: C_2  and  C_4
REMARK    4  A    between atoms: C_2  and  N_5
REMARK    5  A    between atoms: C_6  and  C_8
REMARK    6  A    between atoms: C_8  and  C_10
REMARK    7  A    between atoms: C_8  and  N_17
REMARK    8  A    between atoms: C_13  and  O_16
REMARK    9  A    between atoms: N_17  and  C_18
REMARK   10  A    between atoms: C_18  and  C_19
REMARK   11  A    between atoms: C_24  and  C_26
REMARK   12  A    between atoms: C_26  and  C_34
REMARK   13  A    between atoms: C_27  and  C_28
REMARK                            x       y       z     vdW  Elec       q    Type
REMARK                         _______ _______ _______ _____ _____    ______ ____
ROOT
ATOM      1  N   UNL     1       2.592   0.632  -2.042  0.00  0.00    -0.275 N 
ATOM      2  C   UNL     1       3.477   1.045  -2.971  0.00  0.00    +0.248 C 
ATOM      3  O   UNL     1       4.559   1.482  -2.628  0.00  0.00    -0.270 OA
ENDROOT
BRANCH   2   4
ATOM      4  C   UNL     1       3.135   0.965  -4.400  0.00  0.00    +0.045 C 
ATOM      5  C   UNL     1       3.189  -0.230  -5.047  0.00  0.00    +0.021 C 
BRANCH   5   6
ATOM      6  C   UNL     1       3.747  -1.408  -4.369  0.00  0.00    -0.024 A 
ATOM      7  C   UNL     1       3.231  -2.682  -4.633  0.00  0.00    +0.008 A 
ATOM      8  C   UNL     1       3.760  -3.782  -3.992  0.00  0.00    +0.001 A 
ATOM      9  C   UNL     1       4.798  -3.629  -3.090  0.00  0.00    +0.000 A 
ATOM     10  C   UNL     1       5.315  -2.373  -2.823  0.00  0.00    +0.001 A 
ATOM     11  C   UNL     1       4.801  -1.263  -3.459  0.00  0.00    +0.008 A 
ENDBRANCH   5   6
BRANCH   4  12
ATOM     12  C   UNL     1       2.732   2.187  -5.134  0.00  0.00    -0.013 A 
ATOM     13  C   UNL     1       3.659   3.204  -5.363  0.00  0.00    +0.008 A 
ATOM     14  C   UNL     1       3.277   4.340  -6.047  0.00  0.00    +0.001 A 
ATOM     15  C   UNL     1       1.978   4.471  -6.506  0.00  0.00    +0.000 A 
ATOM     16  C   UNL     1       1.054   3.465  -6.281  0.00  0.00    +0.001 A 
ATOM     17  C   UNL     1       1.425   2.322  -5.604  0.00  0.00    +0.008 A 
ENDBRANCH   4  12
ENDBRANCH   2   4
BRANCH   1  18
ATOM     18  C   UNL     1       1.260   0.180  -2.450  0.00  0.00    +0.193 C 
BRANCH  18  19
ATOM     19  C   UNL     1       1.126  -1.297  -2.182  0.00  0.00    -0.018 A 
ATOM     20  C   UNL     1       1.753  -1.858  -1.085  0.00  0.00    +0.009 A 
ATOM     21  C   UNL     1       1.633  -3.212  -0.837  0.00  0.00    +0.046 A 
ATOM     22  C   UNL     1       0.882  -4.008  -1.690  0.00  0.00    +0.117 A 
ATOM     23  C   UNL     1       0.254  -3.442  -2.789  0.00  0.00    +0.046 A 
ATOM     24  C   UNL     1       0.373  -2.087  -3.030  0.00  0.00    +0.009 A 
BRANCH  22  25
ATOM     25  O   UNL     1       0.762  -5.340  -1.448  0.00  0.00    -0.507 OA
ATOM     26  H   UNL     1       0.009  -5.572  -0.888  0.00  0.00    +0.292 HD
ENDBRANCH  22  25
ENDBRANCH  18  19
BRANCH  18  28
ATOM     27  N   UNL     1      -1.094   0.678  -1.875  0.00  0.00    -0.309 N 
ATOM     28  C   UNL     1       0.213   0.930  -1.667  0.00  0.00    +0.239 C 
ATOM     29  O   UNL     1       0.547   1.760  -0.848  0.00  0.00    -0.273 OA
ATOM     30  H   UNL     1      -1.362   0.014  -2.530  0.00  0.00    +0.149 HD
BRANCH  27  32
ATOM     31  C   UNL     1      -1.976   2.905  -1.386  0.00  0.00    +0.031 C 
ATOM     32  C   UNL     1      -2.112   1.406  -1.113  0.00  0.00    +0.026 C 
ATOM     33  C   UNL     1      -1.918   1.140   0.381  0.00  0.00    +0.031 C 
ATOM     34  C   UNL     1      -3.503   0.934  -1.540  0.00  0.00    +0.031 C 
ENDBRANCH  27  32
ENDBRANCH  18  28
ENDBRANCH   1  18
BRANCH   1  35
ATOM     35  C   UNL     1       2.962   0.637  -0.625  0.00  0.00    +0.183 C 
BRANCH  35  36
ATOM     36  C   UNL     1       3.197   2.054  -0.171  0.00  0.00    +0.122 A 
ATOM     37  C   UNL     1       2.312   2.829   0.482  0.00  0.00    +0.046 A 
ATOM     38  C   UNL     1       2.945   4.072   0.709  0.00  0.00    +0.041 A 
ATOM     39  C   UNL     1       4.179   3.984   0.181  0.00  0.00    +0.195 A 
ATOM     40  O   UNL     1       4.328   2.757  -0.345  0.00  0.00    -0.466 OA
ENDBRANCH  35  36
ENDBRANCH   1  35
TORSDOF 10
