REMARK  Name = ZINC13163691
REMARK  9 active torsions:
REMARK  status: ('A' for Active; 'I' for Inactive)
REMARK    1  A    between atoms: C_1  and  C_2
REMARK    2  A    between atoms: C_5  and  C_9
REMARK    3  A    between atoms: C_7  and  C_8
REMARK    4  A    between atoms: C_9  and  C_32
REMARK    5  A    between atoms: N_12  and  C_16
REMARK    6  A    between atoms: C_16  and  C_17
REMARK    7  A    between atoms: N_19  and  C_20
REMARK    8  A    between atoms: C_20  and  C_22
REMARK    9  A    between atoms: C_20  and  C_23
REMARK                            x       y       z     vdW  Elec       q    Type
REMARK                         _______ _______ _______ _____ _____    ______ ____
ROOT
ATOM      1  C   UNL     1       0.002  -0.004   0.002  0.00  0.00    +0.164 C 
ATOM      2  C   UNL     1       0.276  -0.892  -1.195  0.00  0.00    +0.256 C 
ATOM      3  O   UNL     1      -0.484  -1.151  -2.104  0.00  0.00    -0.272 OA
ATOM      4  N   UNL     1       1.543  -1.333  -1.036  0.00  0.00    -0.215 N 
ATOM      5  C   UNL     1       2.097  -0.853   0.083  0.00  0.00    +0.310 C 
ATOM      6  O   UNL     1       3.229  -1.110   0.441  0.00  0.00    -0.252 OA
ATOM      7  N   UNL     1       1.259  -0.053   0.768  0.00  0.00    -0.278 N 
ATOM      8  H   UNL     1       1.447   0.403   1.604  0.00  0.00    +0.152 HD
ENDROOT
BRANCH   1  13
ATOM      9  C   UNL     1      -4.373  -2.108   3.137  0.00  0.00    +0.044 C 
ATOM     10  C   UNL     1      -3.232  -1.560   2.319  0.00  0.00    -0.048 A 
ATOM     11  C   UNL     1      -3.371  -1.409   0.952  0.00  0.00    +0.004 A 
ATOM     12  C   UNL     1      -2.325  -0.906   0.202  0.00  0.00    +0.007 A 
ATOM     13  C   UNL     1      -1.139  -0.553   0.820  0.00  0.00    -0.010 A 
ATOM     14  C   UNL     1      -0.998  -0.708   2.186  0.00  0.00    +0.010 A 
ATOM     15  C   UNL     1      -2.046  -1.207   2.936  0.00  0.00    -0.047 A 
ATOM     16  C   UNL     1      -1.895  -1.372   4.426  0.00  0.00    +0.044 C 
ENDBRANCH   1  13
BRANCH   1  17
ATOM     17  C   UNL     1      -0.295   1.406  -0.441  0.00  0.00    -0.011 A 
ATOM     18  C   UNL     1      -1.231   1.637  -1.431  0.00  0.00    +0.006 A 
ATOM     19  C   UNL     1      -1.507   2.930  -1.833  0.00  0.00    +0.000 A 
ATOM     20  C   UNL     1      -0.838   3.992  -1.253  0.00  0.00    +0.000 A 
ATOM     21  C   UNL     1       0.101   3.760  -0.266  0.00  0.00    +0.000 A 
ATOM     22  C   UNL     1       0.373   2.467   0.140  0.00  0.00    +0.006 A 
ENDBRANCH   1  17
BRANCH   4  23
ATOM     23  C   UNL     1       2.227  -2.227  -1.974  0.00  0.00    +0.213 C 
BRANCH  23  24
ATOM     24  C   UNL     1       1.978  -3.659  -1.574  0.00  0.00    +0.232 C 
ATOM     25  O   UNL     1       1.296  -3.908  -0.602  0.00  0.00    -0.274 OA
ATOM     26  N   UNL     1       2.512  -4.663  -2.297  0.00  0.00    -0.304 N 
ATOM     27  H   UNL     1       3.057  -4.464  -3.075  0.00  0.00    +0.149 HD
BRANCH  26  28
ATOM     28  C   UNL     1       2.270  -6.055  -1.909  0.00  0.00    +0.136 C 
ATOM     29  C   UNL     1       0.943  -6.527  -2.506  0.00  0.00    +0.036 C 
BRANCH  28  30
ATOM     30  C   UNL     1       3.390  -6.922  -2.425  0.00  0.00    +0.126 A 
ATOM     31  C   UNL     1       3.952  -7.931  -1.746  0.00  0.00    +0.055 A 
ATOM     32  C   UNL     1       4.986  -8.490  -2.627  0.00  0.00    +0.020 A 
ATOM     33  C   UNL     1       5.903  -9.533  -2.513  0.00  0.00    +0.011 A 
ATOM     34  C   UNL     1       6.759  -9.799  -3.546  0.00  0.00    +0.001 A 
ATOM     35  C   UNL     1       6.720  -9.036  -4.704  0.00  0.00    +0.004 A 
ATOM     36  C   UNL     1       5.820  -8.000  -4.834  0.00  0.00    +0.047 A 
ATOM     37  C   UNL     1       4.941  -7.714  -3.797  0.00  0.00    +0.135 A 
ATOM     38  O   UNL     1       3.973  -6.791  -3.629  0.00  0.00    -0.458 OA
ENDBRANCH  28  30
ENDBRANCH  26  28
ENDBRANCH  23  24
ENDBRANCH   4  23
TORSDOF 6
