REMARK  Name = ZINC21864279
REMARK  6 active torsions:
REMARK  status: ('A' for Active; 'I' for Inactive)
REMARK    1  A    between atoms: C_1  and  C_2
REMARK    2  A    between atoms: C_2  and  C_27
REMARK    3  A    between atoms: C_5  and  C_22
REMARK    4  A    between atoms: N_11  and  C_12
REMARK    5  A    between atoms: C_12  and  C_13
REMARK    6  A    between atoms: N_29  and  C_30
REMARK                            x       y       z     vdW  Elec       q    Type
REMARK                         _______ _______ _______ _____ _____    ______ ____
ROOT
ATOM      1  C   UNL     1      -5.384   4.150   2.544  0.00  0.00    +0.043 C 
ATOM      2  C   UNL     1      -5.202   3.516   1.163  0.00  0.00    +0.129 C 
ATOM      3  C   UNL     1      -3.769   2.997   1.045  0.00  0.00    +0.157 C 
ATOM      4  N   UNL     1      -2.858   4.132   0.877  0.00  0.00    -0.331 N 
ATOM      5  C   UNL     1      -1.560   4.271   1.243  0.00  0.00    +0.085 A 
ATOM      6  C   UNL     1      -1.129   5.526   0.843  0.00  0.00    +0.032 A 
ATOM      7  C   UNL     1      -2.203   6.169   0.225  0.00  0.00    +0.033 A 
ATOM      8  C   UNL     1      -3.267   5.312   0.264  0.00  0.00    +0.105 A 
ATOM      9  C   UNL     1      -4.639   5.462  -0.231  0.00  0.00    +0.264 C 
ATOM     10  O   UNL     1      -4.966   6.396  -0.941  0.00  0.00    -0.268 OA
ATOM     11  N   UNL     1      -5.524   4.508   0.143  0.00  0.00    -0.276 N 
ENDROOT
BRANCH   5  12
ATOM     12  C   UNL     1      -0.749   3.262   1.940  0.00  0.00    +0.151 A 
ATOM     13  C   UNL     1       0.528   3.432   2.389  0.00  0.00    +0.051 A 
ATOM     14  C   UNL     1       0.910   2.218   2.989  0.00  0.00    +0.042 A 
ATOM     15  C   UNL     1      -0.137   1.375   2.880  0.00  0.00    +0.196 A 
ATOM     16  O   UNL     1      -1.135   2.006   2.241  0.00  0.00    -0.461 OA
ENDBRANCH   5  12
BRANCH   2  17
ATOM     17  C   UNL     1      -6.154   2.355   1.031  0.00  0.00    +0.238 C 
ATOM     18  O   UNL     1      -7.228   2.385   1.593  0.00  0.00    -0.273 OA
ATOM     19  N   UNL     1      -5.811   1.284   0.289  0.00  0.00    -0.311 N 
ATOM     20  H   UNL     1      -4.874   1.291  -0.287  0.00  0.00    +0.149 HD
BRANCH  19  21
ATOM     21  C   UNL     1      -6.687   0.110   0.248  0.00  0.00    +0.073 C 
ATOM     22  C   UNL     1      -6.516  -0.686   1.558  0.00  0.00    +0.022 C 
ATOM     23  C   UNL     1      -7.730  -1.556   1.750  0.00  0.00    +0.002 C 
ATOM     24  C   UNL     1      -7.526  -2.979   1.196  0.00  0.00    +0.000 C 
ATOM     25  C   UNL     1      -6.797  -2.993  -0.161  0.00  0.00    +0.000 C 
ATOM     26  C   UNL     1      -7.281  -1.909  -1.085  0.00  0.00    +0.002 C 
ATOM     27  C   UNL     1      -6.359  -0.683  -0.927  0.00  0.00    +0.022 C 
ENDBRANCH  19  21
ENDBRANCH   2  17
BRANCH  11  28
ATOM     28  C   UNL     1      -6.841   4.469  -0.496  0.00  0.00    +0.144 C 
BRANCH  28  29
ATOM     29  C   UNL     1      -6.740   3.742  -1.812  0.00  0.00    -0.026 A 
ATOM     30  C   UNL     1      -7.081   2.404  -1.889  0.00  0.00    +0.009 A 
ATOM     31  C   UNL     1      -6.991   1.732  -3.093  0.00  0.00    +0.050 A 
ATOM     32  C   UNL     1      -6.557   2.399  -4.228  0.00  0.00    +0.166 A 
ATOM     33  C   UNL     1      -6.213   3.746  -4.151  0.00  0.00    +0.167 A 
ATOM     34  C   UNL     1      -6.312   4.415  -2.941  0.00  0.00    +0.054 A 
ATOM     35  O   UNL     1      -5.822   4.168  -5.389  0.00  0.00    -0.453 OA
ATOM     36  C   UNL     1      -6.319   3.177  -6.307  0.00  0.00    +0.466 C 
ATOM     37  O   UNL     1      -6.382   1.977  -5.514  0.00  0.00    -0.453 OA
ENDBRANCH  28  29
ENDBRANCH  11  28
TORSDOF 5
