REMARK  Name = ZINC43549185
REMARK  13 active torsions:
REMARK  status: ('A' for Active; 'I' for Inactive)
REMARK    1  A    between atoms: C_1  and  C_2
REMARK    2  A    between atoms: C_7  and  C_9
REMARK    3  A    between atoms: C_9  and  S_10
REMARK    4  A    between atoms: S_10  and  C_13
REMARK    5  A    between atoms: C_13  and  C_14
REMARK    6  A    between atoms: C_13  and  C_15
REMARK    7  A    between atoms: C_13  and  C_16
REMARK    8  A    between atoms: C_18  and  C_40
REMARK    9  A    between atoms: C_21  and  O_39
REMARK   10  A    between atoms: C_23  and  C_27
REMARK   11  A    between atoms: C_27  and  C_29
REMARK   12  A    between atoms: C_27  and  C_30
REMARK   13  A    between atoms: N_35  and  C_38
REMARK                            x       y       z     vdW  Elec       q    Type
REMARK                         _______ _______ _______ _____ _____    ______ ____
ROOT
ATOM      1  C   UNL     1      -0.413   1.521   0.216  0.00  0.00    +0.014 C 
ATOM      2  C   UNL     1      -0.417  -0.009   0.233  0.00  0.00    +0.042 C 
ATOM      3  C   UNL     1      -1.774  -0.508   0.705  0.00  0.00    +0.055 A 
ATOM      4  C   UNL     1      -1.938  -0.952   1.980  0.00  0.00    +0.014 A 
ATOM      5  S   UNL     1      -3.650  -1.404   2.009  0.00  0.00    -0.075 S 
ATOM      6  C   UNL     1      -4.011  -0.995   0.414  0.00  0.00    +0.100 A 
ATOM      7  N   UNL     1      -2.867  -0.554  -0.046  0.00  0.00    -0.247 NA
ATOM      8  C   UNL     1      -0.913  -1.028   3.057  0.00  0.00    +0.051 C 
ATOM      9  C   UNL     1       0.303  -0.181   2.643  0.00  0.00    -0.022 C 
ATOM     10  C   UNL     1       0.662  -0.511   1.187  0.00  0.00    +0.033 C 
ATOM     11  C   UNL     1       0.848  -2.021   1.044  0.00  0.00    +0.123 C 
ATOM     12  C   UNL     1       2.004  -2.470   1.942  0.00  0.00    +0.029 C 
ATOM     13  C   UNL     1       1.700  -2.108   3.396  0.00  0.00    +0.007 C 
ATOM     14  C   UNL     1       1.489  -0.595   3.528  0.00  0.00    +0.008 C 
ATOM     15  C   UNL     1       0.002   1.310   2.811  0.00  0.00    +0.012 C 
ENDROOT
BRANCH  12  16
ATOM     16  C   UNL     1       2.183  -3.985   1.822  0.00  0.00    +0.078 C 
ATOM     17  C   UNL     1       3.338  -4.434   2.719  0.00  0.00    +0.017 C 
BRANCH  16  18
ATOM     18  C   UNL     1       2.489  -4.343   0.391  0.00  0.00    +0.219 C 
ATOM     19  O   UNL     1       2.998  -3.523  -0.344  0.00  0.00    -0.275 OA
ATOM     20  N   UNL     1       2.197  -5.574  -0.073  0.00  0.00    -0.299 N 
ATOM     21  C   UNL     1       1.478  -6.546   0.765  0.00  0.00    +0.123 C 
ATOM     22  C   UNL     1       2.264  -7.862   0.767  0.00  0.00    +0.103 C 
ATOM     23  N   UNL     1       2.499  -8.290  -0.618  0.00  0.00    -0.302 NA
ATOM     24  C   UNL     1       3.331  -7.320  -1.342  0.00  0.00    +0.103 C 
ATOM     25  C   UNL     1       2.584  -5.980  -1.433  0.00  0.00    +0.123 C 
ATOM     26  C   UNL     1       3.096  -9.631  -0.660  0.00  0.00    +0.105 C 
ENDBRANCH  16  18
ENDBRANCH  12  16
BRANCH  11  27
ATOM     27  O   UNL     1      -0.353  -2.689   1.438  0.00  0.00    -0.391 OA
ATOM     28  H   UNL     1      -0.306  -3.653   1.372  0.00  0.00    +0.210 HD
ENDBRANCH  11  27
BRANCH   6  29
ATOM     29  C   UNL     1      -5.329  -1.109  -0.307  0.00  0.00    +0.229 C 
BRANCH  29  30
ATOM     30  S   UNL     1      -5.449  -2.739  -1.094  0.00  0.00    -0.020 S 
ATOM     31  O   UNL     1      -4.454  -2.825  -2.105  0.00  0.00    -0.173 OA
ATOM     32  O   UNL     1      -5.486  -3.729  -0.075  0.00  0.00    -0.173 OA
BRANCH  30  33
ATOM     33  C   UNL     1      -7.076  -2.679  -1.894  0.00  0.00    +0.080 C 
ATOM     34  C   UNL     1      -7.105  -1.531  -2.905  0.00  0.00    +0.035 C 
ATOM     35  C   UNL     1      -7.338  -4.002  -2.617  0.00  0.00    +0.035 C 
ATOM     36  C   UNL     1      -8.157  -2.453  -0.835  0.00  0.00    +0.035 C 
ENDBRANCH  30  33
ENDBRANCH  29  30
ENDBRANCH   6  29
TORSDOF 6
