REMARK  Name = ZINC01159663
REMARK  4 active torsions:
REMARK  status: ('A' for Active; 'I' for Inactive)
REMARK    1  A    between atoms: C_1  and  S_2
REMARK    2  A    between atoms: S_2  and  C_3
REMARK    3  A    between atoms: C_16  and  C_19
REMARK    4  A    between atoms: C_24  and  C_25
REMARK                            x       y       z     vdW  Elec       q    Type
REMARK                         _______ _______ _______ _____ _____    ______ ____
ROOT
ATOM      1  C   UNL     1      -2.228   8.115  -1.827  0.00  0.00    +0.212 A 
ATOM      2  N   UNL     1      -1.453   7.141  -1.359  0.00  0.00    -0.184 NA
ATOM      3  C   UNL     1      -0.188   7.402  -1.077  0.00  0.00    +0.248 A 
ATOM      4  C   UNL     1       0.300   8.711  -1.289  0.00  0.00    +0.156 A 
ATOM      5  N   UNL     1      -0.526   9.636  -1.756  0.00  0.00    -0.141 NA
ATOM      6  N   UNL     1      -1.752   9.339  -2.015  0.00  0.00    -0.122 NA
ATOM      7  C   UNL     1       1.713   9.022  -0.990  0.00  0.00    +0.029 A 
ATOM      8  C   UNL     1       2.072  10.152  -0.266  0.00  0.00    +0.027 A 
ATOM      9  C   UNL     1       3.407  10.424  -0.035  0.00  0.00    +0.019 A 
ATOM     10  C   UNL     1       4.389   9.576  -0.519  0.00  0.00    +0.017 A 
ATOM     11  C   UNL     1       4.045   8.444  -1.235  0.00  0.00    +0.025 A 
ATOM     12  C   UNL     1       2.713   8.155  -1.470  0.00  0.00    +0.040 A 
ATOM     13  N   UNL     1       2.329   7.011  -2.176  0.00  0.00    -0.305 N 
ATOM     14  C   UNL     1       1.643   5.940  -1.459  0.00  0.00    +0.297 C 
ATOM     15  O   UNL     1       0.639   6.448  -0.587  0.00  0.00    -0.449 OA
ATOM     16 BR   UNL     1       3.896  11.962   0.950  0.00  0.00    -0.050 Br
ATOM     17  H   UNL     1       2.515   6.930  -3.124  0.00  0.00    +0.150 HD
ENDROOT
BRANCH  14  18
ATOM     18  C   UNL     1       2.651   5.167  -0.649  0.00  0.00    +0.056 A 
ATOM     19  C   UNL     1       3.732   5.682  -0.024  0.00  0.00    +0.114 A 
ATOM     20  N   UNL     1       4.380   4.669   0.590  0.00  0.00    -0.284 N 
ATOM     21  H   UNL     1       5.219   4.749   1.129  0.00  0.00    +0.188 HD
ATOM     22  N   UNL     1       3.674   3.485   0.341  0.00  0.00    -0.173 NA
ATOM     23  C   UNL     1       2.634   3.779  -0.410  0.00  0.00    +0.101 A 
BRANCH  23  24
ATOM     24  C   UNL     1       1.619   2.819  -0.911  0.00  0.00    +0.003 A 
ATOM     25  C   UNL     1       1.996   1.526  -1.267  0.00  0.00    +0.010 A 
ATOM     26  C   UNL     1       1.048   0.637  -1.732  0.00  0.00    +0.001 A 
ATOM     27  C   UNL     1      -0.273   1.030  -1.850  0.00  0.00    +0.000 A 
ATOM     28  C   UNL     1      -0.653   2.311  -1.494  0.00  0.00    +0.001 A 
ATOM     29  C   UNL     1       0.287   3.208  -1.027  0.00  0.00    +0.010 A 
ENDBRANCH  23  24
ENDBRANCH  14  18
BRANCH   1  31
ATOM     30  C   UNL     1      -4.446   9.406  -2.778  0.00  0.00    +0.093 C 
ATOM     31  S   UNL     1      -3.915   7.773  -2.205  0.00  0.00    -0.088 S 
ENDBRANCH   1  31
TORSDOF 3
