REMARK  Name = ZINC37021549
REMARK  12 active torsions:
REMARK  status: ('A' for Active; 'I' for Inactive)
REMARK    1  A    between atoms: C_1  and  C_2
REMARK    2  A    between atoms: C_2  and  C_3
REMARK    3  A    between atoms: C_3  and  C_5
REMARK    4  A    between atoms: C_3  and  N_24
REMARK    5  A    between atoms: N_7  and  C_8
REMARK    6  A    between atoms: C_13  and  C_14
REMARK    7  A    between atoms: N_16  and  C_17
REMARK    8  A    between atoms: C_17  and  C_18
REMARK    9  A    between atoms: N_24  and  C_25
REMARK   10  A    between atoms: N_24  and  S_32
REMARK   11  A    between atoms: C_28  and  C_31
REMARK   12  A    between atoms: S_32  and  C_35
REMARK                            x       y       z     vdW  Elec       q    Type
REMARK                         _______ _______ _______ _____ _____    ______ ____
ROOT
ATOM      1  C   UNL     1       1.035  -2.155  -1.790  0.00  0.00    +0.239 C 
ATOM      2  O   UNL     1       2.198  -2.401  -2.032  0.00  0.00    -0.273 OA
ATOM      3  N   UNL     1       0.100  -3.115  -1.927  0.00  0.00    -0.283 N 
ATOM      4  H   UNL     1      -0.838  -2.900  -1.807  0.00  0.00    +0.155 HD
ENDROOT
BRANCH   3   5
ATOM      5  C   UNL     1       0.481  -4.418  -2.242  0.00  0.00    +0.046 A 
ATOM      6  C   UNL     1       1.742  -4.880  -1.890  0.00  0.00    +0.024 A 
ATOM      7  C   UNL     1       2.117  -6.171  -2.203  0.00  0.00    +0.002 A 
ATOM      8  C   UNL     1       1.241  -7.014  -2.868  0.00  0.00    +0.001 A 
ATOM      9  C   UNL     1      -0.014  -6.573  -3.224  0.00  0.00    +0.015 A 
ATOM     10  C   UNL     1      -0.410  -5.271  -2.910  0.00  0.00    +0.058 A 
BRANCH  10  11
ATOM     11  C   UNL     1      -1.756  -4.793  -3.283  0.00  0.00    +0.246 C 
ATOM     12  O   UNL     1      -2.055  -3.627  -3.115  0.00  0.00    -0.270 OA
ATOM     13  N   UNL     1      -2.652  -5.650  -3.810  0.00  0.00    -0.309 N 
ATOM     14  H   UNL     1      -2.413  -6.581  -3.944  0.00  0.00    +0.149 HD
BRANCH  13  15
ATOM     15  C   UNL     1      -3.988  -5.176  -4.180  0.00  0.00    +0.136 C 
BRANCH  15  16
ATOM     16  C   UNL     1      -4.802  -6.340  -4.750  0.00  0.00    +0.135 C 
ATOM     17  C   UNL     1      -6.208  -5.852  -5.181  0.00  0.00    +0.035 C 
ATOM     18  C   UNL     1      -6.574  -6.916  -6.252  0.00  0.00    +0.031 C 
ATOM     19  C   UNL     1      -5.202  -7.223  -6.890  0.00  0.00    +0.160 C 
ATOM     20  O   UNL     1      -4.190  -6.836  -5.952  0.00  0.00    -0.375 OA
ENDBRANCH  15  16
ENDBRANCH  13  15
ENDBRANCH  10  11
ENDBRANCH   3   5
BRANCH   1  21
ATOM     21  C   UNL     1       0.636  -0.774  -1.336  0.00  0.00    +0.183 C 
BRANCH  21  23
ATOM     22  C   UNL     1      -0.550   0.516   0.445  0.00  0.00    +0.006 C 
ATOM     23  C   UNL     1      -0.011  -0.860   0.048  0.00  0.00    +0.030 C 
ENDBRANCH  21  23
BRANCH  21  24
ATOM     24  N   UNL     1       1.825   0.080  -1.266  0.00  0.00    -0.196 N 
BRANCH  24  25
ATOM     25  C   UNL     1       2.885  -0.267  -0.426  0.00  0.00    +0.052 A 
ATOM     26  C   UNL     1       2.727  -0.212   0.953  0.00  0.00    +0.025 A 
ATOM     27  C   UNL     1       3.778  -0.556   1.781  0.00  0.00    +0.005 A 
ATOM     28  C   UNL     1       4.986  -0.953   1.239  0.00  0.00    -0.050 A 
ATOM     29  C   UNL     1       5.147  -1.008  -0.133  0.00  0.00    +0.005 A 
ATOM     30  C   UNL     1       4.099  -0.672  -0.967  0.00  0.00    +0.025 A 
ATOM     31  C   UNL     1       6.130  -1.326   2.146  0.00  0.00    +0.044 C 
ENDBRANCH  24  25
BRANCH  24  32
ATOM     32  S   UNL     1       1.911   1.455  -2.184  0.00  0.00    +0.043 S 
ATOM     33  O   UNL     1       3.297   1.630  -2.446  0.00  0.00    -0.155 OA
ATOM     34  O   UNL     1       0.995   1.239  -3.249  0.00  0.00    -0.155 OA
ATOM     35  C   UNL     1       1.308   2.778  -1.100  0.00  0.00    +0.218 C 
ENDBRANCH  24  32
ENDBRANCH  21  24
ENDBRANCH   1  21
TORSDOF 9
