REMARK  Name = ZINC33598420
REMARK  10 active torsions:
REMARK  status: ('A' for Active; 'I' for Inactive)
REMARK    1  A    between atoms: C_1  and  C_2
REMARK    2  A    between atoms: C_2  and  C_3
REMARK    3  A    between atoms: C_7  and  C_39
REMARK    4  A    between atoms: C_8  and  N_9
REMARK    5  A    between atoms: C_14  and  C_32
REMARK    6  A    between atoms: C_17  and  C_22
REMARK    7  A    between atoms: C_17  and  C_29
REMARK    8  A    between atoms: C_22  and  C_23
REMARK    9  A    between atoms: C_37  and  C_38
REMARK   10  A    between atoms: C_39  and  C_40
REMARK                            x       y       z     vdW  Elec       q    Type
REMARK                         _______ _______ _______ _____ _____    ______ ____
ROOT
ATOM      1  N   UNL     1      -0.574   0.346   2.092  0.00  0.00    -0.209 N 
ATOM      2  C   UNL     1       0.728   0.648   2.406  0.00  0.00    +0.229 C 
ATOM      3  O   UNL     1       1.675   0.698   1.651  0.00  0.00    -0.275 OA
ATOM      4  C   UNL     1       0.729   0.895   3.822  0.00  0.00    +0.077 C 
ATOM      5  C   UNL     1       1.528   1.508   4.892  0.00  0.00    -0.026 C 
ATOM      6  N   UNL     1       0.607   1.424   6.077  0.00  0.00    +0.395 N 
ATOM      7  C   UNL     1      -0.791   1.306   5.564  0.00  0.00    +0.048 C 
ATOM      8  C   UNL     1      -0.699   1.508   4.062  0.00  0.00    +0.086 C 
ATOM      9  C   UNL     1      -1.442   0.626   3.109  0.00  0.00    +0.229 C 
ATOM     10  O   UNL     1      -2.585   0.238   3.218  0.00  0.00    -0.275 OA
ATOM     11  H   UNL     1       0.866   0.541   6.681  0.00  0.00    -0.083 HD
ATOM     12  H   UNL     1       0.713   2.331   6.689  0.00  0.00    -0.083 HD
ENDROOT
BRANCH   5  13
ATOM     13  C   UNL     1       2.788   0.720   5.137  0.00  0.00    -0.058 A 
ATOM     14  C   UNL     1       2.766  -0.376   5.981  0.00  0.00    +0.002 A 
ATOM     15  C   UNL     1       3.921  -1.101   6.202  0.00  0.00    +0.000 A 
ATOM     16  C   UNL     1       5.101  -0.726   5.588  0.00  0.00    +0.000 A 
ATOM     17  C   UNL     1       5.125   0.372   4.748  0.00  0.00    +0.003 A 
ATOM     18  C   UNL     1       3.968   1.095   4.524  0.00  0.00    -0.049 A 
ATOM     19  C   UNL     1       3.994   2.292   3.609  0.00  0.00    +0.044 C 
ENDBRANCH   5  13
BRANCH   1  25
ATOM     20  C   UNL     1      -1.322   0.641  -0.188  0.00  0.00    -0.026 A 
ATOM     21  C   UNL     1      -1.716   0.103  -1.397  0.00  0.00    +0.005 A 
ATOM     22  C   UNL     1      -1.751  -1.268  -1.567  0.00  0.00    +0.001 A 
ATOM     23  C   UNL     1      -1.399  -2.106  -0.524  0.00  0.00    +0.005 A 
ATOM     24  C   UNL     1      -1.009  -1.574   0.689  0.00  0.00    -0.026 A 
ATOM     25  C   UNL     1      -0.969  -0.197   0.861  0.00  0.00    +0.050 A 
BRANCH  20  27
ATOM     26  C   UNL     1       0.139   2.644  -0.271  0.00  0.00    +0.009 C 
ATOM     27  C   UNL     1      -1.280   2.137  -0.005  0.00  0.00    +0.033 C 
ENDBRANCH  20  27
BRANCH  24  28
ATOM     28  C   UNL     1      -0.627  -2.487   1.826  0.00  0.00    +0.033 C 
ATOM     29  C   UNL     1      -1.842  -2.712   2.729  0.00  0.00    +0.009 C 
ENDBRANCH  24  28
ENDBRANCH   1  25
BRANCH   7  30
ATOM     30  C   UNL     1      -1.662   2.372   6.179  0.00  0.00    +0.346 C 
ATOM     31  O   UNL     1      -2.506   2.921   5.512  0.00  0.00    -0.248 OA
ATOM     32  O   UNL     1      -1.499   2.710   7.468  0.00  0.00    -0.248 OA
ENDBRANCH   7  30
BRANCH   7  33
ATOM     33  C   UNL     1      -1.355  -0.081   5.877  0.00  0.00    +0.003 C 
BRANCH  33  34
ATOM     34  C   UNL     1      -1.669  -0.179   7.371  0.00  0.00    -0.012 C 
ATOM     35  C   UNL     1      -0.382   0.010   8.177  0.00  0.00    +0.003 C 
ATOM     36  C   UNL     1      -0.697  -0.088   9.671  0.00  0.00    +0.000 C 
ATOM     37  C   UNL     1      -1.294  -1.463   9.978  0.00  0.00    +0.000 C 
ATOM     38  C   UNL     1      -2.581  -1.651   9.172  0.00  0.00    +0.000 C 
ATOM     39  C   UNL     1      -2.267  -1.553   7.678  0.00  0.00    +0.003 C 
ENDBRANCH  33  34
ENDBRANCH   7  33
TORSDOF 7
