REMARK  Name = ZINC36579643
REMARK  15 active torsions:
REMARK  status: ('A' for Active; 'I' for Inactive)
REMARK    1  A    between atoms: C_1  and  C_2
REMARK    2  A    between atoms: C_5  and  S_8
REMARK    3  A    between atoms: S_8  and  C_11
REMARK    4  A    between atoms: C_11  and  N_12
REMARK    5  A    between atoms: C_13  and  C_15
REMARK    6  A    between atoms: C_15  and  C_17
REMARK    7  A    between atoms: C_15  and  N_24
REMARK    8  A    between atoms: C_20  and  O_23
REMARK    9  A    between atoms: N_24  and  C_35
REMARK   10  A    between atoms: C_25  and  C_27
REMARK   11  A    between atoms: C_32  and  O_33
REMARK   12  A    between atoms: O_33  and  C_34
REMARK   13  A    between atoms: C_35  and  C_36
REMARK   14  A    between atoms: C_35  and  C_37
REMARK   15  A    between atoms: C_35  and  C_38
REMARK                            x       y       z     vdW  Elec       q    Type
REMARK                         _______ _______ _______ _____ _____    ______ ____
ROOT
ATOM      1  C   UNL     1       4.562  -9.640   4.358  0.00  0.00    +0.193 C 
ENDROOT
BRANCH   1   2
ATOM      2  C   UNL     1       4.682 -11.140   4.439  0.00  0.00    -0.018 A 
ATOM      3  C   UNL     1       3.650 -11.887   4.977  0.00  0.00    +0.009 A 
ATOM      4  C   UNL     1       3.758 -13.262   5.053  0.00  0.00    +0.046 A 
ATOM      5  C   UNL     1       4.903 -13.894   4.589  0.00  0.00    +0.117 A 
ATOM      6  C   UNL     1       5.937 -13.142   4.050  0.00  0.00    +0.046 A 
ATOM      7  C   UNL     1       5.822 -11.767   3.971  0.00  0.00    +0.009 A 
BRANCH   5   8
ATOM      8  O   UNL     1       5.012 -15.246   4.663  0.00  0.00    -0.507 OA
ATOM      9  H   UNL     1       4.679 -15.711   3.883  0.00  0.00    +0.292 HD
ENDBRANCH   5   8
ENDBRANCH   1   2
BRANCH   1  11
ATOM     10  N   UNL     1       5.665  -9.399   2.157  0.00  0.00    -0.294 N 
ATOM     11  C   UNL     1       4.564  -9.213   2.913  0.00  0.00    +0.239 C 
ATOM     12  O   UNL     1       3.576  -8.703   2.430  0.00  0.00    -0.273 OA
ATOM     13  H   UNL     1       6.455  -9.807   2.544  0.00  0.00    +0.150 HD
BRANCH  10  14
ATOM     14  C   UNL     1       5.667  -8.984   0.752  0.00  0.00    +0.278 C 
BRANCH  14  15
ATOM     15  S   UNL     1       6.380  -7.322   0.614  0.00  0.00    +0.013 S 
ATOM     16  O   UNL     1       5.806  -6.460   1.587  0.00  0.00    -0.168 OA
ATOM     17  O   UNL     1       6.448  -6.931  -0.751  0.00  0.00    -0.168 OA
BRANCH  15  22
ATOM     18  C   UNL     1      12.133  -7.953   2.319  0.00  0.00    +0.044 C 
ATOM     19  C   UNL     1      10.697  -7.795   1.893  0.00  0.00    -0.050 A 
ATOM     20  C   UNL     1      10.348  -7.952   0.565  0.00  0.00    +0.005 A 
ATOM     21  C   UNL     1       9.030  -7.808   0.174  0.00  0.00    +0.027 A 
ATOM     22  C   UNL     1       8.060  -7.507   1.112  0.00  0.00    +0.090 A 
ATOM     23  C   UNL     1       8.408  -7.351   2.441  0.00  0.00    +0.027 A 
ATOM     24  C   UNL     1       9.726  -7.500   2.832  0.00  0.00    +0.005 A 
ENDBRANCH  15  22
ENDBRANCH  14  15
ENDBRANCH  10  14
ENDBRANCH   1  11
BRANCH   1  25
ATOM     25  N   UNL     1       3.310  -9.216   4.991  0.00  0.00    -0.277 N 
ATOM     26  C   UNL     1       2.149  -9.812   4.654  0.00  0.00    +0.251 C 
ATOM     27  O   UNL     1       2.053 -10.402   3.596  0.00  0.00    -0.270 OA
BRANCH  26  28
ATOM     28  C   UNL     1       0.995  -9.748   5.571  0.00  0.00    +0.078 A 
ATOM     29  C   UNL     1       0.504  -8.512   5.997  0.00  0.00    +0.017 A 
ATOM     30  C   UNL     1      -0.575  -8.459   6.853  0.00  0.00    +0.001 A 
ATOM     31  C   UNL     1      -1.176  -9.627   7.292  0.00  0.00    +0.004 A 
ATOM     32  C   UNL     1      -0.702 -10.855   6.878  0.00  0.00    +0.046 A 
ATOM     33  C   UNL     1       0.380 -10.927   6.013  0.00  0.00    +0.132 A 
BRANCH  33  34
ATOM     34  O   UNL     1       0.845 -12.133   5.602  0.00  0.00    -0.494 OA
ATOM     35  C   UNL     1       0.168 -13.292   6.094  0.00  0.00    +0.277 C 
ENDBRANCH  33  34
ENDBRANCH  26  28
BRANCH  25  36
ATOM     36  C   UNL     1       3.321  -8.143   5.989  0.00  0.00    +0.030 C 
ATOM     37  C   UNL     1       4.743  -7.956   6.521  0.00  0.00    +0.031 C 
ATOM     38  C   UNL     1       2.842  -6.841   5.343  0.00  0.00    +0.031 C 
ATOM     39  C   UNL     1       2.388  -8.512   7.144  0.00  0.00    +0.031 C 
ENDBRANCH  25  36
ENDBRANCH   1  25
TORSDOF 10
