REMARK  Name = ZINC05055708
REMARK  5 active torsions:
REMARK  status: ('A' for Active; 'I' for Inactive)
REMARK    1  A    between atoms: C_1  and  N_2
REMARK    2  A    between atoms: C_3  and  C_5
REMARK    3  A    between atoms: C_9  and  N_10
REMARK    4  A    between atoms: C_11  and  C_13
REMARK    5  A    between atoms: C_17  and  N_22
REMARK                            x       y       z     vdW  Elec       q    Type
REMARK                         _______ _______ _______ _____ _____    ______ ____
ROOT
ATOM      1  N   UNL     1      -2.395  -0.459   0.023  0.00  0.00    -0.275 N 
ATOM      2  C   UNL     1      -1.135  -0.935   0.008  0.00  0.00    +0.255 C 
ATOM      3  O   UNL     1      -0.937  -2.136   0.000  0.00  0.00    -0.269 OA
ATOM      4  H   UNL     1      -2.553   0.498   0.029  0.00  0.00    +0.156 HD
ENDROOT
BRANCH   2   5
ATOM      5  C   UNL     1       0.002  -0.004   0.002  0.00  0.00    +0.075 A 
ATOM      6  C   UNL     1       1.331  -0.290  -0.012  0.00  0.00    +0.029 A 
ATOM      7  C   UNL     1       2.274   0.754  -0.016  0.00  0.00    -0.008 A 
ATOM      8  C   UNL     1       3.689   0.660  -0.030  0.00  0.00    +0.041 A 
ATOM      9  C   UNL     1       4.460   1.778  -0.032  0.00  0.00    +0.127 A 
ATOM     10  C   UNL     1       3.899   3.050  -0.020  0.00  0.00    +0.034 A 
ATOM     11  C   UNL     1       2.526   3.187  -0.005  0.00  0.00    +0.018 A 
ATOM     12  C   UNL     1       1.730   2.061  -0.003  0.00  0.00    +0.020 A 
ATOM     13  S   UNL     1      -0.022   1.780   0.012  0.00  0.00    -0.084 S 
BRANCH   9  14
ATOM     14  N   UNL     1       5.933   1.639  -0.048  0.00  0.00    +0.056 N 
ATOM     15  O   UNL     1       6.639   2.632  -0.050  0.00  0.00    -0.126 OA
ATOM     16  O   UNL     1       6.441   0.532  -0.058  0.00  0.00    -0.126 OA
ENDBRANCH   9  14
ENDBRANCH   2   5
BRANCH   1  21
ATOM     17  C   UNL     1      -4.820  -1.044   0.049  0.00  0.00    +0.069 A 
ATOM     18  C   UNL     1      -5.757  -2.167   0.047  0.00  0.00    -0.023 A 
ATOM     19  C   UNL     1      -5.187  -3.385   0.035  0.00  0.00    -0.004 A 
ATOM     20  S   UNL     1      -3.440  -3.068   0.020  0.00  0.00    -0.077 S 
ATOM     21  C   UNL     1      -3.467  -1.337   0.029  0.00  0.00    +0.085 A 
ATOM     22  C   UNL     1      -6.212  -4.487   0.036  0.00  0.00    +0.043 C 
ATOM     23  C   UNL     1      -7.527  -3.795  -0.386  0.00  0.00    +0.010 C 
ATOM     24  C   UNL     1      -7.276  -2.342   0.062  0.00  0.00    +0.037 C 
BRANCH  17  27
ATOM     25  C   UNL     1      -5.976   2.356   1.261  0.00  0.00    +0.128 C 
ATOM     26  N   UNL     1      -5.500   0.970   1.242  0.00  0.00    -0.314 N 
ATOM     27  C   UNL     1      -5.296   0.343   0.067  0.00  0.00    +0.246 C 
ATOM     28  O   UNL     1      -5.508   0.927  -0.979  0.00  0.00    -0.270 OA
ATOM     29  H   UNL     1      -5.331   0.504   2.076  0.00  0.00    +0.149 HD
ENDBRANCH  17  27
ENDBRANCH   1  21
TORSDOF 4
