REMARK  Name = ZINC39836399
REMARK  11 active torsions:
REMARK  status: ('A' for Active; 'I' for Inactive)
REMARK    1  A    between atoms: C_1  and  C_2
REMARK    2  A    between atoms: C_5  and  C_35
REMARK    3  A    between atoms: C_6  and  O_8
REMARK    4  A    between atoms: O_8  and  C_9
REMARK    5  A    between atoms: C_9  and  C_10
REMARK    6  A    between atoms: N_12  and  C_13
REMARK    7  A    between atoms: C_14  and  C_24
REMARK    8  A    between atoms: C_19  and  C_23
REMARK    9  A    between atoms: N_26  and  C_27
REMARK   10  A    between atoms: C_35  and  C_36
REMARK   11  A    between atoms: C_35  and  C_37
REMARK                            x       y       z     vdW  Elec       q    Type
REMARK                         _______ _______ _______ _____ _____    ______ ____
ROOT
ATOM      1  C   UNL     1       0.078  -3.277   7.094  0.00  0.00    +0.084 A 
ATOM      2  C   UNL     1       0.074  -2.939   8.438  0.00  0.00    +0.069 A 
ATOM      3  C   UNL     1       0.095  -4.029   9.397  0.00  0.00    -0.023 A 
ATOM      4  C   UNL     1       0.116  -5.258   8.837  0.00  0.00    -0.004 A 
ATOM      5  S   UNL     1       0.100  -4.957   7.094  0.00  0.00    -0.077 S 
ATOM      6  C   UNL     1       0.141  -6.573   9.553  0.00  0.00    +0.046 C 
ATOM      7  C   UNL     1       0.521  -6.316  11.019  0.00  0.00    -0.009 C 
ATOM      8  C   UNL     1      -0.335  -5.167  11.559  0.00  0.00    +0.008 C 
ATOM      9  C   UNL     1       0.092  -3.849  10.908  0.00  0.00    +0.037 C 
ATOM     10  C   UNL     1       0.265  -7.580  11.843  0.00  0.00    +0.008 C 
ENDROOT
BRANCH   1  13
ATOM     11  C   UNL     1       0.063  -2.932   4.751  0.00  0.00    +0.255 C 
ATOM     12  O   UNL     1       0.078  -4.133   4.584  0.00  0.00    -0.272 OA
ATOM     13  N   UNL     1       0.062  -2.425   6.000  0.00  0.00    -0.277 N 
ATOM     14  H   UNL     1       0.050  -1.465   6.134  0.00  0.00    +0.155 HD
BRANCH  11  15
ATOM     15  C   UNL     1       0.045  -2.006   3.562  0.00  0.00    +0.324 C 
BRANCH  15  16
ATOM     16  O   UNL     1       0.050  -2.776   2.358  0.00  0.00    -0.482 OA
BRANCH  16  22
ATOM     17  C   UNL     1      -0.018   1.503   0.010  0.00  0.00    +0.044 C 
ATOM     18  C   UNL     1       0.002  -0.004   0.002  0.00  0.00    -0.047 A 
ATOM     19  C   UNL     1       0.006  -0.688  -1.200  0.00  0.00    +0.004 A 
ATOM     20  C   UNL     1       0.024  -2.071  -1.211  0.00  0.00    +0.008 A 
ATOM     21  C   UNL     1       0.039  -2.772  -0.020  0.00  0.00    -0.003 A 
ATOM     22  C   UNL     1       0.035  -2.088   1.186  0.00  0.00    +0.125 A 
ATOM     23  C   UNL     1       0.023  -0.700   1.195  0.00  0.00    +0.049 A 
BRANCH  21  24
ATOM     24  C   UNL     1       0.059  -4.279  -0.033  0.00  0.00    +0.016 C 
ATOM     25  C   UNL     1      -1.188  -4.799  -0.753  0.00  0.00    +0.012 C 
ATOM     26  C   UNL     1       1.311  -4.766  -0.764  0.00  0.00    +0.012 C 
ENDBRANCH  21  24
ENDBRANCH  16  22
ENDBRANCH  15  16
ENDBRANCH  11  15
ENDBRANCH   1  13
BRANCH   2  27
ATOM     27  C   UNL     1       0.051  -1.539   8.873  0.00  0.00    +0.247 C 
ATOM     28  O   UNL     1      -1.013  -0.976   9.055  0.00  0.00    -0.270 OA
ATOM     29  N   UNL     1       1.207  -0.875   9.071  0.00  0.00    -0.307 N 
ATOM     30  H   UNL     1       2.055  -1.324   8.925  0.00  0.00    +0.149 HD
BRANCH  29  31
ATOM     31  C   UNL     1       1.184   0.523   9.505  0.00  0.00    +0.096 C 
ATOM     32  C   UNL     1       1.074   1.446   8.280  0.00  0.00    +0.046 C 
ATOM     33  C   UNL     1       1.369   2.909   8.693  0.00  0.00    +0.168 C 
ATOM     34  S   UNL     1       2.496   2.703  10.132  0.00  0.00    -0.029 S 
ATOM     35  O   UNL     1       1.870   3.238  11.290  0.00  0.00    -0.174 OA
ATOM     36  O   UNL     1       3.795   3.150   9.769  0.00  0.00    -0.174 OA
ATOM     37  C   UNL     1       2.506   0.864  10.251  0.00  0.00    +0.188 C 
ENDBRANCH  29  31
ENDBRANCH   2  27
TORSDOF 7
