REMARK  Name = ZINC12034683
REMARK  6 active torsions:
REMARK  status: ('A' for Active; 'I' for Inactive)
REMARK    1  A    between atoms: C_6  and  C_11
REMARK    2  A    between atoms: C_11  and  C_12
REMARK    3  A    between atoms: C_12  and  C_18
REMARK    4  A    between atoms: C_18  and  C_19
REMARK    5  A    between atoms: C_19  and  C_20
REMARK    6  A    between atoms: N_22  and  C_23
REMARK                            x       y       z     vdW  Elec       q    Type
REMARK                         _______ _______ _______ _____ _____    ______ ____
ROOT
ATOM      1  C   UNL     1      -0.927  -0.486   7.070  0.00  0.00    +0.039 C 
ATOM      2  C   UNL     1      -1.061   0.366   8.351  0.00  0.00    +0.035 C 
ATOM      3  C   UNL     1      -0.365  -0.531   9.401  0.00  0.00    +0.098 C 
ATOM      4  C   UNL     1       0.582  -1.385   8.588  0.00  0.00    +0.214 C 
ATOM      5  O   UNL     1       1.509  -2.021   9.044  0.00  0.00    -0.276 OA
ATOM      6  N   UNL     1       0.248  -1.338   7.287  0.00  0.00    -0.309 N 
ATOM      7  H   UNL     1       0.723  -1.806   6.582  0.00  0.00    +0.149 HD
ENDROOT
BRANCH   1   8
ATOM      8  C   UNL     1      -2.177  -1.345   6.872  0.00  0.00    +0.061 C 
BRANCH   8  14
ATOM      9  C   UNL     1      -3.549  -4.571  12.297  0.00  0.00    +0.001 A 
ATOM     10  C   UNL     1      -4.243  -3.363  12.291  0.00  0.00    +0.001 A 
ATOM     11  C   UNL     1      -4.126  -2.492  11.251  0.00  0.00    +0.008 A 
ATOM     12  C   UNL     1      -3.293  -2.813  10.166  0.00  0.00    -0.018 A 
ATOM     13  C   UNL     1      -3.147  -1.940   9.075  0.00  0.00    +0.012 A 
ATOM     14  C   UNL     1      -2.331  -2.284   8.041  0.00  0.00    -0.045 A 
ATOM     15  C   UNL     1      -1.641  -3.495   8.044  0.00  0.00    +0.004 A 
ATOM     16  C   UNL     1      -1.753  -4.363   9.087  0.00  0.00    +0.009 A 
ATOM     17  C   UNL     1      -2.586  -4.042  10.172  0.00  0.00    -0.018 A 
ATOM     18  C   UNL     1      -2.732  -4.915  11.263  0.00  0.00    +0.008 A 
ENDBRANCH   8  14
ENDBRANCH   1   8
BRANCH   1  19
ATOM     19  C   UNL     1      -0.709   0.417   5.854  0.00  0.00    +0.035 C 
BRANCH  19  20
ATOM     20  C   UNL     1      -0.449  -0.446   4.618  0.00  0.00    +0.098 C 
BRANCH  20  21
ATOM     21  C   UNL     1      -0.318   0.440   3.405  0.00  0.00    +0.213 C 
ATOM     22  O   UNL     1      -0.423   1.643   3.519  0.00  0.00    -0.276 OA
ATOM     23  N   UNL     1      -0.085  -0.105   2.195  0.00  0.00    -0.312 N 
ATOM     24  H   UNL     1      -0.001  -1.067   2.104  0.00  0.00    +0.149 HD
BRANCH  23  25
ATOM     25  C   UNL     1       0.043   0.755   1.016  0.00  0.00    +0.082 C 
ATOM     26  C   UNL     1       0.886   0.067  -0.077  0.00  0.00    +0.058 C 
ATOM     27  C   UNL     1       0.266   0.497  -1.389  0.00  0.00    -0.042 A 
ATOM     28  C   UNL     1       0.772   0.456  -2.678  0.00  0.00    +0.004 A 
ATOM     29  C   UNL     1       0.012   0.911  -3.738  0.00  0.00    +0.000 A 
ATOM     30  C   UNL     1      -1.258   1.409  -3.513  0.00  0.00    +0.000 A 
ATOM     31  C   UNL     1      -1.764   1.451  -2.229  0.00  0.00    +0.004 A 
ATOM     32  C   UNL     1      -1.004   0.996  -1.164  0.00  0.00    -0.042 A 
ATOM     33  C   UNL     1      -1.323   0.934   0.314  0.00  0.00    +0.058 C 
ENDBRANCH  23  25
ENDBRANCH  20  21
ENDBRANCH  19  20
ENDBRANCH   1  19
TORSDOF 6
