REMARK  Name = ZINC36967161
REMARK  3 active torsions:
REMARK  status: ('A' for Active; 'I' for Inactive)
REMARK    1  A    between atoms: C_3  and  N_11
REMARK    2  A    between atoms: C_4  and  N_8
REMARK    3  A    between atoms: N_11  and  C_12
REMARK                            x       y       z     vdW  Elec       q    Type
REMARK                         _______ _______ _______ _____ _____    ______ ____
ROOT
ATOM      1  C   UNL     1      -0.011   1.390   0.033  0.00  0.00    +0.040 A 
ATOM      2  C   UNL     1       1.172   2.059   0.278  0.00  0.00    +0.028 A 
ATOM      3  C   UNL     1       2.378   1.372   0.241  0.00  0.00    +0.058 A 
ATOM      4  C   UNL     1       2.392   0.012  -0.044  0.00  0.00    +0.150 A 
ATOM      5  C   UNL     1       1.207  -0.653  -0.288  0.00  0.00    +0.073 A 
ATOM      6  C   UNL     1       0.005   0.035  -0.250  0.00  0.00    +0.126 A 
ATOM      7  F   UNL     1      -1.153  -0.618  -0.490  0.00  0.00    -0.205 F 
ENDROOT
BRANCH   4   8
ATOM      8  N   UNL     1       3.676  -0.723  -0.085  0.00  0.00    +0.058 N 
ATOM      9  O   UNL     1       4.662  -0.192  -0.539  0.00  0.00    -0.126 OA
ATOM     10  O   UNL     1       3.738  -1.855   0.336  0.00  0.00    -0.126 OA
ENDBRANCH   4   8
BRANCH   3  11
ATOM     11  N   UNL     1       3.577   2.047   0.488  0.00  0.00    -0.339 N 
ATOM     12  H   UNL     1       4.410   1.553   0.544  0.00  0.00    +0.146 HD
BRANCH  11  13
ATOM     13  C   UNL     1       3.576   3.502   0.663  0.00  0.00    +0.073 C 
ATOM     14  C   UNL     1       3.616   4.173  -0.706  0.00  0.00    +0.045 C 
ATOM     15  C   UNL     1       3.344   5.673  -0.561  0.00  0.00    +0.167 C 
ATOM     16  S   UNL     1       4.672   6.417   0.432  0.00  0.00    -0.031 S 
ATOM     17  O   UNL     1       4.279   7.733   0.798  0.00  0.00    -0.174 OA
ATOM     18  O   UNL     1       5.905   6.226  -0.247  0.00  0.00    -0.174 OA
ATOM     19  C   UNL     1       4.661   5.375   1.920  0.00  0.00    +0.167 C 
ATOM     20  C   UNL     1       4.786   3.908   1.499  0.00  0.00    +0.045 C 
ENDBRANCH  11  13
ENDBRANCH   3  11
TORSDOF 3
