REMARK  Name = ZINC09891959
REMARK  7 active torsions:
REMARK  status: ('A' for Active; 'I' for Inactive)
REMARK    1  A    between atoms: C_1  and  C_2
REMARK    2  A    between atoms: C_2  and  N_3
REMARK    3  A    between atoms: N_3  and  C_4
REMARK    4  A    between atoms: C_6  and  N_13
REMARK    5  A    between atoms: C_9  and  N_10
REMARK    6  A    between atoms: N_16  and  S_19
REMARK    7  A    between atoms: S_19  and  C_22
REMARK                            x       y       z     vdW  Elec       q    Type
REMARK                         _______ _______ _______ _____ _____    ______ ____
ROOT
ATOM      1  N   UNL     1       0.062  -4.172  -0.046  0.00  0.00    -0.327 N 
ATOM      2  C   UNL     1      -0.594  -4.727   1.145  0.00  0.00    +0.122 C 
ATOM      3  C   UNL     1      -0.709  -6.248   0.998  0.00  0.00    +0.128 C 
ATOM      4  N   UNL     1       0.627  -6.793   0.714  0.00  0.00    -0.174 NA
ATOM      5  C   UNL     1       1.405  -6.193  -0.381  0.00  0.00    +0.128 C 
ATOM      6  C   UNL     1       1.437  -4.674  -0.180  0.00  0.00    +0.122 C 
ENDROOT
BRANCH   1   9
ATOM      7  C   UNL     1      -1.186  -0.715   0.120  0.00  0.00    +0.059 A 
ATOM      8  C   UNL     1      -1.168  -2.103   0.095  0.00  0.00    +0.048 A 
ATOM      9  C   UNL     1       0.039  -2.776  -0.025  0.00  0.00    +0.032 A 
ATOM     10  C   UNL     1       1.226  -2.058  -0.125  0.00  0.00    +0.025 A 
ATOM     11  C   UNL     1       1.204  -0.677  -0.105  0.00  0.00    +0.036 A 
ATOM     12  C   UNL     1       0.003  -0.004   0.014  0.00  0.00    +0.147 A 
BRANCH  12  13
ATOM     13  N   UNL     1      -0.015   1.476   0.035  0.00  0.00    +0.058 N 
ATOM     14  O   UNL     1       1.031   2.098   0.062  0.00  0.00    -0.126 OA
ATOM     15  O   UNL     1      -1.078   2.071   0.021  0.00  0.00    -0.126 OA
ENDBRANCH  12  13
BRANCH   7  16
ATOM     16  N   UNL     1      -2.399  -0.034   0.247  0.00  0.00    -0.342 N 
ATOM     17  H   UNL     1      -2.420   0.934   0.184  0.00  0.00    +0.146 HD
BRANCH  16  19
ATOM     18  C   UNL     1      -4.811   0.197   0.577  0.00  0.00    +0.024 C 
ATOM     19  C   UNL     1      -3.638  -0.780   0.476  0.00  0.00    +0.098 C 
ENDBRANCH  16  19
ENDBRANCH   7  16
ENDBRANCH   1   9
BRANCH   4  20
ATOM     20  S   UNL     1       1.240  -8.048   1.603  0.00  0.00    +0.061 S 
ATOM     21  O   UNL     1       0.126  -8.742   2.147  0.00  0.00    -0.153 OA
ATOM     22  O   UNL     1       2.212  -8.688   0.787  0.00  0.00    -0.153 OA
BRANCH  20  23
ATOM     23  C   UNL     1       2.110  -7.346   2.965  0.00  0.00    +0.106 A 
ATOM     24  C   UNL     1       3.455  -7.050   2.847  0.00  0.00    +0.030 A 
ATOM     25  C   UNL     1       4.137  -6.494   3.913  0.00  0.00    +0.022 A 
ATOM     26  C   UNL     1       3.476  -6.244   5.102  0.00  0.00    +0.041 A 
ATOM     27  C   UNL     1       2.131  -6.546   5.222  0.00  0.00    +0.022 A 
ATOM     28  C   UNL     1       1.449  -7.097   4.153  0.00  0.00    +0.030 A 
ATOM     29 CL   UNL     1       4.333  -5.552   6.444  0.00  0.00    -0.084 Cl
ENDBRANCH  20  23
ENDBRANCH   4  20
TORSDOF 6
