REMARK  Name = ZINC36570676
REMARK  9 active torsions:
REMARK  status: ('A' for Active; 'I' for Inactive)
REMARK    1  A    between atoms: C_1  and  C_2
REMARK    2  A    between atoms: C_2  and  C_3
REMARK    3  A    between atoms: C_3  and  N_4
REMARK    4  A    between atoms: N_4  and  C_5
REMARK    5  A    between atoms: C_5  and  C_7
REMARK    6  A    between atoms: C_5  and  C_21
REMARK    7  A    between atoms: N_23  and  C_24
REMARK    8  A    between atoms: C_30  and  C_32
REMARK    9  A    between atoms: C_35  and  O_38
REMARK                            x       y       z     vdW  Elec       q    Type
REMARK                         _______ _______ _______ _____ _____    ______ ____
ROOT
ATOM      1  C   UNL     1      -0.387  -2.836  -1.929  0.00  0.00    +0.193 C 
ENDROOT
BRANCH   1   2
ATOM      2  C   UNL     1      -1.773  -2.453  -1.478  0.00  0.00    -0.010 A 
ATOM      3  C   UNL     1      -2.027  -1.172  -1.142  0.00  0.00    +0.015 A 
ATOM      4  C   UNL     1      -3.311  -0.763  -0.712  0.00  0.00    -0.017 A 
ATOM      5  C   UNL     1      -3.565   0.571  -0.365  0.00  0.00    +0.008 A 
ATOM      6  C   UNL     1      -4.813   0.938   0.045  0.00  0.00    +0.001 A 
ATOM      7  C   UNL     1      -5.841   0.006   0.127  0.00  0.00    +0.001 A 
ATOM      8  C   UNL     1      -5.625  -1.302  -0.204  0.00  0.00    +0.009 A 
ATOM      9  C   UNL     1      -4.358  -1.708  -0.628  0.00  0.00    -0.010 A 
ATOM     10  C   UNL     1      -4.082  -3.100  -0.993  0.00  0.00    -0.010 A 
ATOM     11  C   UNL     1      -2.780  -3.444  -1.421  0.00  0.00    -0.012 A 
ATOM     12  C   UNL     1      -2.507  -4.772  -1.777  0.00  0.00    +0.009 A 
ATOM     13  C   UNL     1      -3.497  -5.708  -1.713  0.00  0.00    +0.001 A 
ATOM     14  C   UNL     1      -4.778  -5.364  -1.297  0.00  0.00    +0.001 A 
ATOM     15  C   UNL     1      -5.073  -4.082  -0.932  0.00  0.00    +0.009 A 
ENDBRANCH   1   2
BRANCH   1  16
ATOM     16  C   UNL     1      -0.285  -2.681  -3.425  0.00  0.00    +0.238 C 
ATOM     17  O   UNL     1       0.587  -1.988  -3.905  0.00  0.00    -0.273 OA
ATOM     18  N   UNL     1      -1.163  -3.312  -4.229  0.00  0.00    -0.311 N 
ATOM     19  H   UNL     1      -1.861  -3.866  -3.845  0.00  0.00    +0.149 HD
BRANCH  18  20
ATOM     20  C   UNL     1      -1.065  -3.162  -5.683  0.00  0.00    +0.073 C 
ATOM     21  C   UNL     1      -1.804  -1.894  -6.116  0.00  0.00    +0.022 C 
ATOM     22  C   UNL     1      -1.701  -1.737  -7.634  0.00  0.00    +0.002 C 
ATOM     23  C   UNL     1      -2.330  -2.953  -8.317  0.00  0.00    +0.000 C 
ATOM     24  C   UNL     1      -1.591  -4.221  -7.884  0.00  0.00    +0.002 C 
ATOM     25  C   UNL     1      -1.694  -4.378  -6.365  0.00  0.00    +0.022 C 
ENDBRANCH  18  20
ENDBRANCH   1  16
BRANCH   1  26
ATOM     26  N   UNL     1       0.596  -1.964  -1.280  0.00  0.00    -0.282 N 
ATOM     27  C   UNL     1       0.826  -2.077   0.043  0.00  0.00    +0.247 C 
ATOM     28  O   UNL     1       1.711  -1.425   0.564  0.00  0.00    -0.270 OA
BRANCH  27  29
ATOM     29  C   UNL     1       0.005  -2.991   0.860  0.00  0.00    +0.037 A 
ATOM     30  C   UNL     1      -0.940  -3.820   0.248  0.00  0.00    +0.016 A 
ATOM     31  C   UNL     1      -1.704  -4.672   1.014  0.00  0.00    +0.046 A 
ATOM     32  C   UNL     1      -1.537  -4.708   2.393  0.00  0.00    +0.117 A 
ATOM     33  C   UNL     1      -0.598  -3.886   3.006  0.00  0.00    +0.046 A 
ATOM     34  C   UNL     1       0.174  -3.035   2.246  0.00  0.00    +0.016 A 
BRANCH  32  35
ATOM     35  O   UNL     1      -2.292  -5.549   3.145  0.00  0.00    -0.507 OA
ATOM     36  H   UNL     1      -1.899  -6.423   3.272  0.00  0.00    +0.292 HD
ENDBRANCH  32  35
ENDBRANCH  27  29
BRANCH  26  37
ATOM     37  C   UNL     1       1.329  -0.971  -2.070  0.00  0.00    +0.109 C 
BRANCH  37  39
ATOM     38  C   UNL     1       3.249  -0.627  -3.631  0.00  0.00    +0.005 C 
ATOM     39  C   UNL     1       2.554  -1.629  -2.707  0.00  0.00    +0.016 C 
ENDBRANCH  37  39
ENDBRANCH  26  37
ENDBRANCH   1  26
TORSDOF 8
