REMARK  Name = ZINC38652422
REMARK  8 active torsions:
REMARK  status: ('A' for Active; 'I' for Inactive)
REMARK    1  A    between atoms: C_1  and  O_2
REMARK    2  A    between atoms: O_2  and  C_3
REMARK    3  A    between atoms: C_6  and  C_9
REMARK    4  A    between atoms: C_9  and  O_11
REMARK    5  A    between atoms: O_11  and  C_12
REMARK    6  A    between atoms: C_19  and  N_32
REMARK    7  A    between atoms: C_20  and  C_30
REMARK    8  A    between atoms: C_21  and  C_23
REMARK                            x       y       z     vdW  Elec       q    Type
REMARK                         _______ _______ _______ _____ _____    ______ ____
ROOT
ATOM      1  C   UNL     1      -6.270  -4.462   0.010  0.00  0.00    +0.135 A 
ATOM      2  C   UNL     1      -7.357  -3.601  -0.058  0.00  0.00    +0.047 A 
ATOM      3  C   UNL     1      -8.640  -4.111  -0.084  0.00  0.00    +0.012 A 
ATOM      4  C   UNL     1      -8.848  -5.479  -0.041  0.00  0.00    +0.008 A 
ATOM      5  C   UNL     1      -7.766  -6.342   0.027  0.00  0.00    +0.138 A 
ATOM      6  C   UNL     1      -6.475  -5.832   0.047  0.00  0.00    +0.093 A 
ATOM      7  O   UNL     1      -7.950  -7.685   0.069  0.00  0.00    -0.441 OA
ATOM      8  C   UNL     1      -9.143  -8.187   0.430  0.00  0.00    +0.199 C 
ATOM      9  C   UNL     1     -10.275  -7.446   0.388  0.00  0.00    +0.098 C 
ATOM     10  C   UNL     1     -10.255  -6.014  -0.070  0.00  0.00    +0.098 C 
ENDROOT
BRANCH  10  11
ATOM     11  C   UNL     1     -10.792  -5.931  -1.475  0.00  0.00    -0.034 A 
ATOM     12  C   UNL     1     -10.158  -6.611  -2.498  0.00  0.00    +0.007 A 
ATOM     13  C   UNL     1     -10.650  -6.535  -3.788  0.00  0.00    +0.038 A 
ATOM     14  C   UNL     1     -11.779  -5.779  -4.054  0.00  0.00    +0.123 A 
ATOM     15  C   UNL     1     -12.413  -5.099  -3.029  0.00  0.00    +0.038 A 
ATOM     16  C   UNL     1     -11.923  -5.180  -1.740  0.00  0.00    +0.007 A 
ATOM     17  F   UNL     1     -12.260  -5.705  -5.314  0.00  0.00    -0.205 F 
ENDBRANCH  10  11
BRANCH   8  18
ATOM     18  N   UNL     1      -9.216  -9.491   0.854  0.00  0.00    -0.328 N 
ATOM     19  H   UNL     1      -8.414 -10.035   0.890  0.00  0.00    +0.145 HD
ATOM     20  H   UNL     1     -10.070  -9.868   1.117  0.00  0.00    +0.145 HD
ENDBRANCH   8  18
BRANCH   9  21
ATOM     21  C   UNL     1     -11.517  -8.038   0.786  0.00  0.00    +0.101 C 
ATOM     22  N   UNL     1     -12.502  -8.508   1.102  0.00  0.00    -0.191 NA
ENDBRANCH   9  21
BRANCH   1  23
ATOM     23  O   UNL     1      -5.007  -3.962   0.035  0.00  0.00    -0.422 OA
BRANCH  23  24
ATOM     24  C   UNL     1      -4.283  -4.016  -1.101  0.00  0.00    +0.344 C 
ATOM     25  O   UNL     1      -4.729  -4.581  -2.080  0.00  0.00    -0.245 OA
BRANCH  24  29
ATOM     26  C   UNL     1      -0.443  -2.212  -1.257  0.00  0.00    +0.120 A 
ATOM     27  C   UNL     1      -0.951  -2.858  -2.378  0.00  0.00    +0.046 A 
ATOM     28  C   UNL     1      -2.196  -3.445  -2.332  0.00  0.00    +0.018 A 
ATOM     29  C   UNL     1      -2.949  -3.390  -1.155  0.00  0.00    +0.060 A 
ATOM     30  C   UNL     1      -2.433  -2.739  -0.030  0.00  0.00    +0.018 A 
ATOM     31  C   UNL     1      -1.185  -2.160  -0.083  0.00  0.00    +0.046 A 
BRANCH  26  33
ATOM     32  C   UNL     1       1.494  -1.726  -2.545  0.00  0.00    +0.277 C 
ATOM     33  O   UNL     1       0.785  -1.636  -1.307  0.00  0.00    -0.495 OA
ENDBRANCH  26  33
ENDBRANCH  24  29
ENDBRANCH  23  24
ENDBRANCH   1  23
TORSDOF 7
