REMARK  Name = ZINC39677904
REMARK  9 active torsions:
REMARK  status: ('A' for Active; 'I' for Inactive)
REMARK    1  A    between atoms: C_1  and  N_2
REMARK    2  A    between atoms: N_2  and  C_3
REMARK    3  A    between atoms: N_2  and  C_4
REMARK    4  A    between atoms: C_8  and  C_10
REMARK    5  A    between atoms: C_14  and  C_23
REMARK    6  A    between atoms: N_25  and  C_26
REMARK    7  A    between atoms: C_26  and  C_27
REMARK    8  A    between atoms: N_30  and  C_34
REMARK    9  A    between atoms: C_34  and  C_35
REMARK                            x       y       z     vdW  Elec       q    Type
REMARK                         _______ _______ _______ _____ _____    ______ ____
ROOT
ATOM      1  C   UNL     1      -0.035   0.045  -4.897  0.00  0.00    +0.247 C 
ATOM      2  O   UNL     1      -0.154   1.254  -4.899  0.00  0.00    -0.270 OA
ATOM      3  N   UNL     1       0.066  -0.625  -6.062  0.00  0.00    -0.296 N 
ATOM      4  C   UNL     1       0.088  -2.092  -6.268  0.00  0.00    +0.121 C 
ATOM      5  C   UNL     1      -0.754  -2.320  -7.543  0.00  0.00    +0.100 C 
ATOM      6  C   UNL     1      -0.690  -0.984  -8.301  0.00  0.00    -0.004 C 
ATOM      7  C   UNL     1       0.171  -0.059  -7.429  0.00  0.00    +0.115 C 
ATOM      8  C   UNL     1      -2.090  -0.397  -8.457  0.00  0.00    -0.010 C 
ATOM      9  C   UNL     1      -2.007   0.902  -9.263  0.00  0.00    -0.082 C 
ATOM     10  N   UNL     1      -1.419   0.627 -10.580  0.00  0.00    +0.379 N 
ATOM     11  C   UNL     1      -0.040   0.151 -10.423  0.00  0.00    -0.082 C 
ATOM     12  C   UNL     1      -0.040  -1.181  -9.666  0.00  0.00    -0.010 C 
ATOM     13  H   UNL     1      -1.966  -0.079 -11.050  0.00  0.00    -0.086 HD
ATOM     14  H   UNL     1      -1.421   1.472 -11.131  0.00  0.00    -0.086 HD
ENDROOT
BRANCH   1  19
ATOM     15  C   UNL     1      -0.553  -0.843  -1.279  0.00  0.00    +0.030 A 
ATOM     16  C   UNL     1       0.073  -2.083  -1.216  0.00  0.00    +0.023 A 
ATOM     17  C   UNL     1       0.659  -2.624  -2.344  0.00  0.00    +0.003 A 
ATOM     18  C   UNL     1       0.626  -1.938  -3.541  0.00  0.00    +0.013 A 
ATOM     19  C   UNL     1       0.001  -0.693  -3.615  0.00  0.00    +0.039 A 
ATOM     20  C   UNL     1      -0.596  -0.148  -2.478  0.00  0.00    +0.036 A 
BRANCH  15  22
ATOM     21  C   UNL     1      -1.810   1.004  -0.204  0.00  0.00    +0.129 C 
ATOM     22  N   UNL     1      -1.145  -0.300  -0.136  0.00  0.00    -0.336 N 
ATOM     23  C   UNL     1      -1.100  -1.034   1.131  0.00  0.00    +0.129 C 
ENDBRANCH  15  22
ENDBRANCH   1  19
BRANCH   5  24
ATOM     24  C   UNL     1      -0.158  -3.427  -8.375  0.00  0.00    +0.218 C 
ATOM     25  O   UNL     1       1.024  -3.683  -8.285  0.00  0.00    -0.275 OA
ATOM     26  N   UNL     1      -0.938  -4.131  -9.218  0.00  0.00    -0.313 N 
ATOM     27  H   UNL     1      -1.884  -3.926  -9.290  0.00  0.00    +0.149 HD
BRANCH  26  28
ATOM     28  C   UNL     1      -0.359  -5.206 -10.027  0.00  0.00    +0.137 C 
BRANCH  28  29
ATOM     29  C   UNL     1      -1.451  -5.840 -10.891  0.00  0.00    +0.149 C 
ATOM     30  C   UNL     1      -0.874  -7.041 -11.645  0.00  0.00    +0.118 C 
ATOM     31  N   UNL     1      -1.906  -7.598 -12.531  0.00  0.00    -0.293 NA
ATOM     32  C   UNL     1      -2.376  -6.584 -13.486  0.00  0.00    +0.113 C 
ATOM     33  C   UNL     1      -2.937  -5.387 -12.714  0.00  0.00    +0.175 C 
ATOM     34  O   UNL     1      -1.932  -4.878 -11.834  0.00  0.00    -0.372 OA
BRANCH  31  35
ATOM     35  C   UNL     1      -1.410  -8.790 -13.232  0.00  0.00    +0.119 C 
BRANCH  35  36
ATOM     36  C   UNL     1      -2.555  -9.473 -13.935  0.00  0.00    -0.033 A 
ATOM     37  C   UNL     1      -3.290 -10.442 -13.279  0.00  0.00    +0.005 A 
ATOM     38  C   UNL     1      -4.341 -11.067 -13.924  0.00  0.00    +0.000 A 
ATOM     39  C   UNL     1      -4.656 -10.723 -15.225  0.00  0.00    +0.000 A 
ATOM     40  C   UNL     1      -3.921  -9.754 -15.881  0.00  0.00    +0.000 A 
ATOM     41  C   UNL     1      -2.873  -9.125 -15.235  0.00  0.00    +0.005 A 
ENDBRANCH  35  36
ENDBRANCH  31  35
ENDBRANCH  28  29
ENDBRANCH  26  28
ENDBRANCH   5  24
TORSDOF 7
