REMARK  Name = ZINC34906044
REMARK  11 active torsions:
REMARK  status: ('A' for Active; 'I' for Inactive)
REMARK    1  A    between atoms: C_1  and  C_2
REMARK    2  A    between atoms: C_5  and  C_34
REMARK    3  A    between atoms: C_6  and  O_8
REMARK    4  A    between atoms: O_8  and  C_9
REMARK    5  A    between atoms: C_9  and  C_10
REMARK    6  A    between atoms: C_12  and  C_15
REMARK    7  A    between atoms: N_17  and  C_18
REMARK    8  A    between atoms: C_21  and  N_24
REMARK    9  A    between atoms: C_25  and  C_27
REMARK   10  A    between atoms: C_34  and  C_35
REMARK   11  A    between atoms: C_34  and  C_36
REMARK                            x       y       z     vdW  Elec       q    Type
REMARK                         _______ _______ _______ _____ _____    ______ ____
ROOT
ATOM      1  C   UNL     1       2.000  -4.805   7.195  0.00  0.00    +0.263 C 
ATOM      2  O   UNL     1       1.768  -5.541   8.135  0.00  0.00    -0.269 OA
ATOM      3  N   UNL     1       3.275  -4.523   6.859  0.00  0.00    -0.307 N 
ATOM      4  H   UNL     1       3.460  -3.936   6.110  0.00  0.00    +0.149 HD
ENDROOT
BRANCH   3   5
ATOM      5  C   UNL     1       4.380  -5.103   7.626  0.00  0.00    +0.073 C 
ATOM      6  C   UNL     1       4.700  -6.497   7.084  0.00  0.00    +0.024 C 
ATOM      7  C   UNL     1       5.854  -7.103   7.885  0.00  0.00    +0.024 C 
ATOM      8  C   UNL     1       7.090  -6.210   7.755  0.00  0.00    +0.073 C 
ATOM      9  C   UNL     1       6.769  -4.815   8.297  0.00  0.00    +0.024 C 
ATOM     10  C   UNL     1       5.615  -4.209   7.497  0.00  0.00    +0.024 C 
BRANCH   8  11
ATOM     11  N   UNL     1       8.195  -6.790   8.522  0.00  0.00    -0.308 N 
ATOM     12  C   UNL     1       9.469  -6.508   8.186  0.00  0.00    +0.244 C 
ATOM     13  O   UNL     1       9.701  -5.772   7.247  0.00  0.00    -0.270 OA
ATOM     14  H   UNL     1       8.009  -7.377   9.272  0.00  0.00    +0.149 HD
BRANCH  12  15
ATOM     15  C   UNL     1      10.585  -7.093   8.960  0.00  0.00    +0.038 A 
ATOM     16  C   UNL     1      10.321  -7.943  10.036  0.00  0.00    +0.013 A 
ATOM     17  C   UNL     1      11.366  -8.487  10.754  0.00  0.00    +0.002 A 
ATOM     18  C   UNL     1      12.673  -8.192  10.410  0.00  0.00    +0.020 A 
ATOM     19  C   UNL     1      12.942  -7.349   9.345  0.00  0.00    +0.042 A 
ATOM     20  C   UNL     1      11.905  -6.803   8.615  0.00  0.00    +0.033 A 
ATOM     21 CL   UNL     1      14.586  -6.985   8.922  0.00  0.00    -0.084 Cl
ENDBRANCH  12  15
ENDBRANCH   8  11
ENDBRANCH   3   5
BRANCH   1  24
ATOM     22  C   UNL     1       0.063  -2.932   4.751  0.00  0.00    +0.116 A 
ATOM     23  N   UNL     1       1.099  -3.409   5.385  0.00  0.00    -0.236 NA
ATOM     24  C   UNL     1       0.889  -4.222   6.425  0.00  0.00    +0.133 A 
ATOM     25  C   UNL     1      -0.420  -4.481   6.731  0.00  0.00    +0.080 A 
ATOM     26  S   UNL     1      -1.246  -3.585   5.574  0.00  0.00    -0.076 S 
BRANCH  22  27
ATOM     27  C   UNL     1       0.045  -2.006   3.562  0.00  0.00    +0.291 C 
BRANCH  27  28
ATOM     28  O   UNL     1       0.050  -2.776   2.358  0.00  0.00    -0.485 OA
BRANCH  28  34
ATOM     29  C   UNL     1      -0.018   1.503   0.010  0.00  0.00    +0.044 C 
ATOM     30  C   UNL     1       0.002  -0.004   0.002  0.00  0.00    -0.047 A 
ATOM     31  C   UNL     1       0.006  -0.688  -1.200  0.00  0.00    +0.004 A 
ATOM     32  C   UNL     1       0.024  -2.071  -1.211  0.00  0.00    +0.008 A 
ATOM     33  C   UNL     1       0.039  -2.772  -0.020  0.00  0.00    -0.003 A 
ATOM     34  C   UNL     1       0.035  -2.088   1.186  0.00  0.00    +0.125 A 
ATOM     35  C   UNL     1       0.023  -0.700   1.195  0.00  0.00    +0.049 A 
BRANCH  33  36
ATOM     36  C   UNL     1       0.059  -4.279  -0.033  0.00  0.00    +0.016 C 
ATOM     37  C   UNL     1      -1.188  -4.799  -0.753  0.00  0.00    +0.012 C 
ATOM     38  C   UNL     1       1.311  -4.766  -0.764  0.00  0.00    +0.012 C 
ENDBRANCH  33  36
ENDBRANCH  28  34
ENDBRANCH  27  28
ENDBRANCH  22  27
ENDBRANCH   1  24
TORSDOF 8
