REMARK  Name = ZINC36581242
REMARK  19 active torsions:
REMARK  status: ('A' for Active; 'I' for Inactive)
REMARK    1  A    between atoms: C_1  and  C_2
REMARK    2  A    between atoms: C_7  and  C_8
REMARK    3  A    between atoms: C_8  and  C_9
REMARK    4  A    between atoms: N_11  and  C_12
REMARK    5  A    between atoms: N_11  and  C_35
REMARK    6  A    between atoms: C_12  and  C_14
REMARK    7  A    between atoms: C_12  and  C_24
REMARK    8  A    between atoms: C_16  and  N_21
REMARK    9  A    between atoms: N_26  and  C_27
REMARK   10  A    between atoms: C_27  and  C_28
REMARK   11  A    between atoms: C_27  and  C_29
REMARK   12  A    between atoms: C_27  and  C_30
REMARK   13  A    between atoms: C_30  and  C_31
REMARK   14  A    between atoms: C_31  and  C_32
REMARK   15  A    between atoms: C_31  and  C_33
REMARK   16  A    between atoms: C_31  and  C_34
REMARK   17  A    between atoms: C_35  and  C_36
REMARK   18  A    between atoms: C_35  and  C_37
REMARK   19  A    between atoms: C_35  and  C_38
REMARK                            x       y       z     vdW  Elec       q    Type
REMARK                         _______ _______ _______ _____ _____    ______ ____
ROOT
ATOM      1  C   UNL     1      -6.258   0.169   2.904  0.00  0.00    +0.194 C 
ENDROOT
BRANCH   1   2
ATOM      2  C   UNL     1      -6.396   1.668   2.962  0.00  0.00    +0.002 A 
ATOM      3  C   UNL     1      -6.726   2.286   4.154  0.00  0.00    +0.040 A 
ATOM      4  C   UNL     1      -6.853   3.662   4.207  0.00  0.00    +0.127 A 
ATOM      5  C   UNL     1      -6.650   4.420   3.069  0.00  0.00    +0.034 A 
ATOM      6  C   UNL     1      -6.320   3.803   1.878  0.00  0.00    +0.022 A 
ATOM      7  C   UNL     1      -6.186   2.427   1.825  0.00  0.00    +0.047 A 
ATOM      8 CL   UNL     1      -5.764   1.652   0.330  0.00  0.00    -0.083 Cl
BRANCH   4   9
ATOM      9  N   UNL     1      -7.207   4.323   5.483  0.00  0.00    +0.056 N 
ATOM     10  O   UNL     1      -7.385   3.660   6.479  0.00  0.00    -0.126 OA
ATOM     11  O   UNL     1      -7.319   5.526   5.530  0.00  0.00    -0.126 OA
ENDBRANCH   4   9
ENDBRANCH   1   2
BRANCH   1  12
ATOM     12  C   UNL     1      -7.043  -0.452   4.030  0.00  0.00    +0.239 C 
ATOM     13  O   UNL     1      -6.465  -0.911   4.993  0.00  0.00    -0.273 OA
ATOM     14  N   UNL     1      -8.389  -0.498   3.968  0.00  0.00    -0.308 N 
ATOM     15  H   UNL     1      -8.848  -0.204   3.165  0.00  0.00    +0.149 HD
BRANCH  14  16
ATOM     16  C   UNL     1      -9.159  -0.991   5.113  0.00  0.00    +0.030 C 
ATOM     17  C   UNL     1      -8.914  -2.491   5.284  0.00  0.00    +0.031 C 
ATOM     18  C   UNL     1      -8.718  -0.254   6.379  0.00  0.00    +0.031 C 
BRANCH  16  19
ATOM     19  C   UNL     1     -10.649  -0.742   4.870  0.00  0.00    +0.031 C 
BRANCH  19  20
ATOM     20  C   UNL     1     -10.927   0.762   4.907  0.00  0.00    -0.036 C 
ATOM     21  C   UNL     1      -9.788   1.509   4.211  0.00  0.00    +0.010 C 
ATOM     22  C   UNL     1     -12.245   1.055   4.186  0.00  0.00    +0.010 C 
ATOM     23  C   UNL     1     -11.027   1.227   6.362  0.00  0.00    +0.010 C 
ENDBRANCH  19  20
ENDBRANCH  16  19
ENDBRANCH  14  16
ENDBRANCH   1  12
BRANCH   1  26
ATOM     24  C   UNL     1      -4.145   0.194   4.119  0.00  0.00    +0.221 C 
ATOM     25  O   UNL     1      -4.697   0.806   5.008  0.00  0.00    -0.275 OA
ATOM     26  N   UNL     1      -4.845  -0.197   3.035  0.00  0.00    -0.281 N 
BRANCH  26  27
ATOM     27  C   UNL     1      -4.193  -0.987   1.988  0.00  0.00    +0.030 C 
ATOM     28  C   UNL     1      -3.376  -2.110   2.630  0.00  0.00    +0.031 C 
ATOM     29  C   UNL     1      -5.256  -1.592   1.068  0.00  0.00    +0.031 C 
ATOM     30  C   UNL     1      -3.266  -0.085   1.171  0.00  0.00    +0.031 C 
ENDBRANCH  26  27
BRANCH  24  31
ATOM     31  C   UNL     1      -2.677  -0.131   4.225  0.00  0.00    +0.131 C 
BRANCH  31  38
ATOM     32  C   UNL     1      -2.817  -1.161   6.920  0.00  0.00    +0.044 C 
ATOM     33  C   UNL     1      -2.138   0.157   6.652  0.00  0.00    -0.047 A 
ATOM     34  C   UNL     1      -1.577   0.871   7.694  0.00  0.00    +0.003 A 
ATOM     35  C   UNL     1      -0.954   2.080   7.448  0.00  0.00    +0.000 A 
ATOM     36  C   UNL     1      -0.892   2.575   6.159  0.00  0.00    +0.000 A 
ATOM     37  C   UNL     1      -1.452   1.861   5.117  0.00  0.00    +0.004 A 
ATOM     38  C   UNL     1      -2.071   0.650   5.362  0.00  0.00    -0.036 A 
ENDBRANCH  31  38
ENDBRANCH  24  31
ENDBRANCH   1  26
TORSDOF 10
