REMARK  Name = ZINC49004292
REMARK  7 active torsions:
REMARK  status: ('A' for Active; 'I' for Inactive)
REMARK    1  A    between atoms: C_1  and  C_2
REMARK    2  A    between atoms: C_2  and  O_3
REMARK    3  A    between atoms: O_3  and  C_4
REMARK    4  A    between atoms: C_7  and  C_10
REMARK    5  A    between atoms: N_15  and  C_20
REMARK    6  A    between atoms: C_20  and  C_21
REMARK    7  A    between atoms: C_23  and  C_26
REMARK                            x       y       z     vdW  Elec       q    Type
REMARK                         _______ _______ _______ _____ _____    ______ ____
ROOT
ATOM      1  C   UNL     1       1.109  -6.020  -1.844  0.00  0.00    +0.094 A 
ATOM      2  C   UNL     1       1.735  -6.679  -2.916  0.00  0.00    +0.063 A 
ATOM      3  C   UNL     1       1.591  -8.023  -2.646  0.00  0.00    +0.135 A 
ATOM      4  C   UNL     1       2.003  -9.248  -3.339  0.00  0.00    +0.293 A 
ATOM      5  O   UNL     1       2.612  -9.199  -4.393  0.00  0.00    -0.264 OA
ATOM      6  N   UNL     1       1.687 -10.434  -2.770  0.00  0.00    -0.217 N 
ATOM      7  N   UNL     1       0.988 -10.455  -1.559  0.00  0.00    -0.156 NA
ATOM      8  C   UNL     1       0.627  -9.377  -0.952  0.00  0.00    +0.245 A 
ATOM      9  N   UNL     1       0.907  -8.124  -1.459  0.00  0.00    -0.214 N 
ATOM     10  N   UNL     1       0.649  -6.942  -1.020  0.00  0.00    -0.165 NA
ENDROOT
BRANCH   1  14
ATOM     11  C   UNL     1       0.777  -1.810  -1.336  0.00  0.00    +0.121 A 
ATOM     12  C   UNL     1       0.241  -2.667  -0.384  0.00  0.00    +0.046 A 
ATOM     13  C   UNL     1       0.348  -4.032  -0.546  0.00  0.00    +0.013 A 
ATOM     14  C   UNL     1       0.993  -4.552  -1.667  0.00  0.00    +0.002 A 
ATOM     15  C   UNL     1       1.529  -3.689  -2.621  0.00  0.00    +0.013 A 
ATOM     16  C   UNL     1       1.415  -2.324  -2.457  0.00  0.00    +0.046 A 
BRANCH  11  17
ATOM     17  O   UNL     1       0.671  -0.465  -1.174  0.00  0.00    -0.492 OA
BRANCH  17  19
ATOM     18  C   UNL     1      -0.019   1.526   0.010  0.00  0.00    +0.048 C 
ATOM     19  C   UNL     1       0.002  -0.004   0.002  0.00  0.00    +0.225 C 
ENDBRANCH  17  19
ENDBRANCH  11  17
ENDBRANCH   1  14
BRANCH   6  20
ATOM     20  C   UNL     1       2.073 -11.689  -3.420  0.00  0.00    +0.246 C 
BRANCH  20  21
ATOM     21  C   UNL     1       3.437 -12.108  -2.933  0.00  0.00    +0.249 A 
ATOM     22  N   UNL     1       3.676 -12.869  -1.903  0.00  0.00    -0.190 NA
ATOM     23  C   UNL     1       5.002 -13.039  -1.755  0.00  0.00    +0.202 A 
ATOM     24  N   UNL     1       5.618 -12.377  -2.704  0.00  0.00    -0.056 NA
ATOM     25  O   UNL     1       4.606 -11.765  -3.489  0.00  0.00    -0.336 OA
BRANCH  23  26
ATOM     26  C   UNL     1       5.659 -13.842  -0.694  0.00  0.00    +0.023 A 
ATOM     27  C   UNL     1       4.888 -14.506   0.258  0.00  0.00    +0.013 A 
ATOM     28  C   UNL     1       5.503 -15.251   1.243  0.00  0.00    +0.016 A 
ATOM     29  C   UNL     1       6.884 -15.340   1.286  0.00  0.00    +0.018 A 
ATOM     30  C   UNL     1       7.654 -14.683   0.343  0.00  0.00    +0.016 A 
ATOM     31  C   UNL     1       7.048 -13.940  -0.650  0.00  0.00    +0.013 A 
ATOM     32 BR   UNL     1       7.720 -16.363   2.639  0.00  0.00    -0.050 Br
ENDBRANCH  23  26
ENDBRANCH  20  21
ENDBRANCH   6  20
TORSDOF 6
