REMARK  Name = ZINC39466405
REMARK  10 active torsions:
REMARK  status: ('A' for Active; 'I' for Inactive)
REMARK    1  A    between atoms: C_1  and  C_2
REMARK    2  A    between atoms: C_2  and  C_3
REMARK    3  A    between atoms: C_2  and  S_4
REMARK    4  A    between atoms: S_4  and  C_7
REMARK    5  A    between atoms: C_12  and  C_13
REMARK    6  A    between atoms: C_13  and  C_14
REMARK    7  A    between atoms: P_24  and  S_30
REMARK    8  A    between atoms: S_30  and  C_33
REMARK    9  A    between atoms: C_33  and  C_34
REMARK   10  A    between atoms: C_33  and  C_35
REMARK                            x       y       z     vdW  Elec       q    Type
REMARK                         _______ _______ _______ _____ _____    ______ ____
ROOT
ATOM      1  C   UNL     1      -1.546  -2.388  -0.003  0.00  0.00    +0.092 A 
ATOM      2  C   UNL     1      -2.070  -3.139   1.031  0.00  0.00    +0.031 A 
ATOM      3  C   UNL     1      -1.928  -4.518   1.035  0.00  0.00    -0.040 A 
ATOM      4  C   UNL     1      -1.264  -5.145   0.003  0.00  0.00    -0.023 A 
ATOM      5  C   UNL     1      -0.739  -4.388  -1.034  0.00  0.00    +0.011 A 
ATOM      6  C   UNL     1      -0.883  -3.015  -1.040  0.00  0.00    -0.018 A 
ATOM      7  C   UNL     1      -1.084  -6.639  -0.043  0.00  0.00    +0.129 C 
ATOM      8  C   UNL     1       0.345  -6.958  -0.492  0.00  0.00    +0.195 C 
ATOM      9  O   UNL     1       0.473  -8.385  -0.647  0.00  0.00    -0.298 OA
ATOM     10  P   UNL     1      -0.026  -9.340   0.571  0.00  0.00    +0.419 P 
ATOM     11  O   UNL     1      -0.343 -10.693   0.063  0.00  0.00    -0.246 OA
ATOM     12  N   UNL     1      -1.389  -8.621   1.171  0.00  0.00    -0.161 NA
ATOM     13  N   UNL     1      -1.354  -7.244   1.262  0.00  0.00    -0.224 NA
ATOM     14  C   UNL     1      -2.632  -6.765   1.809  0.00  0.00    +0.108 C 
ATOM     15  C   UNL     1      -2.513  -5.299   2.184  0.00  0.00    +0.052 C 
ATOM     16  H   UNL     1      -2.159  -9.141   1.448  0.00  0.00    +0.152 HD
ENDROOT
BRANCH   1  17
ATOM     17  S   UNL     1      -1.730  -0.635  -0.002  0.00  0.00    -0.001 S 
ATOM     18  O   UNL     1      -2.510  -0.352   1.151  0.00  0.00    -0.169 OA
ATOM     19  O   UNL     1      -2.215  -0.321  -1.300  0.00  0.00    -0.169 OA
BRANCH  17  21
ATOM     20  C   UNL     1      -0.088   1.539   0.243  0.00  0.00    +0.032 C 
ATOM     21  C   UNL     1      -0.047   0.009   0.208  0.00  0.00    +0.130 C 
ATOM     22  C   UNL     1       0.539  -0.515   1.521  0.00  0.00    +0.032 C 
ENDBRANCH  17  21
ENDBRANCH   1  17
BRANCH  10  23
ATOM     23  S   UNL     1       1.468  -9.453   2.071  0.00  0.00    +0.058 S 
ATOM     24  O   UNL     1       1.718  -8.103   2.437  0.00  0.00    -0.164 OA
ATOM     25  O   UNL     1       0.958 -10.379   3.022  0.00  0.00    -0.164 OA
BRANCH  23  26
ATOM     26  C   UNL     1       2.918 -10.152   1.234  0.00  0.00    +0.136 C 
ATOM     27  C   UNL     1       3.337  -9.231   0.087  0.00  0.00    +0.032 C 
ATOM     28  C   UNL     1       4.070 -10.280   2.232  0.00  0.00    +0.032 C 
ENDBRANCH  23  26
ENDBRANCH  10  23
BRANCH   6  29
ATOM     29  C   UNL     1      -0.315  -2.201  -2.174  0.00  0.00    +0.072 C 
BRANCH  29  30
ATOM     30  C   UNL     1       0.232  -3.126  -3.231  0.00  0.00    -0.043 A 
ATOM     31  C   UNL     1       1.573  -3.462  -3.228  0.00  0.00    +0.004 A 
ATOM     32  C   UNL     1       2.075  -4.310  -4.198  0.00  0.00    +0.000 A 
ATOM     33  C   UNL     1       1.236  -4.822  -5.170  0.00  0.00    +0.000 A 
ATOM     34  C   UNL     1      -0.105  -4.486  -5.172  0.00  0.00    +0.000 A 
ATOM     35  C   UNL     1      -0.608  -3.641  -4.200  0.00  0.00    +0.004 A 
ENDBRANCH  29  30
ENDBRANCH   6  29
TORSDOF 6
