REMARK  Name = ZINC09778684
REMARK  8 active torsions:
REMARK  status: ('A' for Active; 'I' for Inactive)
REMARK    1  A    between atoms: C_1  and  C_2
REMARK    2  A    between atoms: C_2  and  C_3
REMARK    3  A    between atoms: C_3  and  C_4
REMARK    4  A    between atoms: C_4  and  O_5
REMARK    5  A    between atoms: O_5  and  C_6
REMARK    6  A    between atoms: C_9  and  C_12
REMARK    7  A    between atoms: C_14  and  N_26
REMARK    8  A    between atoms: N_18  and  C_19
REMARK                            x       y       z     vdW  Elec       q    Type
REMARK                         _______ _______ _______ _____ _____    ______ ____
ROOT
ATOM      1  C   UNL     1       2.301  -0.518   8.407  0.00  0.00    +0.141 C 
ATOM      2  C   UNL     1       2.827   0.796   9.008  0.00  0.00    +0.196 C 
ATOM      3  C   UNL     1       3.979  -0.021   9.557  0.00  0.00    +0.244 C 
ATOM      4  O   UNL     1       4.958   0.241  10.223  0.00  0.00    -0.273 OA
ATOM      5  N   UNL     1       3.483  -1.161   9.010  0.00  0.00    -0.260 N 
ENDROOT
BRANCH   2   6
ATOM      6  N   UNL     1       3.228   1.783   8.003  0.00  0.00    -0.220 N 
ATOM      7  C   UNL     1       4.316   1.672   7.219  0.00  0.00    +0.255 C 
ATOM      8  O   UNL     1       5.107   0.751   7.231  0.00  0.00    -0.270 OA
ATOM      9  C   UNL     1       4.384   2.857   6.338  0.00  0.00    +0.049 A 
ATOM     10  C   UNL     1       5.258   3.278   5.348  0.00  0.00    +0.014 A 
ATOM     11  C   UNL     1       5.031   4.481   4.697  0.00  0.00    +0.001 A 
ATOM     12  C   UNL     1       3.940   5.262   5.029  0.00  0.00    +0.001 A 
ATOM     13  C   UNL     1       3.057   4.853   6.016  0.00  0.00    +0.014 A 
ATOM     14  C   UNL     1       3.271   3.653   6.675  0.00  0.00    +0.049 A 
ATOM     15  C   UNL     1       2.562   2.923   7.747  0.00  0.00    +0.255 C 
ATOM     16  O   UNL     1       1.547   3.291   8.303  0.00  0.00    -0.270 OA
ENDBRANCH   2   6
BRANCH   5  17
ATOM     17  C   UNL     1       3.935  -2.486   9.018  0.00  0.00    +0.037 A 
ATOM     18  C   UNL     1       3.207  -3.473   8.367  0.00  0.00    +0.024 A 
ATOM     19  C   UNL     1       3.659  -4.778   8.372  0.00  0.00    +0.017 A 
ATOM     20  C   UNL     1       4.830  -5.104   9.033  0.00  0.00    +0.018 A 
ATOM     21  C   UNL     1       5.553  -4.123   9.688  0.00  0.00    +0.017 A 
ATOM     22  C   UNL     1       5.109  -2.816   9.682  0.00  0.00    +0.024 A 
ATOM     23 BR   UNL     1       5.441  -6.893   9.043  0.00  0.00    -0.050 Br
ENDBRANCH   5  17
BRANCH   1  27
ATOM     24  C   UNL     1       2.307  -0.578   4.134  0.00  0.00    +0.121 A 
ATOM     25  C   UNL     1       3.478  -0.828   4.834  0.00  0.00    +0.046 A 
ATOM     26  C   UNL     1       3.475  -0.802   6.215  0.00  0.00    +0.009 A 
ATOM     27  C   UNL     1       2.303  -0.539   6.901  0.00  0.00    -0.024 A 
ATOM     28  C   UNL     1       1.133  -0.294   6.205  0.00  0.00    +0.009 A 
ATOM     29  C   UNL     1       1.133  -0.313   4.824  0.00  0.00    +0.046 A 
BRANCH  24  30
ATOM     30  O   UNL     1       2.309  -0.596   2.775  0.00  0.00    -0.492 OA
BRANCH  30  31
ATOM     31  C   UNL     1       3.554  -0.875   2.132  0.00  0.00    +0.229 C 
BRANCH  31  32
ATOM     32  C   UNL     1       3.360  -0.854   0.615  0.00  0.00    +0.041 C 
BRANCH  32  34
ATOM     33  C   UNL     1       4.499  -1.131  -1.592  0.00  0.00    +0.004 C 
ATOM     34  C   UNL     1       4.693  -1.153  -0.074  0.00  0.00    -0.000 C 
ENDBRANCH  32  34
ENDBRANCH  31  32
ENDBRANCH  30  31
ENDBRANCH  24  30
ENDBRANCH   1  27
TORSDOF 7
