REMARK  Name = ZINC09187212
REMARK  7 active torsions:
REMARK  status: ('A' for Active; 'I' for Inactive)
REMARK    1  A    between atoms: C_1  and  C_2
REMARK    2  A    between atoms: C_5  and  C_8
REMARK    3  A    between atoms: C_19  and  C_21
REMARK    4  A    between atoms: C_24  and  O_27
REMARK    5  A    between atoms: O_27  and  C_28
REMARK    6  A    between atoms: C_34  and  S_36
REMARK    7  A    between atoms: S_36  and  C_37
REMARK                            x       y       z     vdW  Elec       q    Type
REMARK                         _______ _______ _______ _____ _____    ______ ____
ROOT
ATOM      1  C   UNL     1       0.059  -4.275  -0.021  0.00  0.00    +0.159 C 
ATOM      2  C   UNL     1      -1.360  -4.766   0.156  0.00  0.00    +0.025 C 
ATOM      3  C   UNL     1      -1.627  -5.570   1.206  0.00  0.00    +0.058 C 
ATOM      4  C   UNL     1      -3.023  -6.052   1.361  0.00  0.00    +0.042 A 
ATOM      5  C   UNL     1      -3.471  -6.606   2.553  0.00  0.00    +0.033 A 
ATOM      6  C   UNL     1      -4.780  -7.040   2.655  0.00  0.00    +0.042 A 
ATOM      7  C   UNL     1      -5.639  -6.923   1.575  0.00  0.00    +0.023 A 
ATOM      8  C   UNL     1      -5.199  -6.374   0.385  0.00  0.00    +0.048 A 
ATOM      9  C   UNL     1      -3.892  -5.936   0.269  0.00  0.00    +0.131 A 
ATOM     10  O   UNL     1      -3.433  -5.399  -0.891  0.00  0.00    -0.479 OA
ATOM     11  C   UNL     1      -2.448  -4.368  -0.798  0.00  0.00    +0.234 C 
ATOM     12 CL   UNL     1      -5.348  -7.734   4.142  0.00  0.00    -0.084 Cl
ATOM     13  N   UNL     1      -0.663  -5.929   2.087  0.00  0.00    -0.326 N 
ATOM     14  C   UNL     1       0.594  -5.548   2.008  0.00  0.00    +0.216 C 
ATOM     15  N   UNL     1       1.024  -4.726   0.989  0.00  0.00    -0.209 N 
ATOM     16  N   UNL     1       2.390  -4.513   1.192  0.00  0.00    -0.239 N 
ATOM     17  C   UNL     1       2.724  -5.208   2.325  0.00  0.00    +0.174 C 
ATOM     18  N   UNL     1       1.659  -5.812   2.787  0.00  0.00    -0.192 NA
ATOM     19  H   UNL     1      -0.916  -6.505   2.826  0.00  0.00    +0.169 HD
ATOM     20  H   UNL     1       2.983  -3.979   0.642  0.00  0.00    +0.172 HD
ENDROOT
BRANCH   1  25
ATOM     21  C   UNL     1      -0.018   1.503   0.010  0.00  0.00    +0.044 C 
ATOM     22  C   UNL     1       0.002  -0.004   0.002  0.00  0.00    -0.050 A 
ATOM     23  C   UNL     1       0.006  -0.689  -1.199  0.00  0.00    +0.004 A 
ATOM     24  C   UNL     1       0.025  -2.071  -1.206  0.00  0.00    +0.006 A 
ATOM     25  C   UNL     1       0.040  -2.768  -0.013  0.00  0.00    -0.021 A 
ATOM     26  C   UNL     1       0.037  -2.084   1.188  0.00  0.00    +0.006 A 
ATOM     27  C   UNL     1       0.023  -0.702   1.195  0.00  0.00    +0.004 A 
ENDBRANCH   1  25
BRANCH  11  28
ATOM     28  C   UNL     1      -3.099  -3.099  -0.309  0.00  0.00    -0.003 A 
ATOM     29  C   UNL     1      -4.041  -3.152   0.701  0.00  0.00    +0.011 A 
ATOM     30  C   UNL     1      -4.640  -1.991   1.150  0.00  0.00    +0.046 A 
ATOM     31  C   UNL     1      -4.294  -0.771   0.587  0.00  0.00    +0.120 A 
ATOM     32  C   UNL     1      -3.348  -0.721  -0.427  0.00  0.00    +0.046 A 
ATOM     33  C   UNL     1      -2.749  -1.884  -0.869  0.00  0.00    +0.011 A 
BRANCH  31  34
ATOM     34  O   UNL     1      -4.882   0.372   1.027  0.00  0.00    -0.495 OA
ATOM     35  C   UNL     1      -4.478   1.592   0.401  0.00  0.00    +0.277 C 
ENDBRANCH  31  34
ENDBRANCH  11  28
BRANCH  17  36
ATOM     36  S   UNL     1       4.332  -5.284   3.041  0.00  0.00    -0.092 S 
ATOM     37  C   UNL     1       4.116  -6.346   4.495  0.00  0.00    +0.093 C 
ENDBRANCH  17  36
TORSDOF 4
