REMARK  Name = ZINC12926404
REMARK  9 active torsions:
REMARK  status: ('A' for Active; 'I' for Inactive)
REMARK    1  A    between atoms: C_1  and  C_2
REMARK    2  A    between atoms: C_2  and  C_3
REMARK    3  A    between atoms: C_2  and  C_4
REMARK    4  A    between atoms: C_4  and  N_5
REMARK    5  A    between atoms: N_5  and  C_6
REMARK    6  A    between atoms: C_7  and  N_22
REMARK    7  A    between atoms: N_8  and  C_15
REMARK    8  A    between atoms: C_15  and  C_16
REMARK    9  A    between atoms: C_23  and  C_25
REMARK                            x       y       z     vdW  Elec       q    Type
REMARK                         _______ _______ _______ _____ _____    ______ ____
ROOT
ATOM      1  C   UNL     1       2.193   9.696  -0.284  0.00  0.00    +0.140 A 
ATOM      2  C   UNL     1       1.362  10.347  -1.173  0.00  0.00    +0.128 A 
ATOM      3  N   UNL     1       1.454  11.713  -1.301  0.00  0.00    -0.276 N 
ATOM      4  C   UNL     1       2.350  12.406  -0.575  0.00  0.00    +0.331 A 
ATOM      5  O   UNL     1       2.418  13.614  -0.706  0.00  0.00    -0.246 OA
ATOM      6  N   UNL     1       3.171  11.789   0.293  0.00  0.00    -0.273 N 
ATOM      7  H   UNL     1       3.828  12.328   0.820  0.00  0.00    +0.173 HD
ATOM      8  C   UNL     1       3.119  10.453   0.459  0.00  0.00    +0.277 A 
ATOM      9  O   UNL     1       3.868   9.903   1.249  0.00  0.00    -0.266 OA
ENDROOT
BRANCH   1  10
ATOM     10  N   UNL     1       2.120   8.297  -0.127  0.00  0.00    -0.260 N 
ATOM     11  C   UNL     1       0.979   7.726   0.305  0.00  0.00    +0.251 C 
ATOM     12  O   UNL     1       0.942   6.530   0.524  0.00  0.00    -0.270 OA
BRANCH  11  13
ATOM     13  C   UNL     1      -0.228   8.552   0.514  0.00  0.00    +0.038 A 
ATOM     14  C   UNL     1      -0.094   9.917   0.827  0.00  0.00    +0.013 A 
ATOM     15  C   UNL     1      -1.187  10.697   1.024  0.00  0.00    +0.009 A 
ATOM     16  C   UNL     1      -2.476  10.143   0.914  0.00  0.00    -0.018 A 
ATOM     17  C   UNL     1      -3.622  10.930   1.114  0.00  0.00    +0.008 A 
ATOM     18  C   UNL     1      -4.856  10.366   1.002  0.00  0.00    +0.001 A 
ATOM     19  C   UNL     1      -5.002   9.014   0.698  0.00  0.00    +0.001 A 
ATOM     20  C   UNL     1      -3.916   8.221   0.492  0.00  0.00    +0.008 A 
ATOM     21  C   UNL     1      -2.624   8.768   0.599  0.00  0.00    -0.017 A 
ATOM     22  C   UNL     1      -1.483   7.978   0.399  0.00  0.00    +0.021 A 
ENDBRANCH  11  13
BRANCH  10  23
ATOM     23  C   UNL     1       3.286   7.464  -0.434  0.00  0.00    +0.117 C 
BRANCH  23  25
ATOM     24  C   UNL     1       3.254   8.086  -2.853  0.00  0.00    +0.009 C 
ATOM     25  C   UNL     1       3.166   6.925  -1.861  0.00  0.00    +0.001 C 
ATOM     26  C   UNL     1       4.303   5.937  -2.130  0.00  0.00    +0.009 C 
ENDBRANCH  23  25
ENDBRANCH  10  23
ENDBRANCH   1  10
BRANCH   2  27
ATOM     27  N   UNL     1       0.451   9.639  -1.919  0.00  0.00    -0.343 N 
ATOM     28  H   UNL     1       0.345   8.685  -1.778  0.00  0.00    +0.144 HD
ATOM     29  H   UNL     1      -0.087  10.092  -2.587  0.00  0.00    +0.144 HD
ENDBRANCH   2  27
BRANCH   3  30
ATOM     30  C   UNL     1       0.575  12.418  -2.238  0.00  0.00    +0.163 C 
BRANCH  30  31
ATOM     31  C   UNL     1       1.238  12.493  -3.590  0.00  0.00    -0.028 A 
ATOM     32  C   UNL     1       2.045  13.570  -3.905  0.00  0.00    +0.005 A 
ATOM     33  C   UNL     1       2.657  13.636  -5.143  0.00  0.00    +0.000 A 
ATOM     34  C   UNL     1       2.454  12.630  -6.069  0.00  0.00    +0.000 A 
ATOM     35  C   UNL     1       1.643  11.555  -5.755  0.00  0.00    +0.000 A 
ATOM     36  C   UNL     1       1.036  11.487  -4.516  0.00  0.00    +0.005 A 
ENDBRANCH  30  31
ENDBRANCH   3  30
TORSDOF 7
