REMARK  Name = ZINC04470082
REMARK  8 active torsions:
REMARK  status: ('A' for Active; 'I' for Inactive)
REMARK    1  A    between atoms: C_1  and  N_2
REMARK    2  A    between atoms: N_11  and  C_26
REMARK    3  A    between atoms: N_14  and  N_15
REMARK    4  A    between atoms: C_16  and  C_17
REMARK    5  A    between atoms: C_18  and  C_19
REMARK    6  A    between atoms: C_26  and  C_27
REMARK    7  A    between atoms: C_27  and  C_28
REMARK    8  A    between atoms: C_28  and  C_29
REMARK                            x       y       z     vdW  Elec       q    Type
REMARK                         _______ _______ _______ _____ _____    ______ ____
ROOT
ATOM      1  C   UNL     1       2.461   5.668   0.947  0.00  0.00    +0.155 C 
ATOM      2  N   UNL     1       3.138   4.439   1.369  0.00  0.00    -0.280 N 
ATOM      3  C   UNL     1       2.433   3.247   1.434  0.00  0.00    +0.170 A 
ATOM      4  C   UNL     1       3.099   2.095   1.839  0.00  0.00    +0.153 A 
ATOM      5  C   UNL     1       4.465   2.172   2.169  0.00  0.00    +0.280 A 
ATOM      6  O   UNL     1       5.069   1.176   2.526  0.00  0.00    -0.265 OA
ATOM      7  N   UNL     1       5.098   3.361   2.087  0.00  0.00    -0.273 N 
ATOM      8  H   UNL     1       6.068   3.419   2.321  0.00  0.00    +0.173 HD
ATOM      9  C   UNL     1       4.444   4.468   1.695  0.00  0.00    +0.331 A 
ATOM     10  O   UNL     1       5.047   5.522   1.632  0.00  0.00    -0.246 OA
ATOM     11  N   UNL     1       2.163   1.072   1.811  0.00  0.00    -0.305 N 
ATOM     12  C   UNL     1       0.990   1.625   1.401  0.00  0.00    +0.218 A 
ATOM     13  N   UNL     1       1.168   2.912   1.178  0.00  0.00    -0.195 NA
ATOM     14  N   UNL     1      -0.196   0.946   1.239  0.00  0.00    -0.206 N 
ATOM     15  H   UNL     1      -0.239  -0.006   1.423  0.00  0.00    +0.177 HD
ENDROOT
BRANCH  14  16
ATOM     16  N   UNL     1      -1.340   1.628   0.804  0.00  0.00    -0.187 NA
ATOM     17  C   UNL     1      -2.461   0.984   0.646  0.00  0.00    +0.145 C 
BRANCH  17  18
ATOM     18  C   UNL     1      -3.619   1.674   0.205  0.00  0.00    +0.038 C 
ATOM     19  C   UNL     1      -4.749   0.989  -0.072  0.00  0.00    +0.024 C 
ATOM     20 BR   UNL     1      -3.581   3.554   0.006  0.00  0.00    -0.049 Br
BRANCH  19  21
ATOM     21  C   UNL     1      -4.734  -0.482  -0.080  0.00  0.00    -0.024 A 
ATOM     22  C   UNL     1      -3.595  -1.171  -0.509  0.00  0.00    +0.008 A 
ATOM     23  C   UNL     1      -3.586  -2.550  -0.508  0.00  0.00    +0.001 A 
ATOM     24  C   UNL     1      -4.705  -3.252  -0.096  0.00  0.00    +0.000 A 
ATOM     25  C   UNL     1      -5.839  -2.578   0.324  0.00  0.00    +0.001 A 
ATOM     26  C   UNL     1      -5.861  -1.199   0.335  0.00  0.00    +0.008 A 
ENDBRANCH  19  21
ENDBRANCH  17  18
ENDBRANCH  14  16
BRANCH  11  27
ATOM     27  C   UNL     1       2.394  -0.333   2.158  0.00  0.00    +0.126 C 
BRANCH  27  28
ATOM     28  C   UNL     1       2.821  -1.103   0.906  0.00  0.00    +0.026 C 
BRANCH  28  29
ATOM     29  C   UNL     1       3.062  -2.570   1.268  0.00  0.00    +0.037 C 
BRANCH  29  30
ATOM     30  C   UNL     1       3.483  -3.329   0.036  0.00  0.00    -0.047 A 
ATOM     31  C   UNL     1       2.530  -3.929  -0.766  0.00  0.00    +0.003 A 
ATOM     32  C   UNL     1       2.916  -4.620  -1.899  0.00  0.00    +0.000 A 
ATOM     33  C   UNL     1       4.256  -4.721  -2.224  0.00  0.00    +0.000 A 
ATOM     34  C   UNL     1       5.209  -4.126  -1.419  0.00  0.00    +0.000 A 
ATOM     35  C   UNL     1       4.823  -3.430  -0.289  0.00  0.00    +0.003 A 
ENDBRANCH  29  30
ENDBRANCH  28  29
ENDBRANCH  27  28
ENDBRANCH  11  27
TORSDOF 7
