REMARK  Name = ZINC16000587
REMARK  3 active torsions:
REMARK  status: ('A' for Active; 'I' for Inactive)
REMARK    1  A    between atoms: C_1  and  C_2
REMARK    2  A    between atoms: C_7  and  C_8
REMARK    3  A    between atoms: N_25  and  C_28
REMARK                            x       y       z     vdW  Elec       q    Type
REMARK                         _______ _______ _______ _____ _____    ______ ____
ROOT
ATOM      1  C   UNL     1      -1.799  -2.580  -6.275  0.00  0.00    +0.044 C 
ATOM      2  C   UNL     1      -2.345  -2.272  -4.904  0.00  0.00    -0.046 A 
ATOM      3  C   UNL     1      -1.545  -1.635  -3.973  0.00  0.00    +0.004 A 
ATOM      4  C   UNL     1      -2.046  -1.353  -2.714  0.00  0.00    +0.005 A 
ATOM      5  C   UNL     1      -3.337  -1.706  -2.392  0.00  0.00    -0.027 A 
ATOM      6  C   UNL     1      -4.151  -2.346  -3.321  0.00  0.00    +0.039 A 
ATOM      7  C   UNL     1      -3.639  -2.627  -4.586  0.00  0.00    -0.026 A 
ATOM      8  C   UNL     1      -4.501  -3.320  -5.609  0.00  0.00    +0.046 C 
ATOM      9  N   UNL     1      -5.408  -2.601  -2.768  0.00  0.00    -0.286 N 
ATOM     10  C   UNL     1      -5.501  -2.165  -1.497  0.00  0.00    +0.212 C 
ATOM     11  O   UNL     1      -6.470  -2.251  -0.772  0.00  0.00    -0.277 OA
ATOM     12  C   UNL     1      -4.171  -1.552  -1.151  0.00  0.00    +0.053 C 
ATOM     13  C   UNL     1      -4.321  -0.079  -0.755  0.00  0.00    +0.089 C 
ATOM     14  C   UNL     1      -4.314  -0.086   0.798  0.00  0.00    +0.074 C 
ATOM     15  C   UNL     1      -4.158  -1.566   1.195  0.00  0.00    -0.054 C 
ATOM     16  N   UNL     1      -3.551  -2.229   0.001  0.00  0.00    +0.395 N 
ATOM     17  C   UNL     1      -2.111  -1.884   0.072  0.00  0.00    -0.076 C 
ATOM     18  C   UNL     1      -1.760  -1.915   1.573  0.00  0.00    -0.020 C 
ATOM     19  C   UNL     1      -3.098  -1.688   2.304  0.00  0.00    -0.016 C 
ATOM     20  C   UNL     1      -3.047   0.663   1.145  0.00  0.00    +0.229 C 
ATOM     21  O   UNL     1      -2.652   0.889   2.269  0.00  0.00    -0.275 OA
ATOM     22  N   UNL     1      -2.430   1.038   0.019  0.00  0.00    -0.207 N 
ATOM     23  C   UNL     1      -3.060   0.679  -1.105  0.00  0.00    +0.229 C 
ATOM     24  O   UNL     1      -2.679   0.922  -2.230  0.00  0.00    -0.275 OA
ATOM     25  H   UNL     1      -6.181  -3.105  -3.367  0.00  0.00    +0.155 HD
ATOM     26  H   UNL     1      -3.689  -3.318  -0.071  0.00  0.00    -0.079 HD
ENDROOT
BRANCH  22  27
ATOM     27  C   UNL     1      -1.223   1.754   0.017  0.00  0.00    +0.079 A 
ATOM     28  C   UNL     1      -0.013   1.076   0.008  0.00  0.00    +0.027 A 
ATOM     29  C   UNL     1       1.174   1.783   0.000  0.00  0.00    +0.002 A 
ATOM     30  C   UNL     1       1.157   3.166   0.008  0.00  0.00    +0.003 A 
ATOM     31  C   UNL     1      -0.046   3.846   0.023  0.00  0.00    +0.040 A 
ATOM     32  C   UNL     1      -1.238   3.144   0.030  0.00  0.00    +0.145 A 
ATOM     33  F   UNL     1      -2.415   3.808   0.044  0.00  0.00    -0.204 F 
ENDBRANCH  22  27
TORSDOF 1
