REMARK  Name = ZINC13062699
REMARK  4 active torsions:
REMARK  status: ('A' for Active; 'I' for Inactive)
REMARK    1  A    between atoms: N_6  and  C_7
REMARK    2  A    between atoms: C_7  and  C_9
REMARK    3  A    between atoms: C_7  and  C_18
REMARK    4  A    between atoms: C_27  and  O_28
REMARK                            x       y       z     vdW  Elec       q    Type
REMARK                         _______ _______ _______ _____ _____    ______ ____
ROOT
ATOM      1  C   UNL     1       1.016   5.986   0.025  0.00  0.00    +0.136 C 
ENDROOT
BRANCH   1   2
ATOM      2  C   UNL     1       0.755   7.294  -0.676  0.00  0.00    +0.021 A 
ATOM      3  C   UNL     1      -0.519   7.853  -0.634  0.00  0.00    +0.010 A 
ATOM      4  C   UNL     1      -0.786   9.036  -1.253  0.00  0.00    +0.010 A 
ATOM      5  C   UNL     1       0.233   9.701  -1.954  0.00  0.00    +0.004 A 
ATOM      6  C   UNL     1      -0.006  10.923  -2.610  0.00  0.00    +0.011 A 
ATOM      7  C   UNL     1       1.033  11.513  -3.272  0.00  0.00    +0.020 A 
ATOM      8  C   UNL     1       2.286  10.903  -3.283  0.00  0.00    +0.111 A 
ATOM      9  N   UNL     1       2.505   9.765  -2.670  0.00  0.00    -0.251 NA
ATOM     10  C   UNL     1       1.531   9.136  -2.005  0.00  0.00    +0.113 A 
ATOM     11  C   UNL     1       1.772   7.912  -1.347  0.00  0.00    +0.148 A 
BRANCH  11  12
ATOM     12  O   UNL     1       3.008   7.349  -1.382  0.00  0.00    -0.504 OA
ATOM     13  H   UNL     1       3.146   6.749  -2.128  0.00  0.00    +0.292 HD
ENDBRANCH  11  12
ENDBRANCH   1   2
BRANCH   1  19
ATOM     14  C   UNL     1       1.097   1.805   0.367  0.00  0.00    +0.005 A 
ATOM     15  C   UNL     1      -0.105   1.112   0.421  0.00  0.00    +0.018 A 
ATOM     16  C   UNL     1      -1.293   1.812   0.355  0.00  0.00    +0.084 A 
ATOM     17  C   UNL     1      -0.173   3.825   0.199  0.00  0.00    +0.097 A 
ATOM     18  C   UNL     1       1.060   3.183   0.254  0.00  0.00    +0.041 A 
ATOM     19  N   UNL     1      -0.225   5.209   0.086  0.00  0.00    -0.320 N 
ATOM     20  H   UNL     1      -1.082   5.661   0.047  0.00  0.00    +0.148 HD
ATOM     21  N   UNL     1      -1.367   3.166   0.250  0.00  0.00    -0.350 N 
ATOM     22  H   UNL     1      -2.265   3.662   0.211  0.00  0.00    +0.166 HD
ENDBRANCH   1  19
BRANCH   1  23
ATOM     23  C   UNL     1       1.510   6.255   1.423  0.00  0.00    -0.019 A 
ATOM     24  C   UNL     1       0.609   6.572   2.423  0.00  0.00    +0.009 A 
ATOM     25  C   UNL     1       1.057   6.819   3.707  0.00  0.00    +0.050 A 
ATOM     26  C   UNL     1       2.411   6.748   3.995  0.00  0.00    +0.166 A 
ATOM     27  C   UNL     1       3.317   6.428   2.988  0.00  0.00    +0.167 A 
ATOM     28  C   UNL     1       2.861   6.178   1.704  0.00  0.00    +0.055 A 
ATOM     29  O   UNL     1       4.575   6.422   3.519  0.00  0.00    -0.453 OA
ATOM     30  C   UNL     1       4.471   7.140   4.763  0.00  0.00    +0.466 C 
ATOM     31  O   UNL     1       3.100   6.943   5.157  0.00  0.00    -0.453 OA
ENDBRANCH   1  23
TORSDOF 4
