REMARK  Name = ZINC36358997
REMARK  5 active torsions:
REMARK  status: ('A' for Active; 'I' for Inactive)
REMARK    1  A    between atoms: C_1  and  O_2
REMARK    2  A    between atoms: O_2  and  C_3
REMARK    3  A    between atoms: C_8  and  C_9
REMARK    4  A    between atoms: C_9  and  C_10
REMARK    5  A    between atoms: C_10  and  N_11
REMARK                            x       y       z     vdW  Elec       q    Type
REMARK                         _______ _______ _______ _____ _____    ______ ____
ROOT
ATOM      1  N   UNL     1      -2.035  -3.834   0.755  0.00  0.00    -0.265 N 
ATOM      2  C   UNL     1      -2.060  -5.176   0.628  0.00  0.00    +0.251 C 
ATOM      3  O   UNL     1      -1.472  -5.717  -0.288  0.00  0.00    -0.270 OA
ATOM      4  C   UNL     1      -2.807  -5.981   1.610  0.00  0.00    +0.058 A 
ATOM      5  C   UNL     1      -2.715  -7.372   1.632  0.00  0.00    +0.015 A 
ATOM      6  C   UNL     1      -3.425  -8.086   2.575  0.00  0.00    +0.001 A 
ATOM      7  C   UNL     1      -4.226  -7.432   3.498  0.00  0.00    +0.002 A 
ATOM      8  C   UNL     1      -4.329  -6.054   3.485  0.00  0.00    +0.024 A 
ATOM      9  C   UNL     1      -3.627  -5.322   2.542  0.00  0.00    +0.041 A 
ATOM     10  N   UNL     1      -3.720  -3.936   2.477  0.00  0.00    -0.312 N 
ATOM     11  C   UNL     1      -2.584  -3.179   1.939  0.00  0.00    +0.208 C 
ATOM     12  C   UNL     1      -1.527  -2.986   2.981  0.00  0.00    +0.024 A 
ATOM     13  C   UNL     1      -0.761  -3.891   3.684  0.00  0.00    +0.010 A 
ATOM     14  C   UNL     1       0.151  -3.372   4.597  0.00  0.00    +0.001 A 
ATOM     15  C   UNL     1       0.281  -2.012   4.789  0.00  0.00    +0.002 A 
ATOM     16  C   UNL     1      -0.487  -1.095   4.087  0.00  0.00    +0.024 A 
ATOM     17  C   UNL     1      -1.406  -1.603   3.168  0.00  0.00    +0.041 A 
ATOM     18  N   UNL     1      -2.291  -0.928   2.345  0.00  0.00    -0.282 N 
ATOM     19  C   UNL     1      -3.025  -1.772   1.591  0.00  0.00    +0.264 C 
ATOM     20  O   UNL     1      -3.878  -1.462   0.786  0.00  0.00    -0.271 OA
ATOM     21  H   UNL     1      -4.519  -3.479   2.783  0.00  0.00    +0.149 HD
ATOM     22  H   UNL     1      -2.373   0.038   2.315  0.00  0.00    +0.155 HD
ENDROOT
BRANCH   1  23
ATOM     23  C   UNL     1      -1.442  -3.020  -0.309  0.00  0.00    +0.116 C 
BRANCH  23  24
ATOM     24  C   UNL     1       0.051  -2.828  -0.033  0.00  0.00    +0.058 C 
BRANCH  24  30
ATOM     25  C   UNL     1       0.606  -0.607  -1.056  0.00  0.00    +0.123 A 
ATOM     26  C   UNL     1       1.173   0.161  -2.063  0.00  0.00    +0.046 A 
ATOM     27  C   UNL     1       1.786  -0.455  -3.136  0.00  0.00    +0.004 A 
ATOM     28  C   UNL     1       1.836  -1.835  -3.208  0.00  0.00    +0.000 A 
ATOM     29  C   UNL     1       1.271  -2.602  -2.207  0.00  0.00    +0.007 A 
ATOM     30  C   UNL     1       0.661  -1.991  -1.128  0.00  0.00    -0.004 A 
BRANCH  25  32
ATOM     31  C   UNL     1      -0.017   1.425   0.010  0.00  0.00    +0.277 C 
ATOM     32  O   UNL     1       0.002  -0.004   0.002  0.00  0.00    -0.495 OA
ENDBRANCH  25  32
ENDBRANCH  24  30
ENDBRANCH  23  24
ENDBRANCH   1  23
TORSDOF 4
