REMARK  Name = ZINC10041891
REMARK  13 active torsions:
REMARK  status: ('A' for Active; 'I' for Inactive)
REMARK    1  A    between atoms: C_1  and  C_2
REMARK    2  A    between atoms: C_5  and  C_8
REMARK    3  A    between atoms: N_10  and  C_11
REMARK    4  A    between atoms: C_11  and  C_13
REMARK    5  A    between atoms: C_11  and  C_16
REMARK    6  A    between atoms: C_13  and  C_14
REMARK    7  A    between atoms: C_13  and  C_15
REMARK    8  A    between atoms: N_18  and  N_19
REMARK    9  A    between atoms: C_20  and  C_21
REMARK   10  A    between atoms: C_23  and  O_30
REMARK   11  A    between atoms: C_24  and  O_28
REMARK   12  A    between atoms: O_28  and  C_29
REMARK   13  A    between atoms: O_30  and  C_31
REMARK                            x       y       z     vdW  Elec       q    Type
REMARK                         _______ _______ _______ _____ _____    ______ ____
ROOT
ATOM      1  C   UNL     1      -0.064   1.966   2.469  0.00  0.00    +0.253 C 
ATOM      2  O   UNL     1       0.191   2.935   3.154  0.00  0.00    -0.272 OA
ATOM      3  N   UNL     1       0.341   0.741   2.858  0.00  0.00    -0.205 N 
ATOM      4  H   UNL     1       0.080  -0.041   2.346  0.00  0.00    +0.177 HD
ENDROOT
BRANCH   3   5
ATOM      5  N   UNL     1       1.137   0.596   4.001  0.00  0.00    -0.188 NA
ATOM      6  C   UNL     1       1.526  -0.584   4.376  0.00  0.00    +0.138 C 
BRANCH   6   7
ATOM      7  C   UNL     1       2.365  -0.736   5.579  0.00  0.00    -0.001 A 
ATOM      8  C   UNL     1       2.780  -2.007   5.987  0.00  0.00    +0.059 A 
ATOM      9  C   UNL     1       3.571  -2.143   7.112  0.00  0.00    +0.163 A 
ATOM     10  C   UNL     1       3.942  -1.017   7.844  0.00  0.00    +0.175 A 
ATOM     11  C   UNL     1       3.525   0.244   7.443  0.00  0.00    +0.059 A 
ATOM     12  C   UNL     1       2.741   0.388   6.317  0.00  0.00    +0.027 A 
ATOM     13  I   UNL     1       4.088   1.931   8.549  0.00  0.00    -0.040 I 
BRANCH  10  14
ATOM     14  O   UNL     1       4.716  -1.155   8.954  0.00  0.00    -0.490 OA
ATOM     15  C   UNL     1       4.038  -1.339  10.198  0.00  0.00    +0.277 C 
ENDBRANCH  10  14
BRANCH   9  16
ATOM     16  O   UNL     1       3.982  -3.378   7.508  0.00  0.00    -0.491 OA
ATOM     17  C   UNL     1       3.565  -4.487   6.710  0.00  0.00    +0.277 C 
ENDBRANCH   9  16
ENDBRANCH   6   7
ENDBRANCH   3   5
BRANCH   1  18
ATOM     18  C   UNL     1      -0.832   2.134   1.183  0.00  0.00    +0.163 C 
BRANCH  18  21
ATOM     19  C   UNL     1      -2.735   3.490   0.491  0.00  0.00    +0.245 C 
ATOM     20  O   UNL     1      -3.080   2.580  -0.237  0.00  0.00    -0.270 OA
ATOM     21  N   UNL     1      -1.623   3.365   1.243  0.00  0.00    -0.300 N 
ATOM     22  H   UNL     1      -1.347   4.091   1.825  0.00  0.00    +0.150 HD
BRANCH  19  27
ATOM     23  C   UNL     1      -5.844   8.326   0.730  0.00  0.00    +0.044 C 
ATOM     24  C   UNL     1      -5.029   7.059   0.668  0.00  0.00    -0.050 A 
ATOM     25  C   UNL     1      -5.425   6.027  -0.163  0.00  0.00    +0.004 A 
ATOM     26  C   UNL     1      -4.685   4.864  -0.225  0.00  0.00    +0.013 A 
ATOM     27  C   UNL     1      -3.533   4.732   0.552  0.00  0.00    +0.037 A 
ATOM     28  C   UNL     1      -3.142   5.776   1.392  0.00  0.00    +0.013 A 
ATOM     29  C   UNL     1      -3.889   6.935   1.441  0.00  0.00    +0.004 A 
ENDBRANCH  19  27
ENDBRANCH  18  21
BRANCH  18  30
ATOM     30  C   UNL     1       0.148   2.214   0.011  0.00  0.00    +0.012 C 
ATOM     31  C   UNL     1       0.990   3.485   0.136  0.00  0.00    +0.009 C 
ATOM     32  C   UNL     1      -0.633   2.247  -1.305  0.00  0.00    +0.009 C 
ENDBRANCH  18  30
ENDBRANCH   1  18
TORSDOF 8
