REMARK  Name = ZINC20284055
REMARK  11 active torsions:
REMARK  status: ('A' for Active; 'I' for Inactive)
REMARK    1  A    between atoms: C_1  and  C_2
REMARK    2  A    between atoms: C_2  and  C_3
REMARK    3  A    between atoms: C_3  and  C_5
REMARK    4  A    between atoms: C_3  and  N_6
REMARK    5  A    between atoms: N_9  and  C_12
REMARK    6  A    between atoms: C_12  and  C_13
REMARK    7  A    between atoms: C_14  and  C_27
REMARK    8  A    between atoms: C_15  and  C_21
REMARK    9  A    between atoms: C_27  and  O_29
REMARK   10  A    between atoms: O_29  and  C_30
REMARK   11  A    between atoms: C_30  and  C_31
REMARK                            x       y       z     vdW  Elec       q    Type
REMARK                         _______ _______ _______ _____ _____    ______ ____
ROOT
ATOM      1  C   UNL     1      -0.329   1.472   0.156  0.00  0.00    +0.038 C 
ATOM      2  C   UNL     1       0.910   2.006   0.098  0.00  0.00    +0.079 C 
ATOM      3  C   UNL     1       1.024   3.516   0.033  0.00  0.00    +0.144 C 
ATOM      4  N   UNL     1      -0.234   4.281   0.038  0.00  0.00    -0.288 N 
ATOM      5  C   UNL     1      -1.397   3.603   0.100  0.00  0.00    +0.304 C 
ATOM      6  O   UNL     1      -2.441   4.226   0.106  0.00  0.00    -0.252 OA
ATOM      7  N   UNL     1      -1.440   2.266   0.151  0.00  0.00    -0.271 N 
ATOM      8  H   UNL     1      -0.209   5.380  -0.007  0.00  0.00    +0.151 HD
ATOM      9  H   UNL     1      -2.441   1.811   0.190  0.00  0.00    +0.156 HD
ENDROOT
BRANCH   3  10
ATOM     10  C   UNL     1       1.779   3.871  -1.222  0.00  0.00    -0.023 A 
ATOM     11  C   UNL     1       1.127   3.877  -2.441  0.00  0.00    +0.006 A 
ATOM     12  C   UNL     1       1.818   4.207  -3.592  0.00  0.00    +0.000 A 
ATOM     13  C   UNL     1       3.163   4.521  -3.525  0.00  0.00    +0.000 A 
ATOM     14  C   UNL     1       3.816   4.510  -2.307  0.00  0.00    +0.000 A 
ATOM     15  C   UNL     1       3.124   4.184  -1.155  0.00  0.00    +0.006 A 
ENDBRANCH   3  10
BRANCH   2  16
ATOM     16  C   UNL     1       2.062   1.185   0.099  0.00  0.00    +0.339 C 
ATOM     17  O   UNL     1       1.946  -0.025   0.033  0.00  0.00    -0.245 OA
BRANCH  16  18
ATOM     18  O   UNL     1       3.288   1.743   0.173  0.00  0.00    -0.462 OA
BRANCH  18  19
ATOM     19  C   UNL     1       4.407   0.853   0.169  0.00  0.00    +0.229 C 
ATOM     20  C   UNL     1       5.702   1.662   0.258  0.00  0.00    +0.048 C 
ENDBRANCH  18  19
ENDBRANCH  16  18
ENDBRANCH   2  16
BRANCH   1  21
ATOM     21  C   UNL     1      -0.488  -0.025   0.222  0.00  0.00    +0.135 C 
BRANCH  21  25
ATOM     22  N   UNL     1      -1.439  -2.141  -3.309  0.00  0.00    +0.383 N 
ATOM     23  C   UNL     1      -0.268  -2.580  -2.537  0.00  0.00    -0.063 C 
ATOM     24  C   UNL     1      -0.374  -2.047  -1.106  0.00  0.00    +0.066 C 
ATOM     25  N   UNL     1      -0.461  -0.581  -1.138  0.00  0.00    -0.300 NA
ATOM     26  C   UNL     1      -1.631  -0.141  -1.910  0.00  0.00    +0.066 C 
ATOM     27  C   UNL     1      -1.525  -0.674  -3.341  0.00  0.00    -0.063 C 
ATOM     28  H   UNL     1      -2.340  -2.523  -2.807  0.00  0.00    -0.081 HD
BRANCH  22  29
ATOM     29  C   UNL     1      -1.411  -2.696  -4.669  0.00  0.00    -0.072 C 
ATOM     30  C   UNL     1      -0.056  -2.400  -5.313  0.00  0.00    -0.013 C 
BRANCH  29  32
ATOM     31  C   UNL     1      -3.020  -4.504  -4.047  0.00  0.00    +0.002 C 
ATOM     32  C   UNL     1      -1.627  -4.210  -4.606  0.00  0.00    -0.019 C 
ENDBRANCH  29  32
ENDBRANCH  22  29
ENDBRANCH  21  25
ENDBRANCH   1  21
TORSDOF 8
