REMARK  Name = ZINC43509243
REMARK  9 active torsions:
REMARK  status: ('A' for Active; 'I' for Inactive)
REMARK    1  A    between atoms: C_1  and  C_2
REMARK    2  A    between atoms: C_2  and  C_39
REMARK    3  A    between atoms: C_7  and  C_11
REMARK    4  A    between atoms: C_11  and  S_12
REMARK    5  A    between atoms: S_12  and  N_15
REMARK    6  A    between atoms: C_19  and  C_21
REMARK    7  A    between atoms: N_23  and  C_24
REMARK    8  A    between atoms: C_27  and  N_30
REMARK    9  A    between atoms: C_31  and  C_33
REMARK                            x       y       z     vdW  Elec       q    Type
REMARK                         _______ _______ _______ _____ _____    ______ ____
ROOT
ATOM      1  C   UNL     1      -0.155  -2.791   6.372  0.00  0.00    +0.232 C 
ATOM      2  O   UNL     1       0.998  -3.076   6.127  0.00  0.00    -0.274 OA
ATOM      3  N   UNL     1      -0.954  -3.684   6.989  0.00  0.00    -0.311 N 
ATOM      4  H   UNL     1      -1.876  -3.456   7.184  0.00  0.00    +0.149 HD
ENDROOT
BRANCH   3   5
ATOM      5  C   UNL     1      -0.430  -5.000   7.363  0.00  0.00    +0.073 C 
ATOM      6  C   UNL     1      -0.536  -5.950   6.168  0.00  0.00    +0.024 C 
ATOM      7  C   UNL     1       0.012  -7.324   6.559  0.00  0.00    +0.024 C 
ATOM      8  C   UNL     1      -0.801  -7.883   7.728  0.00  0.00    +0.073 C 
ATOM      9  C   UNL     1      -0.695  -6.933   8.923  0.00  0.00    +0.024 C 
ATOM     10  C   UNL     1      -1.242  -5.559   8.532  0.00  0.00    +0.024 C 
BRANCH   8  11
ATOM     11  N   UNL     1      -0.277  -9.199   8.102  0.00  0.00    -0.308 N 
ATOM     12  C   UNL     1      -1.075 -10.092   8.719  0.00  0.00    +0.244 C 
ATOM     13  O   UNL     1      -2.231  -9.806   8.964  0.00  0.00    -0.270 OA
ATOM     14  H   UNL     1       0.646  -9.427   7.906  0.00  0.00    +0.149 HD
BRANCH  12  15
ATOM     15  C   UNL     1      -0.546 -11.420   9.096  0.00  0.00    +0.037 A 
ATOM     16  C   UNL     1       0.782 -11.750   8.821  0.00  0.00    +0.013 A 
ATOM     17  C   UNL     1       1.269 -12.990   9.176  0.00  0.00    +0.001 A 
ATOM     18  C   UNL     1       0.445 -13.907   9.804  0.00  0.00    +0.000 A 
ATOM     19  C   UNL     1      -0.873 -13.587  10.079  0.00  0.00    +0.001 A 
ATOM     20  C   UNL     1      -1.371 -12.348   9.735  0.00  0.00    +0.013 A 
ENDBRANCH  12  15
ENDBRANCH   8  11
ENDBRANCH   3   5
BRANCH   1  25
ATOM     21  N   UNL     1       0.359  -0.647   5.333  0.00  0.00    -0.169 NA
ATOM     22  C   UNL     1       0.612   0.561   6.139  0.00  0.00    +0.110 C 
ATOM     23  C   UNL     1      -0.697   0.789   6.935  0.00  0.00    +0.019 C 
ATOM     24  C   UNL     1      -1.125  -0.668   7.253  0.00  0.00    +0.031 C 
ATOM     25  C   UNL     1      -0.694  -1.437   5.987  0.00  0.00    +0.165 C 
BRANCH  21  26
ATOM     26  S   UNL     1       1.128  -1.045   3.922  0.00  0.00    +0.033 S 
ATOM     27  O   UNL     1       1.039  -2.461   3.847  0.00  0.00    -0.158 OA
ATOM     28  O   UNL     1       2.393  -0.402   4.005  0.00  0.00    -0.158 OA
BRANCH  26  29
ATOM     29  C   UNL     1       0.126  -0.285   2.614  0.00  0.00    +0.200 C 
BRANCH  29  35
ATOM     30  C   UNL     1      -0.019   1.526   0.010  0.00  0.00    +0.012 C 
ATOM     31  C   UNL     1       0.002  -0.004   0.002  0.00  0.00    -0.018 C 
ATOM     32  C   UNL     1       1.004  -0.575  -1.063  0.00  0.00    +0.003 C 
ATOM     33  C   UNL     1       2.351   0.004  -0.529  0.00  0.00    +0.005 C 
ATOM     34  C   UNL     1       2.191  -0.001   1.008  0.00  0.00    +0.017 C 
ATOM     35  C   UNL     1       0.749  -0.591   1.251  0.00  0.00    +0.055 C 
ATOM     36  C   UNL     1       0.846  -2.072   0.860  0.00  0.00    +0.142 C 
ATOM     37  O   UNL     1       0.795  -3.029   1.596  0.00  0.00    -0.297 OA
ATOM     38  C   UNL     1       1.018  -2.079  -0.652  0.00  0.00    +0.079 C 
ATOM     39  C   UNL     1      -1.403  -0.589  -0.156  0.00  0.00    +0.012 C 
ENDBRANCH  29  35
ENDBRANCH  26  29
ENDBRANCH  21  26
ENDBRANCH   1  25
TORSDOF 7
