REMARK  Name = ZINC67154833
REMARK  8 active torsions:
REMARK  status: ('A' for Active; 'I' for Inactive)
REMARK    1  A    between atoms: C_1  and  C_2
REMARK    2  A    between atoms: C_3  and  C_17
REMARK    3  A    between atoms: N_6  and  C_7
REMARK    4  A    between atoms: N_19  and  C_20
REMARK    5  A    between atoms: N_19  and  C_21
REMARK    6  A    between atoms: N_24  and  C_27
REMARK    7  A    between atoms: C_27  and  C_28
REMARK    8  A    between atoms: C_27  and  C_29
REMARK                            x       y       z     vdW  Elec       q    Type
REMARK                         _______ _______ _______ _____ _____    ______ ____
ROOT
ATOM      1  C   UNL     1      -0.809   1.463  -0.076  0.00  0.00    +0.068 C 
ATOM      2  C   UNL     1      -0.772  -0.044  -0.094  0.00  0.00    +0.074 A 
ATOM      3  C   UNL     1      -0.517  -0.840  -1.174  0.00  0.00    +0.170 A 
ATOM      4  N   UNL     1      -0.575  -2.124  -0.780  0.00  0.00    -0.124 NA
ATOM      5  N   UNL     1      -0.849  -2.177   0.476  0.00  0.00    -0.060 NA
ATOM      6  N   UNL     1      -0.979  -0.866   0.957  0.00  0.00    -0.216 N 
ENDROOT
BRANCH   6   7
ATOM      7  C   UNL     1      -1.270  -0.483   2.275  0.00  0.00    +0.071 A 
ATOM      8  C   UNL     1      -0.709   0.671   2.803  0.00  0.00    +0.031 A 
ATOM      9  C   UNL     1      -0.995   1.048   4.100  0.00  0.00    +0.051 A 
ATOM     10  C   UNL     1      -1.843   0.275   4.880  0.00  0.00    +0.162 A 
ATOM     11  C   UNL     1      -2.409  -0.880   4.353  0.00  0.00    +0.164 A 
ATOM     12  C   UNL     1      -2.124  -1.256   3.050  0.00  0.00    +0.077 A 
ATOM     13  O   UNL     1      -3.249  -1.647   5.100  0.00  0.00    -0.485 OA
ATOM     14  C   UNL     1      -3.221  -1.441   6.517  0.00  0.00    +0.270 C 
ATOM     15  C   UNL     1      -3.255   0.070   6.783  0.00  0.00    +0.270 C 
ATOM     16  O   UNL     1      -2.109   0.660   6.159  0.00  0.00    -0.485 OA
ENDBRANCH   6   7
BRANCH   3  17
ATOM     17  C   UNL     1      -0.228  -0.370  -2.542  0.00  0.00    +0.269 C 
ATOM     18  O   UNL     1      -0.290   0.816  -2.804  0.00  0.00    -0.268 OA
ATOM     19  N   UNL     1       0.105  -1.256  -3.502  0.00  0.00    -0.296 N 
ATOM     20  C   UNL     1       0.128  -2.689  -3.201  0.00  0.00    +0.132 C 
BRANCH  19  21
ATOM     21  C   UNL     1       0.445  -0.784  -4.847  0.00  0.00    +0.073 C 
ATOM     22  C   UNL     1      -0.522  -1.398  -5.864  0.00  0.00    +0.004 C 
ATOM     23  C   UNL     1      -0.113  -0.965  -7.274  0.00  0.00    -0.077 C 
ATOM     24  N   UNL     1       1.252  -1.426  -7.554  0.00  0.00    +0.381 N 
ATOM     25  C   UNL     1       2.194  -0.786  -6.628  0.00  0.00    -0.077 C 
ATOM     26  C   UNL     1       1.874  -1.212  -5.194  0.00  0.00    +0.004 C 
ATOM     27  H   UNL     1       1.298  -2.427  -7.441  0.00  0.00    -0.081 HD
BRANCH  24  28
ATOM     28  C   UNL     1       1.611  -1.076  -8.935  0.00  0.00    -0.075 C 
ATOM     29  C   UNL     1       3.034  -1.556  -9.229  0.00  0.00    -0.014 C 
ATOM     30  C   UNL     1       0.636  -1.750  -9.902  0.00  0.00    -0.014 C 
ENDBRANCH  24  28
ENDBRANCH  19  21
ENDBRANCH   3  17
TORSDOF 4
