REMARK  Name = ZINC03655165
REMARK  7 active torsions:
REMARK  status: ('A' for Active; 'I' for Inactive)
REMARK    1  A    between atoms: C_1  and  O_2
REMARK    2  A    between atoms: O_2  and  C_3
REMARK    3  A    between atoms: C_3  and  C_5
REMARK    4  A    between atoms: C_8  and  C_11
REMARK    5  A    between atoms: C_23  and  S_26
REMARK    6  A    between atoms: S_26  and  C_27
REMARK    7  A    between atoms: C_27  and  C_28
REMARK                            x       y       z     vdW  Elec       q    Type
REMARK                         _______ _______ _______ _____ _____    ______ ____
ROOT
ATOM      1  C   UNL     1      -0.018   1.455   0.010  0.00  0.00    +0.294 C 
ATOM      2  N   UNL     1      -0.022  -0.004  -0.012  0.00  0.00    -0.305 N 
ATOM      3  C   UNL     1       0.861  -0.691   0.827  0.00  0.00    +0.039 A 
ATOM      4  C   UNL     1       0.406  -1.423   1.908  0.00  0.00    +0.024 A 
ATOM      5  C   UNL     1       1.308  -2.076   2.727  0.00  0.00    +0.002 A 
ATOM      6  C   UNL     1       2.667  -2.001   2.473  0.00  0.00    +0.001 A 
ATOM      7  C   UNL     1       3.137  -1.280   1.393  0.00  0.00    +0.012 A 
ATOM      8  C   UNL     1       2.241  -0.625   0.557  0.00  0.00    +0.028 A 
ATOM      9  C   UNL     1       2.698   0.138  -0.623  0.00  0.00    +0.156 A 
ATOM     10  C   UNL     1       2.193   1.438  -0.853  0.00  0.00    +0.248 A 
ATOM     11  N   UNL     1       2.609   2.102  -1.918  0.00  0.00    -0.184 NA
ATOM     12  C   UNL     1       3.489   1.532  -2.737  0.00  0.00    +0.213 A 
ATOM     13  N   UNL     1       3.953   0.312  -2.501  0.00  0.00    -0.122 NA
ATOM     14  N   UNL     1       3.573  -0.371  -1.477  0.00  0.00    -0.141 NA
ATOM     15  O   UNL     1       1.305   1.980   0.014  0.00  0.00    -0.449 OA
ATOM     16  H   UNL     1      -0.625  -0.488  -0.597  0.00  0.00    +0.150 HD
ENDROOT
BRANCH   1  20
ATOM     17  C   UNL     1      -2.062   2.802   3.516  0.00  0.00    +0.059 A 
ATOM     18  C   UNL     1      -0.916   3.466   3.074  0.00  0.00    +0.015 A 
ATOM     19  C   UNL     1      -0.261   3.026   1.943  0.00  0.00    +0.010 A 
ATOM     20  C   UNL     1      -0.738   1.930   1.246  0.00  0.00    +0.011 A 
ATOM     21  C   UNL     1      -1.876   1.270   1.676  0.00  0.00    +0.010 A 
ATOM     22  C   UNL     1      -2.537   1.696   2.809  0.00  0.00    +0.015 A 
BRANCH  17  23
ATOM     23  C   UNL     1      -2.769   3.268   4.727  0.00  0.00    +0.339 C 
ATOM     24  O   UNL     1      -2.353   4.231   5.340  0.00  0.00    -0.245 OA
BRANCH  23  26
ATOM     25  C   UNL     1      -4.517   3.139   6.348  0.00  0.00    +0.280 C 
ATOM     26  O   UNL     1      -3.874   2.626   5.151  0.00  0.00    -0.464 OA
ENDBRANCH  23  26
ENDBRANCH  17  23
ENDBRANCH   1  20
BRANCH  12  27
ATOM     27  S   UNL     1       4.046   2.412  -4.159  0.00  0.00    -0.080 S 
BRANCH  27  28
ATOM     28  C   UNL     1       5.180   1.189  -4.861  0.00  0.00    +0.112 C 
BRANCH  28  29
ATOM     29  C   UNL     1       5.794   1.739  -6.122  0.00  0.00    -0.037 A 
ATOM     30  C   UNL     1       5.180   1.521  -7.341  0.00  0.00    +0.006 A 
ATOM     31  C   UNL     1       5.740   2.030  -8.498  0.00  0.00    +0.020 A 
ATOM     32  C   UNL     1       6.921   2.748  -8.437  0.00  0.00    +0.041 A 
ATOM     33  C   UNL     1       7.538   2.962  -7.217  0.00  0.00    +0.020 A 
ATOM     34  C   UNL     1       6.974   2.457  -6.060  0.00  0.00    +0.006 A 
ATOM     35 CL   UNL     1       7.628   3.383  -9.890  0.00  0.00    -0.084 Cl
ENDBRANCH  28  29
ENDBRANCH  27  28
ENDBRANCH  12  27
TORSDOF 6
