REMARK  Name = ZINC57773879
REMARK  13 active torsions:
REMARK  status: ('A' for Active; 'I' for Inactive)
REMARK    1  A    between atoms: C_1  and  O_2
REMARK    2  A    between atoms: O_2  and  C_3
REMARK    3  A    between atoms: C_3  and  C_4
REMARK    4  A    between atoms: C_4  and  O_5
REMARK    5  A    between atoms: O_5  and  C_6
REMARK    6  A    between atoms: C_10  and  C_12
REMARK    7  A    between atoms: C_12  and  N_13
REMARK    8  A    between atoms: C_19  and  C_23
REMARK    9  A    between atoms: C_19  and  O_33
REMARK   10  A    between atoms: C_26  and  O_31
REMARK   11  A    between atoms: C_28  and  O_29
REMARK   12  A    between atoms: O_29  and  C_30
REMARK   13  A    between atoms: O_31  and  C_32
REMARK                            x       y       z     vdW  Elec       q    Type
REMARK                         _______ _______ _______ _____ _____    ______ ____
ROOT
ATOM      1  N   UNL     1       2.159  -6.573  -3.885  0.00  0.00    +0.383 N 
ATOM      2  C   UNL     1       1.242  -7.741  -3.876  0.00  0.00    -0.075 C 
ATOM      3  C   UNL     1       0.784  -7.890  -5.343  0.00  0.00    -0.023 C 
ATOM      4  C   UNL     1       0.774  -9.386  -5.713  0.00  0.00    +0.005 C 
ATOM      5  C   UNL     1       2.206  -9.662  -6.233  0.00  0.00    +0.040 C 
ATOM      6  C   UNL     1       2.538  -8.371  -7.022  0.00  0.00    +0.099 C 
ATOM      7  C   UNL     1       1.902  -7.219  -6.179  0.00  0.00    +0.010 C 
ATOM      8  C   UNL     1       2.934  -6.726  -5.143  0.00  0.00    -0.072 C 
ATOM      9  H   UNL     1       1.635  -5.711  -3.896  0.00  0.00    -0.081 HD
ENDROOT
BRANCH   6  10
ATOM     10  C   UNL     1       4.029  -8.187  -7.128  0.00  0.00    +0.064 A 
ATOM     11  C   UNL     1       4.897  -9.149  -6.644  0.00  0.00    +0.128 A 
ATOM     12  N   UNL     1       6.203  -8.956  -6.754  0.00  0.00    -0.203 NA
ATOM     13  C   UNL     1       6.683  -7.860  -7.318  0.00  0.00    +0.321 A 
ATOM     14  N   UNL     1       5.886  -6.917  -7.794  0.00  0.00    -0.159 NA
ATOM     15  C   UNL     1       4.566  -7.047  -7.723  0.00  0.00    +0.226 A 
BRANCH  15  16
ATOM     16  O   UNL     1       3.753  -6.081  -8.216  0.00  0.00    -0.479 OA
ATOM     17  C   UNL     1       4.378  -4.999  -8.909  0.00  0.00    +0.279 C 
ENDBRANCH  15  16
BRANCH  13  18
ATOM     18  O   UNL     1       8.024  -7.698  -7.412  0.00  0.00    -0.466 OA
ATOM     19  C   UNL     1       8.842  -8.745  -6.883  0.00  0.00    +0.280 C 
ENDBRANCH  13  18
ENDBRANCH   6  10
BRANCH   6  20
ATOM     20  O   UNL     1       1.944  -8.414  -8.321  0.00  0.00    -0.384 OA
ATOM     21  H   UNL     1       2.259  -9.142  -8.874  0.00  0.00    +0.211 HD
ENDBRANCH   6  20
BRANCH   1  22
ATOM     22  C   UNL     1       3.054  -6.614  -2.721  0.00  0.00    -0.043 C 
BRANCH  22  27
ATOM     23  C   UNL     1       1.410  -4.743   0.120  0.00  0.00    +0.121 A 
ATOM     24  C   UNL     1       0.821  -5.781   0.828  0.00  0.00    +0.045 A 
ATOM     25  C   UNL     1       0.957  -7.082   0.384  0.00  0.00    +0.004 A 
ATOM     26  C   UNL     1       1.679  -7.350  -0.764  0.00  0.00    +0.002 A 
ATOM     27  C   UNL     1       2.267  -6.318  -1.471  0.00  0.00    -0.060 A 
ATOM     28  C   UNL     1       2.129  -5.014  -1.034  0.00  0.00    +0.047 A 
BRANCH  23  29
ATOM     29  O   UNL     1       1.277  -3.462   0.554  0.00  0.00    -0.490 OA
BRANCH  29  30
ATOM     30  C   UNL     1       0.522  -3.257   1.750  0.00  0.00    +0.257 C 
BRANCH  30  31
ATOM     31  C   UNL     1       0.483  -1.763   2.078  0.00  0.00    +0.200 C 
BRANCH  31  33
ATOM     32  C   UNL     1      -0.330   0.341   1.267  0.00  0.00    +0.194 C 
ATOM     33  O   UNL     1      -0.234  -1.069   1.056  0.00  0.00    -0.380 OA
ENDBRANCH  31  33
ENDBRANCH  30  31
ENDBRANCH  29  30
ENDBRANCH  23  29
ENDBRANCH  22  27
ENDBRANCH   1  22
TORSDOF 10
