REMARK  Name = ZINC09611428
REMARK  10 active torsions:
REMARK  status: ('A' for Active; 'I' for Inactive)
REMARK    1  A    between atoms: C_1  and  C_2
REMARK    2  A    between atoms: C_2  and  O_3
REMARK    3  A    between atoms: O_3  and  C_4
REMARK    4  A    between atoms: C_4  and  C_6
REMARK    5  A    between atoms: C_13  and  C_15
REMARK    6  A    between atoms: C_15  and  C_17
REMARK    7  A    between atoms: C_15  and  N_24
REMARK    8  A    between atoms: C_17  and  C_18
REMARK    9  A    between atoms: N_24  and  S_25
REMARK   10  A    between atoms: S_25  and  C_28
REMARK                            x       y       z     vdW  Elec       q    Type
REMARK                         _______ _______ _______ _____ _____    ______ ____
ROOT
ATOM      1  C   UNL     1       1.523   2.826   0.652  0.00  0.00    +0.166 C 
ENDROOT
BRANCH   1   8
ATOM      2  C   UNL     1       2.459   7.310  -0.556  0.00  0.00    +0.115 C 
ATOM      3  C   UNL     1       3.861   7.197   0.047  0.00  0.00    +0.018 C 
ATOM      4  C   UNL     1       3.911   6.004   1.005  0.00  0.00    +0.020 C 
ATOM      5  C   UNL     1       3.614   4.718   0.228  0.00  0.00    +0.108 C 
ATOM      6  N   UNL     1       2.332   4.874  -0.474  0.00  0.00    -0.299 N 
ATOM      7  C   UNL     1       2.147   6.035  -1.355  0.00  0.00    +0.122 C 
ATOM      8  C   UNL     1       1.348   3.967  -0.316  0.00  0.00    +0.235 C 
ATOM      9  O   UNL     1       0.321   4.070  -0.954  0.00  0.00    -0.274 OA
BRANCH   2  10
ATOM     10  C   UNL     1       2.401   8.504  -1.474  0.00  0.00    +0.312 C 
ATOM     11  O   UNL     1       2.134   8.354  -2.643  0.00  0.00    -0.250 OA
BRANCH  10  12
ATOM     12  O   UNL     1       2.647   9.732  -0.993  0.00  0.00    -0.465 OA
BRANCH  12  14
ATOM     13  C   UNL     1       2.881  12.147  -1.209  0.00  0.00    +0.048 C 
ATOM     14  C   UNL     1       2.574  10.835  -1.934  0.00  0.00    +0.229 C 
ENDBRANCH  12  14
ENDBRANCH  10  12
ENDBRANCH   2  10
ENDBRANCH   1   8
BRANCH   1  15
ATOM     15  N   UNL     1       0.561   1.766   0.336  0.00  0.00    -0.178 NA
ATOM     16  H   UNL     1      -0.347   1.820   0.673  0.00  0.00    +0.149 HD
BRANCH  15  17
ATOM     17  S   UNL     1       1.023   0.481  -0.601  0.00  0.00    +0.059 S 
ATOM     18  O   UNL     1      -0.090  -0.401  -0.657  0.00  0.00    -0.153 OA
ATOM     19  O   UNL     1       1.624   1.025  -1.768  0.00  0.00    -0.153 OA
BRANCH  17  20
ATOM     20  C   UNL     1       2.296  -0.369   0.271  0.00  0.00    +0.106 A 
ATOM     21  C   UNL     1       1.972  -1.411   1.121  0.00  0.00    +0.030 A 
ATOM     22  C   UNL     1       2.967  -2.080   1.807  0.00  0.00    +0.025 A 
ATOM     23  C   UNL     1       4.294  -1.705   1.641  0.00  0.00    +0.037 A 
ATOM     24  C   UNL     1       4.615  -0.659   0.787  0.00  0.00    -0.024 A 
ATOM     25  C   UNL     1       3.616   0.003   0.101  0.00  0.00    +0.034 A 
ATOM     26  C   UNL     1       6.055  -0.253   0.607  0.00  0.00    +0.046 C 
ATOM     27  C   UNL     1       6.810  -0.450   1.921  0.00  0.00    +0.101 C 
ATOM     28  C   UNL     1       6.521  -1.818   2.478  0.00  0.00    +0.218 C 
ATOM     29  O   UNL     1       7.393  -2.423   3.066  0.00  0.00    -0.275 OA
ATOM     30  N   UNL     1       5.306  -2.379   2.331  0.00  0.00    -0.285 N 
ATOM     31  H   UNL     1       5.132  -3.256   2.706  0.00  0.00    +0.155 HD
ENDBRANCH  17  20
ENDBRANCH  15  17
ENDBRANCH   1  15
BRANCH   1  32
ATOM     32  C   UNL     1       1.282   3.325   2.078  0.00  0.00    +0.065 C 
BRANCH  32  33
ATOM     33  C   UNL     1       1.541   2.205   3.052  0.00  0.00    -0.045 A 
ATOM     34  C   UNL     1       0.497   1.408   3.483  0.00  0.00    +0.004 A 
ATOM     35  C   UNL     1       0.736   0.377   4.373  0.00  0.00    +0.000 A 
ATOM     36  C   UNL     1       2.017   0.151   4.841  0.00  0.00    +0.000 A 
ATOM     37  C   UNL     1       3.060   0.952   4.415  0.00  0.00    +0.000 A 
ATOM     38  C   UNL     1       2.822   1.979   3.520  0.00  0.00    +0.004 A 
ENDBRANCH  32  33
ENDBRANCH   1  32
TORSDOF 9
