REMARK  Name = ZINC09123983
REMARK  9 active torsions:
REMARK  status: ('A' for Active; 'I' for Inactive)
REMARK    1  A    between atoms: C_1  and  C_2
REMARK    2  A    between atoms: C_2  and  O_3
REMARK    3  A    between atoms: O_3  and  C_4
REMARK    4  A    between atoms: C_8  and  C_10
REMARK    5  A    between atoms: C_13  and  C_28
REMARK    6  A    between atoms: N_20  and  C_21
REMARK    7  A    between atoms: C_21  and  C_22
REMARK    8  A    between atoms: C_31  and  C_35
REMARK    9  A    between atoms: C_33  and  O_34
REMARK                            x       y       z     vdW  Elec       q    Type
REMARK                         _______ _______ _______ _____ _____    ______ ____
ROOT
ATOM      1  C   UNL     1       2.222  -4.257  -3.827  0.00  0.00    +0.142 C 
ATOM      2  C   UNL     1       3.619  -4.684  -3.467  0.00  0.00    +0.035 A 
ATOM      3  C   UNL     1       4.845  -4.327  -3.003  0.00  0.00    +0.075 A 
ATOM      4  N   UNL     1       5.604  -5.462  -2.991  0.00  0.00    -0.276 N 
ATOM      5  H   UNL     1       6.530  -5.510  -2.704  0.00  0.00    +0.189 HD
ATOM      6  N   UNL     1       4.911  -6.458  -3.414  0.00  0.00    -0.168 NA
ATOM      7  C   UNL     1       3.690  -6.072  -3.726  0.00  0.00    +0.153 A 
ATOM      8  C   UNL     1       2.376  -6.505  -4.234  0.00  0.00    +0.268 C 
ATOM      9  O   UNL     1       2.097  -7.644  -4.554  0.00  0.00    -0.268 OA
ATOM     10  N   UNL     1       1.528  -5.462  -4.294  0.00  0.00    -0.281 N 
ENDROOT
BRANCH   3  11
ATOM     11  C   UNL     1       5.274  -2.972  -2.592  0.00  0.00    +0.043 A 
ATOM     12  C   UNL     1       6.263  -2.302  -3.311  0.00  0.00    +0.034 A 
ATOM     13  C   UNL     1       6.659  -1.038  -2.922  0.00  0.00    +0.045 A 
ATOM     14  C   UNL     1       6.078  -0.433  -1.821  0.00  0.00    -0.029 A 
ATOM     15  C   UNL     1       5.097  -1.089  -1.101  0.00  0.00    +0.050 A 
ATOM     16  C   UNL     1       4.685  -2.355  -1.482  0.00  0.00    +0.126 A 
ATOM     17  C   UNL     1       6.517   0.947  -1.404  0.00  0.00    +0.045 C 
ATOM     18 CL   UNL     1       7.890  -0.204  -3.818  0.00  0.00    -0.083 Cl
BRANCH  16  19
ATOM     19  O   UNL     1       3.717  -2.998  -0.779  0.00  0.00    -0.506 OA
ATOM     20  H   UNL     1       4.053  -3.538  -0.051  0.00  0.00    +0.292 HD
ENDBRANCH  16  19
ENDBRANCH   3  11
BRANCH   1  25
ATOM     21  C   UNL     1       0.777  -1.810  -1.336  0.00  0.00    +0.121 A 
ATOM     22  C   UNL     1       0.243  -2.669  -0.386  0.00  0.00    +0.045 A 
ATOM     23  C   UNL     1       0.351  -4.036  -0.554  0.00  0.00    +0.004 A 
ATOM     24  C   UNL     1       0.991  -4.548  -1.667  0.00  0.00    +0.006 A 
ATOM     25  C   UNL     1       1.525  -3.695  -2.615  0.00  0.00    -0.019 A 
ATOM     26  C   UNL     1       1.414  -2.327  -2.455  0.00  0.00    +0.051 A 
BRANCH  21  27
ATOM     27  O   UNL     1       0.671  -0.465  -1.174  0.00  0.00    -0.492 OA
BRANCH  27  29
ATOM     28  C   UNL     1      -0.019   1.526   0.010  0.00  0.00    +0.048 C 
ATOM     29  C   UNL     1       0.002  -0.004   0.002  0.00  0.00    +0.225 C 
ENDBRANCH  27  29
ENDBRANCH  21  27
ENDBRANCH   1  25
BRANCH  10  30
ATOM     30  C   UNL     1       0.137  -5.520  -4.751  0.00  0.00    +0.145 C 
BRANCH  30  31
ATOM     31  C   UNL     1       0.085  -5.269  -6.236  0.00  0.00    -0.012 A 
ATOM     32  C   UNL     1      -0.049  -3.979  -6.726  0.00  0.00    +0.008 A 
ATOM     33  C   UNL     1      -0.092  -3.796  -8.099  0.00  0.00    +0.020 A 
ATOM     34  C   UNL     1      -0.002  -4.898  -8.929  0.00  0.00    +0.111 A 
ATOM     35  N   UNL     1       0.124  -6.111  -8.427  0.00  0.00    -0.263 NA
ATOM     36  C   UNL     1       0.175  -6.322  -7.126  0.00  0.00    +0.115 A 
ENDBRANCH  30  31
ENDBRANCH  10  30
TORSDOF 7
