REMARK  Name = ZINC28059515
REMARK  6 active torsions:
REMARK  status: ('A' for Active; 'I' for Inactive)
REMARK    1  A    between atoms: C_1  and  O_2
REMARK    2  A    between atoms: O_2  and  C_3
REMARK    3  A    between atoms: C_6  and  C_11
REMARK    4  A    between atoms: C_8  and  O_9
REMARK    5  A    between atoms: O_9  and  C_10
REMARK    6  A    between atoms: C_22  and  C_24
REMARK                            x       y       z     vdW  Elec       q    Type
REMARK                         _______ _______ _______ _____ _____    ______ ____
ROOT
ATOM      1  C   UNL     1       5.241   1.472  -0.013  0.00  0.00    +0.174 C 
ATOM      2  C   UNL     1       5.885   1.575   1.347  0.00  0.00    +0.025 C 
ATOM      3  C   UNL     1       7.053   2.191   1.540  0.00  0.00    +0.050 C 
ATOM      4  C   UNL     1       7.617   2.221   2.911  0.00  0.00    +0.038 A 
ATOM      5  C   UNL     1       8.630   3.106   3.260  0.00  0.00    +0.013 A 
ATOM      6  C   UNL     1       9.127   3.097   4.549  0.00  0.00    +0.001 A 
ATOM      7  C   UNL     1       8.621   2.214   5.487  0.00  0.00    +0.004 A 
ATOM      8  C   UNL     1       7.612   1.331   5.148  0.00  0.00    +0.046 A 
ATOM      9  C   UNL     1       7.104   1.330   3.862  0.00  0.00    +0.131 A 
ATOM     10  O   UNL     1       6.111   0.483   3.491  0.00  0.00    -0.479 OA
ATOM     11  C   UNL     1       5.170   0.966   2.532  0.00  0.00    +0.234 C 
ATOM     12  N   UNL     1       7.763   2.792   0.493  0.00  0.00    -0.282 N 
ATOM     13  C   UNL     1       7.369   2.485  -0.799  0.00  0.00    +0.240 A 
ATOM     14  N   UNL     1       6.190   1.858  -1.048  0.00  0.00    -0.201 N 
ATOM     15  N   UNL     1       6.138   1.701  -2.432  0.00  0.00    -0.042 NA
ATOM     16  N   UNL     1       7.225   2.221  -2.903  0.00  0.00    -0.021 NA
ATOM     17  N   UNL     1       7.953   2.686  -1.945  0.00  0.00    -0.092 NA
ATOM     18  H   UNL     1       8.596   3.475   0.715  0.00  0.00    +0.155 HD
ENDROOT
BRANCH  11  19
ATOM     19  C   UNL     1       4.296   2.010   3.176  0.00  0.00    -0.003 A 
ATOM     20  C   UNL     1       4.864   3.007   3.947  0.00  0.00    +0.008 A 
ATOM     21  C   UNL     1       4.062   3.969   4.534  0.00  0.00    +0.015 A 
ATOM     22  C   UNL     1       2.691   3.927   4.358  0.00  0.00    +0.018 A 
ATOM     23  C   UNL     1       2.123   2.926   3.591  0.00  0.00    +0.015 A 
ATOM     24  C   UNL     1       2.925   1.968   3.000  0.00  0.00    +0.008 A 
ATOM     25 BR   UNL     1       1.593   5.237   5.167  0.00  0.00    -0.050 Br
ENDBRANCH  11  19
BRANCH   1  29
ATOM     26  C   UNL     1       1.843   4.063  -0.171  0.00  0.00    +0.162 A 
ATOM     27  C   UNL     1       3.106   4.585   0.062  0.00  0.00    +0.050 A 
ATOM     28  C   UNL     1       4.202   3.744   0.112  0.00  0.00    +0.010 A 
ATOM     29  C   UNL     1       4.043   2.383  -0.069  0.00  0.00    -0.015 A 
ATOM     30  C   UNL     1       2.785   1.856  -0.296  0.00  0.00    +0.055 A 
ATOM     31  C   UNL     1       1.683   2.693  -0.353  0.00  0.00    +0.162 A 
BRANCH  26  33
ATOM     32  C   UNL     1       1.004   6.284  -0.024  0.00  0.00    +0.277 C 
ATOM     33  O   UNL     1       0.764   4.889  -0.220  0.00  0.00    -0.491 OA
ENDBRANCH  26  33
BRANCH  31  34
ATOM     34  O   UNL     1       0.446   2.177  -0.581  0.00  0.00    -0.491 OA
ATOM     35  C   UNL     1       0.356   0.762  -0.759  0.00  0.00    +0.277 C 
ENDBRANCH  31  34
ENDBRANCH   1  29
TORSDOF 4
