REMARK  Name = ZINC39592228
REMARK  9 active torsions:
REMARK  status: ('A' for Active; 'I' for Inactive)
REMARK    1  A    between atoms: C_1  and  C_2
REMARK    2  A    between atoms: C_5  and  C_8
REMARK    3  A    between atoms: C_10  and  C_14
REMARK    4  A    between atoms: C_18  and  S_22
REMARK    5  A    between atoms: N_20  and  N_21
REMARK    6  A    between atoms: S_22  and  C_23
REMARK    7  A    between atoms: C_23  and  C_24
REMARK    8  A    between atoms: N_26  and  C_27
REMARK    9  A    between atoms: C_32  and  C_33
REMARK                            x       y       z     vdW  Elec       q    Type
REMARK                         _______ _______ _______ _____ _____    ______ ____
ROOT
ATOM      1  C   UNL     1       1.395  -7.151   0.967  0.00  0.00    +0.244 C 
ATOM      2  N   UNL     1       2.587  -6.497   0.413  0.00  0.00    -0.167 NA
ATOM      3  N   UNL     1       3.376  -7.325  -0.053  0.00  0.00    -0.159 NA
ATOM      4  C   UNL     1       2.861  -8.693   0.100  0.00  0.00    +0.272 C 
ATOM      5  N   UNL     1       1.415  -8.524   0.401  0.00  0.00    -0.183 NA
ENDROOT
BRANCH   1   8
ATOM      6  C   UNL     1       0.106  -4.226  -0.034  0.00  0.00    +0.091 C 
ATOM      7  C   UNL     1       0.119  -4.995   1.071  0.00  0.00    +0.035 C 
ATOM      8  C   UNL     1       0.129  -6.413   0.527  0.00  0.00    +0.195 C 
ATOM      9  N   UNL     1       0.120  -6.213  -0.931  0.00  0.00    -0.176 NA
ATOM     10  N   UNL     1       0.102  -5.000  -1.151  0.00  0.00    -0.154 NA
BRANCH   6  15
ATOM     11  C   UNL     1       0.054   1.533  -0.028  0.00  0.00    +0.044 C 
ATOM     12  C   UNL     1       0.068   0.026  -0.029  0.00  0.00    -0.050 A 
ATOM     13  C   UNL     1       0.062  -0.661  -1.230  0.00  0.00    +0.004 A 
ATOM     14  C   UNL     1       0.075  -2.042  -1.237  0.00  0.00    +0.010 A 
ATOM     15  C   UNL     1       0.093  -2.742  -0.033  0.00  0.00    +0.002 A 
ATOM     16  C   UNL     1       0.099  -2.044   1.173  0.00  0.00    +0.010 A 
ATOM     17  C   UNL     1       0.091  -0.664   1.169  0.00  0.00    +0.004 A 
ENDBRANCH   6  15
ENDBRANCH   1   8
BRANCH   5  18
ATOM     18  N   UNL     1       0.967  -9.499   1.382  0.00  0.00    -0.263 NA
ATOM     19  H   UNL     1       0.982 -10.432   0.997  0.00  0.00    +0.137 HD
ATOM     20  H   UNL     1       1.522  -9.447   2.223  0.00  0.00    +0.137 HD
ENDBRANCH   5  18
BRANCH   4  21
ATOM     21  S   UNL     1       3.086  -9.628  -1.438  0.00  0.00    -0.107 S 
BRANCH  21  22
ATOM     22  C   UNL     1       2.175  -8.664  -2.675  0.00  0.00    +0.168 C 
BRANCH  22  23
ATOM     23  C   UNL     1       2.283  -9.340  -4.017  0.00  0.00    +0.227 C 
ATOM     24  O   UNL     1       2.912 -10.371  -4.128  0.00  0.00    -0.275 OA
ATOM     25  N   UNL     1       1.680  -8.799  -5.094  0.00  0.00    -0.284 N 
ATOM     26  H   UNL     1       1.111  -8.020  -4.992  0.00  0.00    +0.155 HD
BRANCH  25  27
ATOM     27  C   UNL     1       1.874  -9.361  -6.361  0.00  0.00    +0.045 A 
ATOM     28  C   UNL     1       3.020 -10.099  -6.627  0.00  0.00    +0.025 A 
ATOM     29  C   UNL     1       3.209 -10.653  -7.877  0.00  0.00    +0.022 A 
ATOM     30  C   UNL     1       2.258 -10.473  -8.866  0.00  0.00    +0.042 A 
ATOM     31  C   UNL     1       1.115  -9.739  -8.604  0.00  0.00    +0.034 A 
ATOM     32  C   UNL     1       0.918  -9.188  -7.353  0.00  0.00    +0.077 A 
ATOM     33 CL   UNL     1       2.499 -11.170 -10.438  0.00  0.00    -0.084 Cl
BRANCH  32  34
ATOM     34  C   UNL     1      -0.330  -8.393  -7.067  0.00  0.00    +0.419 C 
ATOM     35  F   UNL     1      -1.134  -8.359  -8.211  0.00  0.00    -0.166 F 
ATOM     36  F   UNL     1      -1.036  -8.995  -6.019  0.00  0.00    -0.166 F 
ATOM     37  F   UNL     1       0.021  -7.088  -6.704  0.00  0.00    -0.166 F 
ENDBRANCH  32  34
ENDBRANCH  25  27
ENDBRANCH  22  23
ENDBRANCH  21  22
ENDBRANCH   4  21
TORSDOF 8
