REMARK  Name = ZINC36446944
REMARK  9 active torsions:
REMARK  status: ('A' for Active; 'I' for Inactive)
REMARK    1  A    between atoms: C_1  and  C_2
REMARK    2  A    between atoms: C_5  and  C_36
REMARK    3  A    between atoms: N_8  and  S_10
REMARK    4  A    between atoms: S_10  and  C_13
REMARK    5  A    between atoms: C_17  and  C_19
REMARK    6  A    between atoms: N_21  and  C_22
REMARK    7  A    between atoms: C_22  and  C_23
REMARK    8  A    between atoms: C_23  and  C_25
REMARK    9  A    between atoms: C_23  and  N_30
REMARK                            x       y       z     vdW  Elec       q    Type
REMARK                         _______ _______ _______ _____ _____    ______ ____
ROOT
ATOM      1  C   UNL     1       1.484  -3.283   3.626  0.00  0.00    +0.106 A 
ATOM      2  C   UNL     1       2.387  -4.300   3.369  0.00  0.00    +0.030 A 
ATOM      3  C   UNL     1       3.557  -4.397   4.100  0.00  0.00    +0.022 A 
ATOM      4  C   UNL     1       3.830  -3.478   5.095  0.00  0.00    +0.053 A 
ATOM      5  C   UNL     1       2.922  -2.449   5.359  0.00  0.00    +0.057 A 
ATOM      6  C   UNL     1       1.747  -2.355   4.612  0.00  0.00    +0.043 A 
ATOM      7 CL   UNL     1       5.298  -3.600   6.013  0.00  0.00    -0.083 Cl
ENDROOT
BRANCH   5   8
ATOM      8  C   UNL     1       3.208  -1.462   6.421  0.00  0.00    +0.246 C 
ATOM      9  O   UNL     1       4.234  -1.544   7.067  0.00  0.00    -0.270 OA
ATOM     10  N   UNL     1       2.330  -0.471   6.674  0.00  0.00    -0.312 N 
ATOM     11  H   UNL     1       1.510  -0.406   6.158  0.00  0.00    +0.149 HD
BRANCH  10  12
ATOM     12  C   UNL     1       2.612   0.507   7.726  0.00  0.00    +0.097 C 
BRANCH  12  13
ATOM     13  C   UNL     1       1.517   1.575   7.738  0.00  0.00    +0.016 C 
BRANCH  13  14
ATOM     14  N   UNL     1       1.868   2.627   8.701  0.00  0.00    +0.387 N 
ATOM     15  C   UNL     1       3.119   3.309   8.282  0.00  0.00    -0.078 C 
ATOM     16  C   UNL     1       3.042   4.673   9.012  0.00  0.00    -0.020 C 
ATOM     17  C   UNL     1       1.538   5.021   8.937  0.00  0.00    -0.020 C 
ATOM     18  C   UNL     1       0.824   3.674   8.716  0.00  0.00    -0.078 C 
ATOM     19  H   UNL     1       1.978   2.232   9.623  0.00  0.00    -0.081 HD
ENDBRANCH  13  14
BRANCH  13  20
ATOM     20  C   UNL     1       0.207   0.946   8.136  0.00  0.00    +0.093 A 
ATOM     21  C   UNL     1      -0.775   0.573   7.296  0.00  0.00    +0.043 A 
ATOM     22  C   UNL     1      -1.812   0.034   8.091  0.00  0.00    +0.041 A 
ATOM     23  C   UNL     1      -1.403   0.110   9.370  0.00  0.00    +0.195 A 
ATOM     24  O   UNL     1      -0.177   0.658   9.391  0.00  0.00    -0.469 OA
ENDBRANCH  13  20
ENDBRANCH  12  13
ENDBRANCH  10  12
ENDBRANCH   5   8
BRANCH   1  25
ATOM     25  S   UNL     1      -0.003  -3.171   2.687  0.00  0.00    +0.061 S 
ATOM     26  O   UNL     1      -0.933  -2.450   3.485  0.00  0.00    -0.153 OA
ATOM     27  O   UNL     1      -0.272  -4.476   2.195  0.00  0.00    -0.153 OA
BRANCH  25  33
ATOM     28  C   UNL     1      -0.869   1.185   0.230  0.00  0.00    +0.009 C 
ATOM     29  C   UNL     1      -0.770  -0.341   0.265  0.00  0.00    +0.002 C 
ATOM     30  C   UNL     1      -0.176  -0.846  -1.051  0.00  0.00    +0.009 C 
ATOM     31  C   UNL     1      -0.107  -2.374  -1.030  0.00  0.00    +0.002 C 
ATOM     32  C   UNL     1       0.804  -2.825   0.117  0.00  0.00    +0.112 C 
ATOM     33  N   UNL     1       0.322  -2.224   1.368  0.00  0.00    -0.176 NA
ATOM     34  C   UNL     1       0.133  -0.768   1.427  0.00  0.00    +0.112 C 
ATOM     35  C   UNL     1       0.456  -2.880  -2.359  0.00  0.00    +0.009 C 
ENDBRANCH  25  33
ENDBRANCH   1  25
TORSDOF 7
