REMARK  Name = ZINC65168426
REMARK  8 active torsions:
REMARK  status: ('A' for Active; 'I' for Inactive)
REMARK    1  A    between atoms: C_1  and  C_2
REMARK    2  A    between atoms: N_5  and  C_8
REMARK    3  A    between atoms: C_8  and  C_9
REMARK    4  A    between atoms: C_9  and  C_10
REMARK    5  A    between atoms: C_9  and  O_26
REMARK    6  A    between atoms: C_10  and  S_11
REMARK    7  A    between atoms: S_11  and  C_12
REMARK    8  A    between atoms: N_24  and  C_25
REMARK                            x       y       z     vdW  Elec       q    Type
REMARK                         _______ _______ _______ _____ _____    ______ ____
ROOT
ATOM      1  S   UNL     1       4.187  -6.310   2.209  0.00  0.00    -0.085 S 
ENDROOT
BRANCH   1   2
ATOM      2  C   UNL     1       4.485  -8.016   1.886  0.00  0.00    +0.172 A 
ATOM      3  N   UNL     1       3.892  -8.596   0.861  0.00  0.00    -0.216 NA
ATOM      4  C   UNL     1       4.100  -9.881   0.596  0.00  0.00    +0.117 A 
ATOM      5  C   UNL     1       4.947 -10.676   1.380  0.00  0.00    +0.076 A 
ATOM      6  C   UNL     1       5.080 -12.083   0.964  0.00  0.00    -0.023 A 
ATOM      7  C   UNL     1       4.383 -12.464  -0.119  0.00  0.00    -0.004 A 
ATOM      8  S   UNL     1       3.517 -11.004  -0.647  0.00  0.00    -0.073 S 
ATOM      9  C   UNL     1       4.600 -13.916  -0.452  0.00  0.00    +0.043 C 
ATOM     10  C   UNL     1       5.877 -14.306   0.326  0.00  0.00    +0.010 C 
ATOM     11  C   UNL     1       5.856 -13.294   1.488  0.00  0.00    +0.037 C 
ATOM     12  C   UNL     1       5.578 -10.023   2.485  0.00  0.00    +0.263 A 
ATOM     13  O   UNL     1       6.331 -10.637   3.220  0.00  0.00    -0.267 OA
ATOM     14  N   UNL     1       5.330  -8.717   2.697  0.00  0.00    -0.290 N 
ATOM     15  C   UNL     1       5.975  -8.036   3.822  0.00  0.00    +0.154 C 
ENDBRANCH   1   2
BRANCH   1  16
ATOM     16  C   UNL     1       3.028  -5.812   0.905  0.00  0.00    +0.106 C 
BRANCH  16  17
ATOM     17  C   UNL     1       2.681  -4.331   1.070  0.00  0.00    +0.108 C 
BRANCH  17  18
ATOM     18  O   UNL     1       2.077  -4.123   2.349  0.00  0.00    -0.393 OA
ATOM     19  H   UNL     1       1.262  -4.624   2.485  0.00  0.00    +0.210 HD
ENDBRANCH  17  18
BRANCH  17  20
ATOM     20  C   UNL     1       1.704  -3.911  -0.029  0.00  0.00    -0.046 C 
BRANCH  20  25
ATOM     21  C   UNL     1       0.801   1.694  -0.579  0.00  0.00    +0.007 C 
ATOM     22  C   UNL     1       1.167   0.235  -0.859  0.00  0.00    -0.018 C 
ATOM     23  C   UNL     1       2.284  -0.205   0.093  0.00  0.00    -0.016 C 
ATOM     24  C   UNL     1       2.590  -1.686  -0.138  0.00  0.00    -0.078 C 
ATOM     25  N   UNL     1       1.385  -2.484   0.118  0.00  0.00    +0.381 N 
ATOM     26  C   UNL     1       0.333  -2.118  -0.839  0.00  0.00    -0.078 C 
ATOM     27  C   UNL     1      -0.060  -0.654  -0.635  0.00  0.00    -0.016 C 
ATOM     28  H   UNL     1       1.060  -2.309   1.057  0.00  0.00    -0.082 HD
ENDBRANCH  20  25
ENDBRANCH  17  20
ENDBRANCH  16  17
ENDBRANCH   1  16
TORSDOF 6
