REMARK  Name = ZINC01009488
REMARK  13 active torsions:
REMARK  status: ('A' for Active; 'I' for Inactive)
REMARK    1  A    between atoms: C_1  and  C_2
REMARK    2  A    between atoms: C_2  and  O_3
REMARK    3  A    between atoms: O_3  and  C_4
REMARK    4  A    between atoms: C_4  and  C_6
REMARK    5  A    between atoms: C_7  and  C_36
REMARK    6  A    between atoms: C_14  and  C_15
REMARK    7  A    between atoms: C_18  and  O_23
REMARK    8  A    between atoms: C_19  and  O_21
REMARK    9  A    between atoms: O_21  and  C_22
REMARK   10  A    between atoms: C_25  and  C_27
REMARK   11  A    between atoms: C_30  and  N_33
REMARK   12  A    between atoms: N_33  and  C_34
REMARK   13  A    between atoms: N_33  and  C_35
REMARK                            x       y       z     vdW  Elec       q    Type
REMARK                         _______ _______ _______ _____ _____    ______ ____
ROOT
ATOM      1  C   UNL     1       4.652  -4.165  -0.586  0.00  0.00    +0.085 C 
ATOM      2  C   UNL     1       5.480  -3.079  -0.543  0.00  0.00    +0.053 C 
ATOM      3  N   UNL     1       4.982  -1.855  -0.417  0.00  0.00    -0.228 NA
ATOM      4  C   UNL     1       3.707  -1.573  -0.325  0.00  0.00    +0.178 A 
ATOM      5  N   UNL     1       2.706  -2.517  -0.347  0.00  0.00    -0.275 N 
ATOM      6  C   UNL     1       1.435  -2.109  -0.239  0.00  0.00    +0.268 A 
ATOM      7  O   UNL     1       0.517  -2.908  -0.247  0.00  0.00    -0.266 OA
ATOM      8  C   UNL     1       1.182  -0.667  -0.115  0.00  0.00    +0.081 A 
ATOM      9  C   UNL     1       0.002  -0.004   0.002  0.00  0.00    +0.028 C 
ATOM     10  S   UNL     1       2.847  -0.022  -0.153  0.00  0.00    -0.046 S 
ATOM     11  C   UNL     1       3.163  -3.929  -0.486  0.00  0.00    +0.162 C 
ATOM     12  C   UNL     1       6.971  -3.272  -0.639  0.00  0.00    +0.066 C 
ENDROOT
BRANCH   9  13
ATOM     13  C   UNL     1      -0.006   1.436   0.287  0.00  0.00    -0.020 A 
ATOM     14  C   UNL     1      -1.167   2.189   0.069  0.00  0.00    +0.012 A 
ATOM     15  C   UNL     1      -1.171   3.540   0.337  0.00  0.00    +0.050 A 
ATOM     16  C   UNL     1      -0.027   4.159   0.823  0.00  0.00    +0.158 A 
ATOM     17  C   UNL     1       1.133   3.417   1.042  0.00  0.00    +0.162 A 
ATOM     18  C   UNL     1       1.146   2.061   0.782  0.00  0.00    +0.057 A 
BRANCH  17  19
ATOM     19  O   UNL     1       2.251   4.028   1.518  0.00  0.00    -0.491 OA
ATOM     20  C   UNL     1       3.403   3.207   1.720  0.00  0.00    +0.277 C 
ENDBRANCH  17  19
BRANCH  16  21
ATOM     21  O   UNL     1      -0.038   5.492   1.086  0.00  0.00    -0.503 OA
ATOM     22  H   UNL     1      -0.303   5.712   1.989  0.00  0.00    +0.292 HD
ENDBRANCH  16  21
ENDBRANCH   9  13
BRANCH  11  23
ATOM     23  C   UNL     1       2.649  -4.701   0.701  0.00  0.00    -0.020 A 
ATOM     24  C   UNL     1       2.807  -4.190   1.977  0.00  0.00    +0.008 A 
ATOM     25  C   UNL     1       2.332  -4.893   3.067  0.00  0.00    +0.023 A 
ATOM     26  C   UNL     1       1.706  -6.119   2.882  0.00  0.00    +0.029 A 
ATOM     27  C   UNL     1       1.555  -6.632   1.600  0.00  0.00    +0.023 A 
ATOM     28  C   UNL     1       2.027  -5.922   0.514  0.00  0.00    +0.008 A 
BRANCH  26  29
ATOM     29  N   UNL     1       1.230  -6.835   3.983  0.00  0.00    -0.336 N 
ATOM     30  C   UNL     1       0.570  -8.128   3.787  0.00  0.00    +0.129 C 
ATOM     31  C   UNL     1       1.391  -6.292   5.335  0.00  0.00    +0.129 C 
ENDBRANCH  26  29
ENDBRANCH  11  23
BRANCH   1  32
ATOM     32  C   UNL     1       5.170  -5.464  -0.719  0.00  0.00    +0.339 C 
ATOM     33  O   UNL     1       6.374  -5.634  -0.797  0.00  0.00    -0.245 OA
BRANCH  32  34
ATOM     34  O   UNL     1       4.334  -6.524  -0.759  0.00  0.00    -0.462 OA
BRANCH  34  36
ATOM     35  C   UNL     1       3.834  -8.882  -0.923  0.00  0.00    +0.048 C 
ATOM     36  C   UNL     1       4.930  -7.815  -0.896  0.00  0.00    +0.229 C 
ENDBRANCH  34  36
ENDBRANCH  32  34
ENDBRANCH   1  32
TORSDOF 8
