REMARK  Name = ZINC40548214
REMARK  6 active torsions:
REMARK  status: ('A' for Active; 'I' for Inactive)
REMARK    1  A    between atoms: C_1  and  C_2
REMARK    2  A    between atoms: C_2  and  C_3
REMARK    3  A    between atoms: C_6  and  C_9
REMARK    4  A    between atoms: C_12  and  C_28
REMARK    5  A    between atoms: N_19  and  C_20
REMARK    6  A    between atoms: C_33  and  O_34
REMARK                            x       y       z     vdW  Elec       q    Type
REMARK                         _______ _______ _______ _____ _____    ______ ____
ROOT
ATOM      1  C   UNL     1       2.393  -1.635   4.548  0.00  0.00    +0.142 C 
ATOM      2  C   UNL     1       2.933  -0.651   5.549  0.00  0.00    +0.035 A 
ATOM      3  C   UNL     1       3.764   0.448   5.792  0.00  0.00    +0.102 A 
ATOM      4  N   UNL     1       3.669   0.738   7.075  0.00  0.00    -0.173 NA
ATOM      5  N   UNL     1       2.861  -0.069   7.666  0.00  0.00    -0.272 N 
ATOM      6  H   UNL     1       2.639  -0.044   8.610  0.00  0.00    +0.189 HD
ATOM      7  C   UNL     1       2.362  -0.969   6.767  0.00  0.00    +0.126 A 
ATOM      8  C   UNL     1       1.474  -2.121   6.579  0.00  0.00    +0.266 C 
ATOM      9  O   UNL     1       0.822  -2.646   7.461  0.00  0.00    -0.268 OA
ATOM     10  N   UNL     1       1.486  -2.518   5.292  0.00  0.00    -0.280 N 
ENDROOT
BRANCH  10  11
ATOM     11  C   UNL     1       0.723  -3.636   4.731  0.00  0.00    +0.100 C 
ATOM     12  C   UNL     1       1.126  -4.938   5.444  0.00  0.00    +0.047 C 
ATOM     13  C   UNL     1       0.097  -6.038   5.060  0.00  0.00    +0.168 C 
ATOM     14  S   UNL     1      -1.471  -5.072   5.122  0.00  0.00    -0.029 S 
ATOM     15  O   UNL     1      -2.037  -5.193   6.420  0.00  0.00    -0.174 OA
ATOM     16  O   UNL     1      -2.257  -5.391   3.983  0.00  0.00    -0.174 OA
ATOM     17  C   UNL     1      -0.790  -3.375   4.925  0.00  0.00    +0.188 C 
ENDBRANCH  10  11
BRANCH   3  18
ATOM     18  C   UNL     1       4.598   1.158   4.791  0.00  0.00    +0.045 A 
ATOM     19  C   UNL     1       4.698   0.668   3.491  0.00  0.00    +0.033 A 
ATOM     20  C   UNL     1       5.476   1.332   2.562  0.00  0.00    +0.042 A 
ATOM     21  C   UNL     1       6.157   2.484   2.920  0.00  0.00    +0.023 A 
ATOM     22  C   UNL     1       6.064   2.977   4.207  0.00  0.00    +0.047 A 
ATOM     23  C   UNL     1       5.282   2.324   5.147  0.00  0.00    +0.126 A 
ATOM     24 CL   UNL     1       5.600   0.721   0.943  0.00  0.00    -0.084 Cl
BRANCH  23  25
ATOM     25  O   UNL     1       5.185   2.811   6.411  0.00  0.00    -0.506 OA
ATOM     26  H   UNL     1       5.857   2.469   7.017  0.00  0.00    +0.292 HD
ENDBRANCH  23  25
ENDBRANCH   3  18
BRANCH   1  30
ATOM     27  C   UNL     1       0.252   0.423   1.477  0.00  0.00    -0.048 A 
ATOM     28  C   UNL     1      -0.253   0.382   2.763  0.00  0.00    +0.004 A 
ATOM     29  C   UNL     1       0.440  -0.284   3.757  0.00  0.00    +0.006 A 
ATOM     30  C   UNL     1       1.637  -0.910   3.464  0.00  0.00    -0.022 A 
ATOM     31  C   UNL     1       2.141  -0.870   2.178  0.00  0.00    +0.006 A 
ATOM     32  C   UNL     1       1.446  -0.208   1.183  0.00  0.00    +0.004 A 
BRANCH  27  34
ATOM     33  C   UNL     1      -1.476   0.182  -0.286  0.00  0.00    +0.009 C 
ATOM     34  C   UNL     1      -0.503   1.149   0.393  0.00  0.00    +0.032 C 
ENDBRANCH  27  34
ENDBRANCH   1  30
TORSDOF 5
