REMARK  Name = ZINC06149287
REMARK  9 active torsions:
REMARK  status: ('A' for Active; 'I' for Inactive)
REMARK    1  A    between atoms: C_1  and  C_2
REMARK    2  A    between atoms: C_2  and  C_3
REMARK    3  A    between atoms: C_3  and  C_4
REMARK    4  A    between atoms: C_3  and  C_5
REMARK    5  A    between atoms: C_3  and  N_6
REMARK    6  A    between atoms: C_7  and  C_11
REMARK    7  A    between atoms: C_11  and  C_13
REMARK    8  A    between atoms: C_11  and  N_70
REMARK    9  A    between atoms: C_18  and  C_25
REMARK                            x       y       z     vdW  Elec       q    Type
REMARK                         _______ _______ _______ _____ _____    ______ ____
ROOT
ATOM      1  C   UNL     1       4.734   1.032   0.093  0.00  0.00    +0.039 C 
ENDROOT
BRANCH   1  16
ATOM      2  C   UNL     1       4.313   1.136  -2.289  0.00  0.00    -0.058 C 
ATOM      3  C   UNL     1       4.920   1.543  -3.634  0.00  0.00    +0.088 C 
ATOM      4  N   UNL     1       6.128   0.745  -3.884  0.00  0.00    -0.313 N 
ATOM      5  C   UNL     1       7.121   0.949  -2.819  0.00  0.00    +0.088 C 
ATOM      6  C   UNL     1       6.513   0.542  -1.475  0.00  0.00    -0.058 C 
ATOM      7  C   UNL     1       6.665   1.034  -5.122  0.00  0.00    +0.162 A 
ATOM      8  N   UNL     1       6.093   0.973  -6.303  0.00  0.00    -0.225 NA
ATOM      9  C   UNL     1       6.745   1.289  -7.443  0.00  0.00    +0.080 A 
ATOM     10  C   UNL     1       6.250   1.266  -8.767  0.00  0.00    +0.029 A 
ATOM     11  C   UNL     1       7.051   1.622  -9.820  0.00  0.00    +0.002 A 
ATOM     12  C   UNL     1       8.368   2.015  -9.629  0.00  0.00    +0.001 A 
ATOM     13  C   UNL     1       8.885   2.048  -8.347  0.00  0.00    +0.017 A 
ATOM     14  C   UNL     1       8.090   1.694  -7.286  0.00  0.00    +0.041 A 
ATOM     15  S   UNL     1       8.312   1.597  -5.526  0.00  0.00    -0.052 S 
ATOM     16  N   UNL     1       5.312   1.367  -1.225  0.00  0.00    +0.391 N 
ATOM     17  H   UNL     1       5.581   2.358  -1.230  0.00  0.00    -0.080 HD
ENDBRANCH   1  16
BRANCH   1  18
ATOM     18  C   UNL     1       3.561   1.940   0.357  0.00  0.00    +0.011 A 
ATOM     19  C   UNL     1       2.352   1.409   0.670  0.00  0.00    +0.017 A 
ATOM     20  C   UNL     1       1.232   2.318   0.919  0.00  0.00    -0.001 A 
ATOM     21  C   UNL     1      -0.038   1.830   1.244  0.00  0.00    +0.010 A 
ATOM     22  C   UNL     1      -1.063   2.704   1.465  0.00  0.00    +0.004 A 
ATOM     23  C   UNL     1      -0.854   4.075   1.383  0.00  0.00    -0.048 A 
ATOM     24  C   UNL     1       0.389   4.578   1.064  0.00  0.00    +0.029 A 
ATOM     25  C   UNL     1       1.447   3.706   0.829  0.00  0.00    +0.049 A 
ATOM     26  N   UNL     1       2.701   4.183   0.508  0.00  0.00    -0.322 N 
ATOM     27  H   UNL     1       2.852   5.169   0.444  0.00  0.00    +0.169 HD
ATOM     28  C   UNL     1       3.723   3.340   0.280  0.00  0.00    +0.251 A 
ATOM     29  O   UNL     1       4.818   3.796  -0.002  0.00  0.00    -0.268 OA
ATOM     30  C   UNL     1      -1.998   5.021   1.638  0.00  0.00    +0.044 C 
ENDBRANCH   1  18
BRANCH   1  32
ATOM     31  N   UNL     1       6.132   0.373   2.122  0.00  0.00    -0.225 N 
ATOM     32  C   UNL     1       5.781   1.243   1.156  0.00  0.00    +0.143 A 
ATOM     33  N   UNL     1       6.531   2.306   1.316  0.00  0.00    -0.115 NA
ATOM     34  N   UNL     1       7.297   2.103   2.332  0.00  0.00    -0.023 NA
ATOM     35  N   UNL     1       7.061   0.935   2.820  0.00  0.00    -0.043 NA
BRANCH  31  36
ATOM     36  C   UNL     1       5.566  -0.960   2.341  0.00  0.00    +0.061 C 
ATOM     37  C   UNL     1       4.054  -0.846   2.540  0.00  0.00    +0.036 C 
ATOM     38  C   UNL     1       5.855  -1.842   1.124  0.00  0.00    +0.036 C 
BRANCH  36  40
ATOM     39  C   UNL     1       5.608  -2.978   3.814  0.00  0.00    +0.006 C 
ATOM     40  C   UNL     1       6.199  -1.585   3.586  0.00  0.00    +0.026 C 
ENDBRANCH  36  40
ENDBRANCH  31  36
ENDBRANCH   1  32
TORSDOF 5
