REMARK  Name = ZINC62770116
REMARK  5 active torsions:
REMARK  status: ('A' for Active; 'I' for Inactive)
REMARK    1  A    between atoms: C_1  and  C_2
REMARK    2  A    between atoms: C_2  and  C_4
REMARK    3  A    between atoms: C_4  and  C_5
REMARK    4  A    between atoms: C_8  and  C_10
REMARK    5  A    between atoms: C_13  and  N_17
REMARK                            x       y       z     vdW  Elec       q    Type
REMARK                         _______ _______ _______ _____ _____    ______ ____
ROOT
ATOM      1  C   UNL     1      -0.368  -5.423  -1.644  0.00  0.00    +0.053 A 
ATOM      2  C   UNL     1       0.738  -6.255  -1.469  0.00  0.00    +0.016 A 
ATOM      3  C   UNL     1       0.943  -7.317  -2.326  0.00  0.00    +0.033 A 
ATOM      4  C   UNL     1       0.055  -7.558  -3.359  0.00  0.00    +0.129 A 
ATOM      5  C   UNL     1      -1.044  -6.739  -3.541  0.00  0.00    +0.071 A 
ATOM      6  C   UNL     1      -1.266  -5.675  -2.686  0.00  0.00    +0.136 A 
ATOM      7  F   UNL     1      -2.342  -4.878  -2.861  0.00  0.00    -0.205 F 
ENDROOT
BRANCH   1  11
ATOM      8  C   UNL     1      -0.997  -2.253  -0.001  0.00  0.00    +0.113 A 
ATOM      9  C   UNL     1      -0.838  -3.030   1.088  0.00  0.00    +0.046 A 
ATOM     10  C   UNL     1      -0.578  -4.337   0.629  0.00  0.00    +0.050 A 
ATOM     11  C   UNL     1      -0.594  -4.284  -0.730  0.00  0.00    +0.138 A 
ATOM     12  O   UNL     1      -0.855  -3.015  -1.097  0.00  0.00    -0.459 OA
BRANCH   8  13
ATOM     13  C   UNL     1      -1.293  -0.775   0.010  0.00  0.00    +0.148 C 
BRANCH  13  15
ATOM     14  C   UNL     1      -0.018   1.503   0.010  0.00  0.00    +0.086 C 
ATOM     15  C   UNL     1       0.002  -0.004   0.002  0.00  0.00    +0.138 C 
ATOM     16  O   UNL     1       1.056  -0.594  -0.011  0.00  0.00    -0.297 OA
ENDBRANCH  13  15
ENDBRANCH   8  13
ENDBRANCH   1  11
BRANCH   4  17
ATOM     17  N   UNL     1       0.282  -8.700  -4.274  0.00  0.00    +0.057 N 
ATOM     18  O   UNL     1       1.242  -9.418  -4.118  0.00  0.00    -0.126 OA
ATOM     19  O   UNL     1      -0.492  -8.913  -5.178  0.00  0.00    -0.126 OA
ENDBRANCH   4  17
TORSDOF 4
