REMARK  Name = ZINC39723523
REMARK  9 active torsions:
REMARK  status: ('A' for Active; 'I' for Inactive)
REMARK    1  A    between atoms: C_1  and  C_2
REMARK    2  A    between atoms: C_2  and  C_3
REMARK    3  A    between atoms: C_6  and  N_9
REMARK    4  A    between atoms: C_10  and  C_12
REMARK    5  A    between atoms: C_12  and  S_13
REMARK    6  A    between atoms: S_13  and  C_14
REMARK    7  A    between atoms: C_20  and  C_22
REMARK    8  A    between atoms: C_23  and  C_34
REMARK    9  A    between atoms: C_26  and  C_27
REMARK                            x       y       z     vdW  Elec       q    Type
REMARK                         _______ _______ _______ _____ _____    ______ ____
ROOT
ATOM      1  C   UNL     1      -9.752  -3.102  -2.608  0.00  0.00    +0.160 A 
ATOM      2  N   UNL     1     -10.433  -3.344  -1.504  0.00  0.00    -0.133 NA
ATOM      3  N   UNL     1     -11.755  -3.719  -1.584  0.00  0.00    -0.125 NA
ATOM      4  C   UNL     1     -12.334  -3.833  -2.763  0.00  0.00    +0.189 A 
ATOM      5  S   UNL     1     -10.993  -3.395  -3.858  0.00  0.00    -0.024 S 
ATOM      6  N   UNL     1     -13.643  -4.194  -3.071  0.00  0.00    -0.259 N 
ATOM      7  C   UNL     1     -14.512  -4.485  -2.083  0.00  0.00    +0.255 C 
ATOM      8  O   UNL     1     -14.153  -4.431  -0.922  0.00  0.00    -0.270 OA
ATOM      9  H   UNL     1     -13.929  -4.237  -3.997  0.00  0.00    +0.157 HD
ENDROOT
BRANCH   7  10
ATOM     10  C   UNL     1     -15.896  -4.866  -2.408  0.00  0.00    +0.106 A 
ATOM     11  C   UNL     1     -16.362  -6.130  -2.627  0.00  0.00    +0.147 A 
ATOM     12  O   UNL     1     -17.669  -6.054  -2.893  0.00  0.00    -0.359 OA
ATOM     13  N   UNL     1     -18.081  -4.703  -2.848  0.00  0.00    -0.077 NA
ATOM     14  C   UNL     1     -17.045  -3.960  -2.554  0.00  0.00    +0.127 A 
ATOM     15  C   UNL     1     -15.542  -7.394  -2.579  0.00  0.00    +0.090 C 
BRANCH  14  16
ATOM     16  C   UNL     1     -17.031  -2.485  -2.401  0.00  0.00    +0.023 A 
ATOM     17  C   UNL     1     -15.843  -1.824  -2.093  0.00  0.00    +0.011 A 
ATOM     18  C   UNL     1     -15.836  -0.452  -1.952  0.00  0.00    +0.001 A 
ATOM     19  C   UNL     1     -17.005   0.270  -2.116  0.00  0.00    +0.001 A 
ATOM     20  C   UNL     1     -18.187  -0.379  -2.421  0.00  0.00    +0.020 A 
ATOM     21  C   UNL     1     -18.206  -1.752  -2.570  0.00  0.00    +0.050 A 
ATOM     22 CL   UNL     1     -19.689  -2.565  -2.960  0.00  0.00    -0.083 Cl
ENDBRANCH  14  16
ENDBRANCH   7  10
BRANCH   1  23
ATOM     23  S   UNL     1      -8.069  -2.613  -2.797  0.00  0.00    -0.088 S 
BRANCH  23  24
ATOM     24  C   UNL     1      -7.446  -2.518  -1.097  0.00  0.00    +0.172 C 
BRANCH  24  26
ATOM     25  N   UNL     1      -5.320  -1.968   0.042  0.00  0.00    -0.285 N 
ATOM     26  C   UNL     1      -5.997  -2.104  -1.115  0.00  0.00    +0.227 C 
ATOM     27  O   UNL     1      -5.440  -1.894  -2.172  0.00  0.00    -0.275 OA
ATOM     28  H   UNL     1      -5.742  -2.209   0.882  0.00  0.00    +0.155 HD
BRANCH  25  32
ATOM     29  C   UNL     1      -1.419  -0.507   0.015  0.00  0.00    -0.048 A 
ATOM     30  C   UNL     1      -2.333  -0.051  -0.916  0.00  0.00    +0.005 A 
ATOM     31  C   UNL     1      -3.627  -0.533  -0.910  0.00  0.00    +0.023 A 
ATOM     32  C   UNL     1      -4.010  -1.478   0.033  0.00  0.00    +0.033 A 
ATOM     33  C   UNL     1      -3.089  -1.935   0.967  0.00  0.00    +0.023 A 
ATOM     34  C   UNL     1      -1.795  -1.452   0.952  0.00  0.00    +0.005 A 
BRANCH  29  36
ATOM     35  C   UNL     1       0.858  -0.854  -0.904  0.00  0.00    +0.009 C 
ATOM     36  C   UNL     1      -0.007   0.021   0.005  0.00  0.00    +0.032 C 
ENDBRANCH  29  36
ENDBRANCH  25  32
ENDBRANCH  24  26
ENDBRANCH  23  24
ENDBRANCH   1  23
TORSDOF 7
