REMARK  Name = ZINC33782193
REMARK  7 active torsions:
REMARK  status: ('A' for Active; 'I' for Inactive)
REMARK    1  A    between atoms: C_5  and  N_7
REMARK    2  A    between atoms: C_8  and  C_31
REMARK    3  A    between atoms: C_11  and  S_12
REMARK    4  A    between atoms: S_12  and  C_13
REMARK    5  A    between atoms: C_13  and  C_14
REMARK    6  A    between atoms: C_16  and  C_19
REMARK    7  A    between atoms: N_21  and  C_22
REMARK                            x       y       z     vdW  Elec       q    Type
REMARK                         _______ _______ _______ _____ _____    ______ ____
ROOT
ATOM      1  C   UNL     1       4.971  -0.214   0.211  0.00  0.00    +0.140 C 
ENDROOT
BRANCH   1   2
ATOM      2  C   UNL     1       3.577  -0.724  -0.048  0.00  0.00    +0.089 A 
ATOM      3  N   UNL     1       2.450  -0.061  -0.033  0.00  0.00    -0.239 NA
ATOM      4  C   UNL     1       1.302  -0.692  -0.286  0.00  0.00    +0.133 A 
ATOM      5  C   UNL     1       1.365  -2.033  -0.568  0.00  0.00    +0.080 A 
ATOM      6  S   UNL     1       3.070  -2.333  -0.449  0.00  0.00    -0.079 S 
BRANCH   4   7
ATOM      7  C   UNL     1       0.017   0.025  -0.270  0.00  0.00    +0.264 C 
ATOM      8  O   UNL     1      -1.016  -0.571  -0.510  0.00  0.00    -0.268 OA
ATOM      9  N   UNL     1      -0.016   1.344   0.009  0.00  0.00    -0.299 N 
ATOM     10  H   UNL     1       0.917   1.882   0.230  0.00  0.00    +0.150 HD
BRANCH   9  11
ATOM     11  C   UNL     1      -1.295   2.059   0.019  0.00  0.00    +0.159 C 
ATOM     12  C   UNL     1      -1.131   3.396   0.747  0.00  0.00    +0.032 C 
ATOM     13  C   UNL     1       0.246   3.981   0.491  0.00  0.00    +0.004 C 
ATOM     14  C   UNL     1       0.476   4.400  -0.950  0.00  0.00    +0.019 C 
ATOM     15  C   UNL     1       0.502   3.181  -1.874  0.00  0.00    +0.104 C 
ATOM     16  N   UNL     1      -0.878   2.866  -2.278  0.00  0.00    -0.314 N 
ATOM     17  C   UNL     1      -1.736   2.332  -1.403  0.00  0.00    +0.233 C 
ATOM     18  O   UNL     1      -2.870   2.071  -1.745  0.00  0.00    -0.274 OA
ATOM     19  H   UNL     1      -1.210   3.071  -3.307  0.00  0.00    +0.149 HD
ENDBRANCH   9  11
ENDBRANCH   4   7
ENDBRANCH   1   2
BRANCH   1  20
ATOM     20  S   UNL     1       5.351  -0.366   1.974  0.00  0.00    -0.079 S 
BRANCH  20  25
ATOM     21  N   UNL     1       7.798   0.415   3.088  0.00  0.00    -0.265 N 
ATOM     22  C   UNL     1       8.973   0.963   2.617  0.00  0.00    +0.205 A 
ATOM     23  N   UNL     1       8.827   1.127   1.320  0.00  0.00    -0.125 NA
ATOM     24  N   UNL     1       7.664   0.722   0.954  0.00  0.00    -0.122 NA
ATOM     25  C   UNL     1       6.989   0.282   1.992  0.00  0.00    +0.197 A 
BRANCH  21  30
ATOM     26  C   UNL     1       7.484  -1.545   6.186  0.00  0.00    +0.002 A 
ATOM     27  C   UNL     1       6.899  -0.617   7.028  0.00  0.00    +0.003 A 
ATOM     28  C   UNL     1       6.610   0.654   6.566  0.00  0.00    +0.040 A 
ATOM     29  C   UNL     1       6.912   1.002   5.261  0.00  0.00    +0.147 A 
ATOM     30  C   UNL     1       7.495   0.068   4.413  0.00  0.00    +0.086 A 
ATOM     31  C   UNL     1       7.783  -1.206   4.881  0.00  0.00    +0.029 A 
ATOM     32  F   UNL     1       6.635   2.245   4.812  0.00  0.00    -0.203 F 
ENDBRANCH  21  30
BRANCH  22  33
ATOM     33  C   UNL     1      10.163   1.299   3.413  0.00  0.00    +0.172 A 
ATOM     34  C   UNL     1      11.407   1.560   2.922  0.00  0.00    +0.053 A 
ATOM     35  C   UNL     1      12.232   1.833   4.030  0.00  0.00    +0.042 A 
ATOM     36  C   UNL     1      11.464   1.718   5.132  0.00  0.00    +0.196 A 
ATOM     37  O   UNL     1      10.215   1.395   4.756  0.00  0.00    -0.460 OA
ENDBRANCH  22  33
ENDBRANCH  20  25
ENDBRANCH   1  20
TORSDOF 7
