REMARK  Name = ZINC19025667
REMARK  5 active torsions:
REMARK  status: ('A' for Active; 'I' for Inactive)
REMARK    1  A    between atoms: C_3  and  S_8
REMARK    2  A    between atoms: S_8  and  N_11
REMARK    3  A    between atoms: C_17  and  C_19
REMARK    4  A    between atoms: C_19  and  N_20
REMARK    5  A    between atoms: C_22  and  N_27
REMARK                            x       y       z     vdW  Elec       q    Type
REMARK                         _______ _______ _______ _____ _____    ______ ____
ROOT
ATOM      1  N   UNL     1       3.268   3.151   1.181  0.00  0.00    -0.174 NA
ATOM      2  C   UNL     1       3.272   1.681   1.173  0.00  0.00    +0.128 C 
ATOM      3  C   UNL     1       2.433   1.194  -0.015  0.00  0.00    +0.125 C 
ATOM      4  N   UNL     1       1.143   1.898   0.001  0.00  0.00    -0.297 N 
ATOM      5  C   UNL     1       1.139   3.368   0.003  0.00  0.00    +0.125 C 
ATOM      6  C   UNL     1       1.978   3.855   1.197  0.00  0.00    +0.128 C 
ATOM      7  C   UNL     1      -0.014   1.209   0.009  0.00  0.00    +0.236 C 
ATOM      8  O   UNL     1       0.002  -0.004   0.002  0.00  0.00    -0.274 OA
ENDROOT
BRANCH   1   9
ATOM      9  S   UNL     1       4.690   3.998   1.171  0.00  0.00    +0.061 S 
ATOM     10  O   UNL     1       4.408   5.273   1.731  0.00  0.00    -0.153 OA
ATOM     11  O   UNL     1       5.682   3.133   1.707  0.00  0.00    -0.153 OA
BRANCH   9  14
ATOM     12  C   UNL     1       5.014   5.627  -2.488  0.00  0.00    +0.040 A 
ATOM     13  C   UNL     1       4.677   5.410  -1.165  0.00  0.00    +0.031 A 
ATOM     14  C   UNL     1       5.121   4.273  -0.516  0.00  0.00    +0.106 A 
ATOM     15  C   UNL     1       5.907   3.355  -1.186  0.00  0.00    +0.031 A 
ATOM     16  C   UNL     1       6.242   3.567  -2.510  0.00  0.00    +0.040 A 
ATOM     17  C   UNL     1       5.797   4.705  -3.162  0.00  0.00    +0.124 A 
ATOM     18  F   UNL     1       6.128   4.916  -4.455  0.00  0.00    -0.205 F 
ENDBRANCH   9  14
ENDBRANCH   1   9
BRANCH   7  19
ATOM     19  C   UNL     1      -1.330   1.944   0.019  0.00  0.00    +0.220 C 
BRANCH  19  20
ATOM     20  N   UNL     1      -2.430   0.977   0.019  0.00  0.00    -0.304 N 
ATOM     21  C   UNL     1      -2.929   0.528   1.199  0.00  0.00    +0.122 A 
ATOM     22  C   UNL     1      -3.945  -0.365   1.224  0.00  0.00    +0.142 A 
ATOM     23  C   UNL     1      -4.494  -0.836   0.023  0.00  0.00    +0.039 A 
ATOM     24  C   UNL     1      -3.991  -0.383  -1.162  0.00  0.00    +0.072 A 
ATOM     25  C   UNL     1      -2.939   0.548  -1.152  0.00  0.00    +0.252 A 
ATOM     26  O   UNL     1      -2.484   0.966  -2.204  0.00  0.00    -0.268 OA
BRANCH  22  27
ATOM     27  N   UNL     1      -4.477  -0.845   2.519  0.00  0.00    +0.058 N 
ATOM     28  O   UNL     1      -4.000  -0.436   3.563  0.00  0.00    -0.126 OA
ATOM     29  O   UNL     1      -5.392  -1.649   2.542  0.00  0.00    -0.126 OA
ENDBRANCH  22  27
ENDBRANCH  19  20
ENDBRANCH   7  19
TORSDOF 5
