REMARK  Name = ZINC17358698
REMARK  8 active torsions:
REMARK  status: ('A' for Active; 'I' for Inactive)
REMARK    1  A    between atoms: C_1  and  C_2
REMARK    2  A    between atoms: C_2  and  O_3
REMARK    3  A    between atoms: O_3  and  C_4
REMARK    4  A    between atoms: C_4  and  C_6
REMARK    5  A    between atoms: C_8  and  C_15
REMARK    6  A    between atoms: C_10  and  N_12
REMARK    7  A    between atoms: N_17  and  N_18
REMARK    8  A    between atoms: C_19  and  C_21
REMARK                            x       y       z     vdW  Elec       q    Type
REMARK                         _______ _______ _______ _____ _____    ______ ____
ROOT
ATOM      1  C   UNL     1       2.512  -2.811  -0.037  0.00  0.00    +0.260 C 
ATOM      2  O   UNL     1       3.561  -2.197  -0.043  0.00  0.00    -0.269 OA
ATOM      3  N   UNL     1       2.520  -4.159  -0.044  0.00  0.00    -0.230 N 
ATOM      4  H   UNL     1       1.683  -4.648  -0.039  0.00  0.00    +0.173 HD
ENDROOT
BRANCH   1   7
ATOM      5  C   UNL     1       0.002  -0.004   0.002  0.00  0.00    +0.062 A 
ATOM      6  C   UNL     1       1.218  -0.686  -0.013  0.00  0.00    +0.028 A 
ATOM      7  C   UNL     1       1.227  -2.079  -0.021  0.00  0.00    +0.041 A 
ATOM      8  C   UNL     1       0.021  -2.783  -0.013  0.00  0.00    +0.045 A 
ATOM      9  C   UNL     1      -1.180  -2.101   0.002  0.00  0.00    +0.128 A 
ATOM     10  C   UNL     1      -1.197  -0.721   0.015  0.00  0.00    +0.047 A 
BRANCH   9  11
ATOM     11  N   UNL     1      -2.454  -2.854   0.010  0.00  0.00    +0.056 N 
ATOM     12  O   UNL     1      -2.442  -4.072   0.003  0.00  0.00    -0.126 OA
ATOM     13  O   UNL     1      -3.515  -2.256   0.023  0.00  0.00    -0.126 OA
ENDBRANCH   9  11
BRANCH   5  14
ATOM     14  C   UNL     1      -0.018   1.473   0.010  0.00  0.00    +0.339 C 
ATOM     15  O   UNL     1       1.026   2.095   0.004  0.00  0.00    -0.245 OA
BRANCH  14  16
ATOM     16  O   UNL     1      -1.194   2.131   0.019  0.00  0.00    -0.461 OA
BRANCH  16  18
ATOM     17  C   UNL     1      -2.559   4.147   0.037  0.00  0.00    +0.048 C 
ATOM     18  C   UNL     1      -1.137   3.582   0.027  0.00  0.00    +0.229 C 
ENDBRANCH  16  18
ENDBRANCH  14  16
ENDBRANCH   5  14
ENDBRANCH   1   7
BRANCH   3  19
ATOM     19  N   UNL     1       3.737  -4.852  -0.059  0.00  0.00    -0.230 N 
ATOM     20  C   UNL     1       3.745  -6.200  -0.066  0.00  0.00    +0.261 C 
ATOM     21  O   UNL     1       2.696  -6.814  -0.060  0.00  0.00    -0.269 OA
ATOM     22  H   UNL     1       4.574  -4.362  -0.064  0.00  0.00    +0.173 HD
BRANCH  20  23
ATOM     23  C   UNL     1       5.029  -6.931  -0.082  0.00  0.00    +0.052 A 
ATOM     24  C   UNL     1       6.236  -6.229  -0.095  0.00  0.00    +0.014 A 
ATOM     25  C   UNL     1       7.430  -6.918  -0.105  0.00  0.00    +0.001 A 
ATOM     26  C   UNL     1       7.436  -8.302  -0.112  0.00  0.00    +0.001 A 
ATOM     27  C   UNL     1       6.245  -9.004  -0.104  0.00  0.00    +0.016 A 
ATOM     28  C   UNL     1       5.041  -8.328  -0.089  0.00  0.00    +0.030 A 
ATOM     29 BR   UNL     1       3.413  -9.290  -0.081  0.00  0.00    -0.050 Br
ENDBRANCH  20  23
ENDBRANCH   3  19
TORSDOF 7
