REMARK  Name = ZINC22821437
REMARK  12 active torsions:
REMARK  status: ('A' for Active; 'I' for Inactive)
REMARK    1  A    between atoms: C_1  and  C_2
REMARK    2  A    between atoms: C_2  and  O_3
REMARK    3  A    between atoms: O_3  and  C_4
REMARK    4  A    between atoms: C_7  and  N_10
REMARK    5  A    between atoms: C_11  and  C_37
REMARK    6  A    between atoms: N_20  and  C_25
REMARK    7  A    between atoms: N_23  and  C_24
REMARK    8  A    between atoms: C_25  and  C_26
REMARK    9  A    between atoms: C_26  and  C_28
REMARK   10  A    between atoms: C_26  and  C_29
REMARK   11  A    between atoms: C_29  and  N_30
REMARK   12  A    between atoms: N_33  and  C_36
REMARK                            x       y       z     vdW  Elec       q    Type
REMARK                         _______ _______ _______ _____ _____    ______ ____
ROOT
ATOM      1  N   UNL     1      -4.657   1.238  -5.400  0.00  0.00    -0.283 N 
ATOM      2  C   UNL     1      -5.049   0.015  -4.889  0.00  0.00    +0.040 A 
ATOM      3  C   UNL     1      -4.297  -0.250  -3.824  0.00  0.00    +0.116 A 
ATOM      4  N   UNL     1      -3.414   0.800  -3.641  0.00  0.00    -0.277 N 
ATOM      5  C   UNL     1      -3.639   1.714  -4.614  0.00  0.00    +0.223 A 
ATOM      6  N   UNL     1      -2.803   2.731  -4.459  0.00  0.00    -0.193 NA
ATOM      7  C   UNL     1      -2.022   2.519  -3.403  0.00  0.00    +0.170 A 
ATOM      8  C   UNL     1      -2.385   1.291  -2.853  0.00  0.00    +0.157 A 
ATOM      9  C   UNL     1      -1.703   0.820  -1.718  0.00  0.00    +0.283 A 
ATOM     10  O   UNL     1      -2.000  -0.254  -1.224  0.00  0.00    -0.265 OA
ATOM     11  N   UNL     1      -0.721   1.571  -1.179  0.00  0.00    -0.259 N 
ATOM     12  C   UNL     1      -0.378   2.755  -1.716  0.00  0.00    +0.333 A 
ATOM     13  O   UNL     1       0.515   3.401  -1.204  0.00  0.00    -0.246 OA
ATOM     14  N   UNL     1      -1.000   3.242  -2.806  0.00  0.00    -0.279 N 
ATOM     15  C   UNL     1      -0.596   4.536  -3.362  0.00  0.00    +0.155 C 
ATOM     16  C   UNL     1      -6.140  -0.866  -5.442  0.00  0.00    +0.065 C 
ENDROOT
BRANCH   1  20
ATOM     17  C   UNL     1      -6.278   3.140  -8.739  0.00  0.00    +0.121 A 
ATOM     18  C   UNL     1      -7.058   2.937  -7.610  0.00  0.00    +0.047 A 
ATOM     19  C   UNL     1      -6.522   2.308  -6.504  0.00  0.00    +0.030 A 
ATOM     20  C   UNL     1      -5.202   1.877  -6.523  0.00  0.00    +0.050 A 
ATOM     21  C   UNL     1      -4.420   2.086  -7.651  0.00  0.00    +0.030 A 
ATOM     22  C   UNL     1      -4.959   2.711  -8.758  0.00  0.00    +0.047 A 
BRANCH  17  23
ATOM     23  O   UNL     1      -6.806   3.761  -9.827  0.00  0.00    -0.492 OA
BRANCH  23  25
ATOM     24  C   UNL     1      -6.711   4.648 -12.073  0.00  0.00    +0.048 C 
ATOM     25  C   UNL     1      -5.947   3.937 -10.955  0.00  0.00    +0.225 C 
ENDBRANCH  23  25
ENDBRANCH  17  23
ENDBRANCH   1  20
BRANCH  11  26
ATOM     26  C   UNL     1      -0.013   1.086   0.008  0.00  0.00    +0.131 C 
BRANCH  26  27
ATOM     27  C   UNL     1      -0.729   1.579   1.267  0.00  0.00    -0.011 C 
ATOM     28  C   UNL     1      -2.121   0.950   1.341  0.00  0.00    +0.007 C 
BRANCH  27  29
ATOM     29  C   UNL     1       0.079   1.179   2.503  0.00  0.00    -0.074 C 
BRANCH  29  30
ATOM     30  N   UNL     1      -0.544   1.754   3.703  0.00  0.00    +0.382 N 
ATOM     31  C   UNL     1      -0.455   3.221   3.691  0.00  0.00    -0.063 C 
ATOM     32  C   UNL     1      -1.183   3.784   4.913  0.00  0.00    +0.065 C 
ATOM     33  N   UNL     1      -0.581   3.232   6.135  0.00  0.00    -0.309 NA
ATOM     34  C   UNL     1      -0.671   1.766   6.147  0.00  0.00    +0.065 C 
ATOM     35  C   UNL     1       0.057   1.202   4.925  0.00  0.00    -0.063 C 
ATOM     36  C   UNL     1      -1.204   3.808   7.335  0.00  0.00    +0.104 C 
ATOM     37  H   UNL     1      -1.609   1.479   3.694  0.00  0.00    -0.082 HD
ENDBRANCH  29  30
ENDBRANCH  27  29
ENDBRANCH  26  27
ENDBRANCH  11  26
TORSDOF 7
