REMARK  Name = ZINC40985949
REMARK  10 active torsions:
REMARK  status: ('A' for Active; 'I' for Inactive)
REMARK    1  A    between atoms: C_1  and  N_2
REMARK    2  A    between atoms: N_2  and  C_3
REMARK    3  A    between atoms: N_2  and  C_4
REMARK    4  A    between atoms: C_4  and  C_6
REMARK    5  A    between atoms: C_4  and  C_26
REMARK    6  A    between atoms: C_6  and  N_7
REMARK    7  A    between atoms: C_8  and  C_10
REMARK    8  A    between atoms: C_13  and  S_17
REMARK    9  A    between atoms: S_17  and  C_18
REMARK   10  A    between atoms: C_18  and  C_19
REMARK                            x       y       z     vdW  Elec       q    Type
REMARK                         _______ _______ _______ _____ _____    ______ ____
ROOT
ATOM      1  N   UNL     1      -1.766   1.531  -1.169  0.00  0.00    -0.312 N 
ATOM      2  C   UNL     1      -2.260   2.263  -2.188  0.00  0.00    +0.248 C 
ATOM      3  O   UNL     1      -2.936   1.731  -3.047  0.00  0.00    -0.270 OA
ATOM      4  H   UNL     1      -1.227   1.956  -0.484  0.00  0.00    +0.149 HD
ENDROOT
BRANCH   2   5
ATOM      5  C   UNL     1      -1.980   3.709  -2.260  0.00  0.00    +0.092 A 
ATOM      6  C   UNL     1      -1.198   4.340  -1.283  0.00  0.00    +0.129 A 
ATOM      7  N   UNL     1      -0.970   5.635  -1.384  0.00  0.00    -0.229 NA
ATOM      8  C   UNL     1      -1.470   6.340  -2.392  0.00  0.00    +0.190 A 
ATOM      9  N   UNL     1      -2.215   5.781  -3.337  0.00  0.00    -0.209 NA
ATOM     10  C   UNL     1      -2.485   4.488  -3.312  0.00  0.00    +0.146 A 
ATOM     11 CL   UNL     1      -3.455   3.766  -4.557  0.00  0.00    -0.061 Cl
BRANCH   8  12
ATOM     12  S   UNL     1      -1.135   8.068  -2.477  0.00  0.00    -0.081 S 
BRANCH  12  13
ATOM     13  C   UNL     1      -1.995   8.608  -3.980  0.00  0.00    +0.112 C 
BRANCH  13  14
ATOM     14  C   UNL     1      -1.787  10.088  -4.173  0.00  0.00    -0.037 A 
ATOM     15  C   UNL     1      -2.672  10.990  -3.613  0.00  0.00    +0.006 A 
ATOM     16  C   UNL     1      -2.482  12.347  -3.790  0.00  0.00    +0.020 A 
ATOM     17  C   UNL     1      -1.404  12.803  -4.528  0.00  0.00    +0.041 A 
ATOM     18  C   UNL     1      -0.518  11.901  -5.088  0.00  0.00    +0.020 A 
ATOM     19  C   UNL     1      -0.706  10.544  -4.906  0.00  0.00    +0.006 A 
ATOM     20 CL   UNL     1      -1.164  14.508  -4.751  0.00  0.00    -0.084 Cl
ENDBRANCH  13  14
ENDBRANCH  12  13
ENDBRANCH   8  12
ENDBRANCH   2   5
BRANCH   1  21
ATOM     21  C   UNL     1      -2.044   0.095  -1.098  0.00  0.00    +0.094 C 
BRANCH  21  22
ATOM     22  C   UNL     1      -1.281  -0.514   0.081  0.00  0.00    -0.021 C 
BRANCH  22  23
ATOM     23  C   UNL     1      -1.799   0.070   1.370  0.00  0.00    -0.059 A 
ATOM     24  C   UNL     1      -2.968  -0.414   1.928  0.00  0.00    +0.003 A 
ATOM     25  C   UNL     1      -3.443   0.121   3.110  0.00  0.00    +0.020 A 
ATOM     26  C   UNL     1      -2.749   1.141   3.735  0.00  0.00    +0.041 A 
ATOM     27  C   UNL     1      -1.580   1.625   3.177  0.00  0.00    +0.020 A 
ATOM     28  C   UNL     1      -1.102   1.086   1.997  0.00  0.00    +0.003 A 
ATOM     29 CL   UNL     1      -3.346   1.814   5.220  0.00  0.00    -0.084 Cl
ENDBRANCH  22  23
BRANCH  22  31
ATOM     30  C   UNL     1      -0.969  -2.540  -1.166  0.00  0.00    -0.096 C 
ATOM     31  N   UNL     1      -1.476  -1.970   0.090  0.00  0.00    +0.382 N 
ATOM     32  C   UNL     1      -0.744  -2.555   1.222  0.00  0.00    -0.096 C 
ATOM     33  H   UNL     1      -2.459  -2.178   0.181  0.00  0.00    -0.082 HD
ENDBRANCH  22  31
ENDBRANCH  21  22
ENDBRANCH   1  21
TORSDOF 8
