REMARK  Name = ZINC08812189
REMARK  12 active torsions:
REMARK  status: ('A' for Active; 'I' for Inactive)
REMARK    1  A    between atoms: C_1  and  C_2
REMARK    2  A    between atoms: C_2  and  C_3
REMARK    3  A    between atoms: N_9  and  C_10
REMARK    4  A    between atoms: C_10  and  C_11
REMARK    5  A    between atoms: C_11  and  C_12
REMARK    6  A    between atoms: C_12  and  N_13
REMARK    7  A    between atoms: C_14  and  C_16
REMARK    8  A    between atoms: N_21  and  S_23
REMARK    9  A    between atoms: S_23  and  N_26
REMARK   10  A    between atoms: C_32  and  O_34
REMARK   11  A    between atoms: O_34  and  C_35
REMARK   12  A    between atoms: C_35  and  C_36
REMARK                            x       y       z     vdW  Elec       q    Type
REMARK                         _______ _______ _______ _____ _____    ______ ____
ROOT
ATOM      1  C   UNL     1      -3.144   5.737   5.757  0.00  0.00    +0.091 C 
ATOM      2  C   UNL     1      -4.620   5.377   5.941  0.00  0.00    +0.015 C 
ATOM      3  C   UNL     1      -5.086   5.820   7.329  0.00  0.00    +0.018 C 
ATOM      4  C   UNL     1      -4.941   7.340   7.451  0.00  0.00    +0.110 C 
ATOM      5  N   UNL     1      -3.555   7.710   7.133  0.00  0.00    -0.166 NA
ATOM      6  C   UNL     1      -2.976   7.256   5.861  0.00  0.00    +0.123 C 
ENDROOT
BRANCH   1   8
ATOM      7  N   UNL     1      -2.734   3.963   4.083  0.00  0.00    -0.315 N 
ATOM      8  C   UNL     1      -2.678   5.271   4.402  0.00  0.00    +0.217 C 
ATOM      9  O   UNL     1      -2.252   6.074   3.598  0.00  0.00    -0.275 OA
ATOM     10  H   UNL     1      -3.075   3.321   4.726  0.00  0.00    +0.149 HD
BRANCH   7  11
ATOM     11  C   UNL     1      -2.280   3.510   2.765  0.00  0.00    +0.102 C 
BRANCH  11  12
ATOM     12  C   UNL     1      -2.450   1.993   2.662  0.00  0.00    +0.000 C 
BRANCH  12  13
ATOM     13  C   UNL     1      -1.976   1.520   1.286  0.00  0.00    -0.077 C 
BRANCH  13  19
ATOM     14  C   UNL     1      -1.571  -0.405  -0.084  0.00  0.00    -0.069 C 
ATOM     15  C   UNL     1      -1.665  -1.931  -0.156  0.00  0.00    -0.015 C 
ATOM     16  C   UNL     1      -3.135  -2.351  -0.067  0.00  0.00    -0.003 C 
ATOM     17  C   UNL     1      -3.737  -1.793   1.226  0.00  0.00    -0.019 C 
ATOM     18  C   UNL     1      -3.567  -0.273   1.247  0.00  0.00    -0.078 C 
ATOM     19  N   UNL     1      -2.139   0.063   1.186  0.00  0.00    +0.382 N 
ATOM     20  H   UNL     1      -1.656  -0.380   1.953  0.00  0.00    -0.081 HD
BRANCH  14  22
ATOM     21  C   UNL     1       0.472  -0.418  -1.521  0.00  0.00    +0.002 C 
ATOM     22  C   UNL     1      -0.104   0.020  -0.173  0.00  0.00    -0.019 C 
ENDBRANCH  14  22
ENDBRANCH  13  19
ENDBRANCH  12  13
ENDBRANCH  11  12
ENDBRANCH   7  11
ENDBRANCH   1   8
BRANCH   5  23
ATOM     23  S   UNL     1      -2.661   8.621   8.188  0.00  0.00    +0.100 S 
ATOM     24  O   UNL     1      -1.654   9.262   7.419  0.00  0.00    -0.141 OA
ATOM     25  O   UNL     1      -3.588   9.345   8.985  0.00  0.00    -0.141 OA
BRANCH  23  26
ATOM     26  N   UNL     1      -1.884   7.570   9.205  0.00  0.00    -0.163 NA
ATOM     27  C   UNL     1      -2.518   7.133  10.457  0.00  0.00    +0.129 C 
ATOM     28  C   UNL     1      -2.562   5.600  10.474  0.00  0.00    +0.128 C 
ATOM     29  N   UNL     1      -1.226   5.088  10.140  0.00  0.00    -0.265 N 
ATOM     30  C   UNL     1      -0.592   5.525   8.889  0.00  0.00    +0.128 C 
ATOM     31  C   UNL     1      -0.550   7.053   8.869  0.00  0.00    +0.129 C 
ATOM     32  C   UNL     1      -0.593   4.232  10.968  0.00  0.00    +0.403 C 
ATOM     33  O   UNL     1      -1.127   3.878  12.000  0.00  0.00    -0.226 OA
BRANCH  32  34
ATOM     34  O   UNL     1       0.631   3.770  10.650  0.00  0.00    -0.451 OA
BRANCH  34  35
ATOM     35  C   UNL     1       1.243   2.867  11.573  0.00  0.00    +0.230 C 
ATOM     36  C   UNL     1       2.619   2.454  11.046  0.00  0.00    +0.048 C 
ENDBRANCH  34  35
ENDBRANCH  32  34
ENDBRANCH  23  26
ENDBRANCH   5  23
TORSDOF 10
