REMARK  Name = ZINC39625557
REMARK  8 active torsions:
REMARK  status: ('A' for Active; 'I' for Inactive)
REMARK    1  A    between atoms: C_1  and  C_2
REMARK    2  A    between atoms: C_2  and  C_3
REMARK    3  A    between atoms: C_3  and  C_5
REMARK    4  A    between atoms: C_3  and  C_6
REMARK    5  A    between atoms: C_10  and  C_19
REMARK    6  A    between atoms: N_21  and  C_22
REMARK    7  A    between atoms: C_22  and  C_23
REMARK    8  A    between atoms: C_23  and  N_24
REMARK                            x       y       z     vdW  Elec       q    Type
REMARK                         _______ _______ _______ _____ _____    ______ ____
ROOT
ATOM      1  C   UNL     1       0.564  -2.239  -1.560  0.00  0.00    +0.218 C 
ATOM      2  O   UNL     1      -0.108  -2.926  -0.821  0.00  0.00    -0.275 OA
ATOM      3  N   UNL     1       1.324  -2.816  -2.512  0.00  0.00    -0.300 N 
ATOM      4  C   UNL     1       2.287  -2.160  -3.427  0.00  0.00    +0.121 C 
ATOM      5  C   UNL     1       3.475  -3.144  -3.514  0.00  0.00    +0.100 C 
ATOM      6  C   UNL     1       2.877  -4.514  -3.155  0.00  0.00    -0.004 C 
ATOM      7  C   UNL     1       1.391  -4.252  -2.874  0.00  0.00    +0.115 C 
ATOM      8  C   UNL     1       3.553  -5.075  -1.907  0.00  0.00    -0.010 C 
ATOM      9  C   UNL     1       2.981  -6.463  -1.604  0.00  0.00    -0.082 C 
ATOM     10  N   UNL     1       3.211  -7.351  -2.750  0.00  0.00    +0.379 N 
ATOM     11  C   UNL     1       2.482  -6.853  -3.923  0.00  0.00    -0.082 C 
ATOM     12  C   UNL     1       3.032  -5.482  -4.325  0.00  0.00    -0.010 C 
ATOM     13  H   UNL     1       4.198  -7.381  -2.957  0.00  0.00    -0.086 HD
ATOM     14  H   UNL     1       2.889  -8.280  -2.524  0.00  0.00    -0.086 HD
ENDROOT
BRANCH   5  15
ATOM     15  C   UNL     1       4.038  -3.164  -4.912  0.00  0.00    +0.218 C 
ATOM     16  O   UNL     1       3.317  -2.932  -5.860  0.00  0.00    -0.275 OA
ATOM     17  N   UNL     1       5.342  -3.441  -5.110  0.00  0.00    -0.314 N 
ATOM     18  H   UNL     1       5.918  -3.627  -4.352  0.00  0.00    +0.149 HD
BRANCH  17  19
ATOM     19  C   UNL     1       5.889  -3.461  -6.469  0.00  0.00    +0.119 C 
BRANCH  19  20
ATOM     20  C   UNL     1       7.380  -3.799  -6.413  0.00  0.00    +0.103 C 
BRANCH  20  21
ATOM     21  N   UNL     1       7.929  -3.819  -7.776  0.00  0.00    -0.297 NA
ATOM     22  C   UNL     1       7.355  -4.924  -8.559  0.00  0.00    +0.112 C 
ATOM     23  C   UNL     1       7.908  -4.871  -9.986  0.00  0.00    +0.175 C 
ATOM     24  O   UNL     1       9.336  -4.924  -9.941  0.00  0.00    -0.377 OA
ATOM     25  C   UNL     1       9.928  -3.862  -9.187  0.00  0.00    +0.175 C 
ATOM     26  C   UNL     1       9.396  -3.904  -7.752  0.00  0.00    +0.112 C 
ENDBRANCH  20  21
ENDBRANCH  19  20
ENDBRANCH  17  19
ENDBRANCH   5  15
BRANCH   1  27
ATOM     27  C   UNL     1       0.550  -0.739  -1.414  0.00  0.00    +0.072 C 
ATOM     28  C   UNL     1       1.633  -0.312  -0.421  0.00  0.00    +0.017 C 
BRANCH  27  30
ATOM     29  C   UNL     1      -0.876   1.239  -0.870  0.00  0.00    +0.004 C 
ATOM     30  C   UNL     1      -0.819  -0.289  -0.900  0.00  0.00    +0.009 C 
ENDBRANCH  27  30
ENDBRANCH   1  27
TORSDOF 6
