REMARK  Name = ZINC10233257
REMARK  4 active torsions:
REMARK  status: ('A' for Active; 'I' for Inactive)
REMARK    1  A    between atoms: C_4  and  N_7
REMARK    2  A    between atoms: C_14  and  N_21
REMARK    3  A    between atoms: C_15  and  N_18
REMARK    4  A    between atoms: C_24  and  C_27
REMARK                            x       y       z     vdW  Elec       q    Type
REMARK                         _______ _______ _______ _____ _____    ______ ____
ROOT
ATOM      1  N   UNL     1      -2.472   4.033   0.037  0.00  0.00    -0.275 N 
ATOM      2  C   UNL     1      -3.639   3.387   0.398  0.00  0.00    +0.059 A 
ATOM      3  C   UNL     1      -4.769   4.107   0.772  0.00  0.00    +0.027 A 
ATOM      4  C   UNL     1      -5.920   3.436   1.127  0.00  0.00    +0.002 A 
ATOM      5  C   UNL     1      -5.963   2.049   1.113  0.00  0.00    +0.001 A 
ATOM      6  C   UNL     1      -4.864   1.323   0.749  0.00  0.00    +0.012 A 
ATOM      7  C   UNL     1      -3.688   1.983   0.386  0.00  0.00    +0.022 A 
ATOM      8  C   UNL     1      -2.488   1.234  -0.018  0.00  0.00    +0.075 A 
ATOM      9  C   UNL     1      -1.365   1.941  -0.358  0.00  0.00    +0.212 A 
ATOM     10  C   UNL     1      -1.378   3.341  -0.327  0.00  0.00    +0.288 A 
ATOM     11  O   UNL     1      -0.368   3.951  -0.639  0.00  0.00    -0.265 OA
ENDROOT
BRANCH   1  15
ATOM     12  C   UNL     1      -2.341   8.197   0.074  0.00  0.00    +0.000 A 
ATOM     13  C   UNL     1      -1.995   7.486   1.209  0.00  0.00    +0.002 A 
ATOM     14  C   UNL     1      -2.038   6.105   1.200  0.00  0.00    +0.026 A 
ATOM     15  C   UNL     1      -2.428   5.432   0.049  0.00  0.00    +0.050 A 
ATOM     16  C   UNL     1      -2.769   6.149  -1.090  0.00  0.00    +0.026 A 
ATOM     17  C   UNL     1      -2.730   7.530  -1.072  0.00  0.00    +0.002 A 
ENDBRANCH   1  15
BRANCH   8  18
ATOM     18  N   UNL     1      -2.492  -0.144  -0.050  0.00  0.00    -0.327 N 
ATOM     19  C   UNL     1      -3.477  -0.646  -1.017  0.00  0.00    +0.106 C 
ATOM     20  C   UNL     1      -3.353  -2.167  -1.131  0.00  0.00    +0.031 C 
ATOM     21  C   UNL     1      -3.592  -2.798   0.243  0.00  0.00    +0.078 C 
ATOM     22  C   UNL     1      -2.584  -2.224   1.242  0.00  0.00    +0.031 C 
ATOM     23  C   UNL     1      -2.731  -0.701   1.288  0.00  0.00    +0.106 C 
BRANCH  21  24
ATOM     24  C   UNL     1      -3.413  -4.292   0.150  0.00  0.00    +0.214 C 
ATOM     25  O   UNL     1      -2.563  -4.843   0.817  0.00  0.00    -0.276 OA
ATOM     26  N   UNL     1      -4.197  -5.015  -0.674  0.00  0.00    -0.329 N 
ATOM     27  H   UNL     1      -4.876  -4.574  -1.208  0.00  0.00    +0.145 HD
ATOM     28  H   UNL     1      -4.081  -5.976  -0.734  0.00  0.00    +0.145 HD
ENDBRANCH  21  24
ENDBRANCH   8  18
BRANCH   9  29
ATOM     29  N   UNL     1      -0.137   1.224  -0.766  0.00  0.00    +0.064 N 
ATOM     30  O   UNL     1      -0.123   0.006  -0.794  0.00  0.00    -0.126 OA
ATOM     31  O   UNL     1       0.860   1.851  -1.079  0.00  0.00    -0.126 OA
ENDBRANCH   9  29
TORSDOF 4
