REMARK  Name = ZINC40778087
REMARK  8 active torsions:
REMARK  status: ('A' for Active; 'I' for Inactive)
REMARK    1  A    between atoms: C_4  and  N_7
REMARK    2  A    between atoms: N_7  and  C_8
REMARK    3  A    between atoms: N_7  and  N_14
REMARK    4  A    between atoms: C_16  and  N_29
REMARK    5  A    between atoms: C_17  and  N_21
REMARK    6  A    between atoms: N_21  and  C_22
REMARK    7  A    between atoms: C_22  and  C_23
REMARK    8  A    between atoms: C_23  and  C_24
REMARK                            x       y       z     vdW  Elec       q    Type
REMARK                         _______ _______ _______ _____ _____    ______ ____
ROOT
ATOM      1  N   UNL     1       4.728   0.036  -0.552  0.00  0.00    -0.243 N 
ATOM      2  C   UNL     1       5.575   0.730   0.304  0.00  0.00    +0.139 A 
ATOM      3  C   UNL     1       6.679   1.421  -0.197  0.00  0.00    +0.105 A 
ATOM      4  C   UNL     1       7.497   2.101   0.706  0.00  0.00    +0.145 A 
ATOM      5  N   UNL     1       7.196   2.065   2.002  0.00  0.00    -0.221 NA
ATOM      6  C   UNL     1       6.144   1.400   2.435  0.00  0.00    +0.200 A 
ATOM      7  N   UNL     1       5.343   0.750   1.615  0.00  0.00    -0.332 N 
ATOM      8  H   UNL     1       4.905   0.027  -1.506  0.00  0.00    +0.172 HD
ATOM      9  H   UNL     1       4.576   0.275   1.972  0.00  0.00    +0.168 HD
ENDROOT
BRANCH   3  10
ATOM     10  N   UNL     1       6.960   1.432  -1.573  0.00  0.00    -0.353 N 
ATOM     11  H   UNL     1       6.383   0.955  -2.190  0.00  0.00    +0.143 HD
ATOM     12  H   UNL     1       7.731   1.917  -1.908  0.00  0.00    +0.143 HD
ENDBRANCH   3  10
BRANCH   4  13
ATOM     13  N   UNL     1       8.610   2.805   0.260  0.00  0.00    -0.327 N 
ATOM     14  H   UNL     1       8.823   2.826  -0.686  0.00  0.00    +0.148 HD
BRANCH  13  15
ATOM     15  C   UNL     1       9.461   3.514   1.218  0.00  0.00    +0.108 C 
BRANCH  15  16
ATOM     16  C   UNL     1      10.606   4.202   0.472  0.00  0.00    +0.061 C 
BRANCH  16  17
ATOM     17  C   UNL     1      11.482   4.931   1.458  0.00  0.00    -0.009 A 
ATOM     18  C   UNL     1      12.572   4.483   2.126  0.00  0.00    +0.011 A 
ATOM     19  C   UNL     1      13.228   5.340   2.991  0.00  0.00    +0.008 A 
ATOM     20  C   UNL     1      12.760   6.603   3.145  0.00  0.00    +0.045 A 
ATOM     21  S   UNL     1      11.355   6.614   2.043  0.00  0.00    -0.102 S 
ENDBRANCH  16  17
ENDBRANCH  15  16
ENDBRANCH  13  15
ENDBRANCH   4  13
BRANCH   1  22
ATOM     22  N   UNL     1       3.620  -0.649  -0.037  0.00  0.00    -0.221 N 
BRANCH  22  26
ATOM     23  C   UNL     1       0.255   1.467   1.201  0.00  0.00    +0.000 A 
ATOM     24  C   UNL     1       0.354   0.113   1.466  0.00  0.00    +0.002 A 
ATOM     25  C   UNL     1       1.469  -0.592   1.056  0.00  0.00    +0.025 A 
ATOM     26  C   UNL     1       2.491   0.061   0.378  0.00  0.00    +0.053 A 
ATOM     27  C   UNL     1       2.387   1.421   0.114  0.00  0.00    +0.025 A 
ATOM     28  C   UNL     1       1.270   2.119   0.526  0.00  0.00    +0.002 A 
ENDBRANCH  22  26
BRANCH  22  29
ATOM     29  C   UNL     1       3.644  -2.043   0.060  0.00  0.00    +0.053 A 
ATOM     30  C   UNL     1       2.640  -2.800  -0.530  0.00  0.00    +0.025 A 
ATOM     31  C   UNL     1       2.667  -4.177  -0.431  0.00  0.00    +0.002 A 
ATOM     32  C   UNL     1       3.692  -4.803   0.254  0.00  0.00    +0.000 A 
ATOM     33  C   UNL     1       4.693  -4.052   0.843  0.00  0.00    +0.002 A 
ATOM     34  C   UNL     1       4.676  -2.675   0.743  0.00  0.00    +0.025 A 
ENDBRANCH  22  29
ENDBRANCH   1  22
TORSDOF 8
