REMARK  Name = ZINC07674419
REMARK  7 active torsions:
REMARK  status: ('A' for Active; 'I' for Inactive)
REMARK    1  A    between atoms: C_1  and  C_2
REMARK    2  A    between atoms: C_5  and  C_9
REMARK    3  A    between atoms: C_6  and  C_8
REMARK    4  A    between atoms: C_9  and  N_48
REMARK    5  A    between atoms: C_10  and  N_48
REMARK    6  A    between atoms: C_11  and  C_12
REMARK    7  A    between atoms: C_11  and  N_48
REMARK                            x       y       z     vdW  Elec       q    Type
REMARK                         _______ _______ _______ _____ _____    ______ ____
ROOT
ATOM      1  C   UNL     1       1.339   1.945  -0.012  0.00  0.00    +0.094 A 
ATOM      2  N   UNL     1       0.255   1.146   0.165  0.00  0.00    -0.312 N 
ATOM      3  H   UNL     1      -0.629   1.561   0.379  0.00  0.00    +0.170 HD
ATOM      4  C   UNL     1       0.348  -0.193   0.057  0.00  0.00    +0.260 A 
ATOM      5  O   UNL     1      -0.633  -0.898   0.220  0.00  0.00    -0.267 OA
ATOM      6  C   UNL     1       1.621  -0.773  -0.251  0.00  0.00    +0.075 A 
ATOM      7  C   UNL     1       1.953  -2.197  -0.414  0.00  0.00    -0.023 A 
ATOM      8  C   UNL     1       3.231  -2.493  -0.706  0.00  0.00    -0.004 A 
ATOM      9  S   UNL     1       4.061  -0.922  -0.779  0.00  0.00    -0.073 S 
ATOM     10  C   UNL     1       2.680   0.129  -0.416  0.00  0.00    +0.116 A 
ATOM     11  N   UNL     1       2.512   1.444  -0.294  0.00  0.00    -0.229 NA
ATOM     12  C   UNL     1       3.451  -3.974  -0.855  0.00  0.00    +0.043 C 
ATOM     13  C   UNL     1       2.034  -4.560  -1.038  0.00  0.00    +0.010 C 
ATOM     14  C   UNL     1       1.164  -3.506  -0.326  0.00  0.00    +0.037 C 
ENDROOT
BRANCH   1  15
ATOM     15  C   UNL     1       1.185   3.439   0.118  0.00  0.00    -0.003 C 
BRANCH  15  17
ATOM     16  C   UNL     1       2.923   3.900  -1.503  0.00  0.00    -0.095 C 
ATOM     17  N   UNL     1       2.502   4.074  -0.097  0.00  0.00    +0.385 N 
ATOM     18  H   UNL     1       3.193   3.625   0.516  0.00  0.00    -0.081 HD
BRANCH  17  19
ATOM     19  C   UNL     1       2.430   5.512   0.235  0.00  0.00    -0.043 C 
BRANCH  19  24
ATOM     20  C   UNL     1       7.804   7.575   0.741  0.00  0.00    +0.044 C 
ATOM     21  C   UNL     1       6.403   7.037   0.609  0.00  0.00    -0.050 A 
ATOM     22  C   UNL     1       5.640   7.359  -0.499  0.00  0.00    +0.003 A 
ATOM     23  C   UNL     1       4.355   6.865  -0.620  0.00  0.00    +0.002 A 
ATOM     24  C   UNL     1       3.832   6.050   0.367  0.00  0.00    -0.061 A 
ATOM     25  C   UNL     1       4.592   5.733   1.476  0.00  0.00    -0.049 A 
ATOM     26  C   UNL     1       5.880   6.222   1.595  0.00  0.00    +0.007 A 
ATOM     27  C   UNL     1       4.019   4.849   2.554  0.00  0.00    +0.044 C 
ENDBRANCH  19  24
ENDBRANCH  17  19
ENDBRANCH  15  17
ENDBRANCH   1  15
TORSDOF 4
