REMARK  Name = ZINC40065639
REMARK  11 active torsions:
REMARK  status: ('A' for Active; 'I' for Inactive)
REMARK    1  A    between atoms: C_1  and  C_2
REMARK    2  A    between atoms: C_12  and  C_13
REMARK    3  A    between atoms: N_16  and  C_31
REMARK    4  A    between atoms: C_17  and  C_19
REMARK    5  A    between atoms: C_23  and  O_25
REMARK    6  A    between atoms: O_25  and  C_26
REMARK    7  A    between atoms: C_26  and  C_27
REMARK    8  A    between atoms: C_27  and  C_28
REMARK    9  A    between atoms: C_28  and  C_29
REMARK   10  A    between atoms: C_28  and  C_30
REMARK   11  A    between atoms: C_31  and  C_32
REMARK                            x       y       z     vdW  Elec       q    Type
REMARK                         _______ _______ _______ _____ _____    ______ ____
ROOT
ATOM      1  C   UNL     1       0.090   1.869   0.939  0.00  0.00    +0.044 C 
ATOM      2  C   UNL     1       0.130   0.371   0.784  0.00  0.00    -0.044 A 
ATOM      3  C   UNL     1       0.224  -0.184  -0.484  0.00  0.00    +0.004 A 
ATOM      4  C   UNL     1       0.258  -1.542  -0.640  0.00  0.00    +0.015 A 
ATOM      5  C   UNL     1       0.198  -2.369   0.481  0.00  0.00    +0.065 A 
ATOM      6  C   UNL     1       0.221  -3.846   0.329  0.00  0.00    +0.199 A 
ATOM      7  O   UNL     1       0.461  -4.404  -0.727  0.00  0.00    -0.287 OA
ATOM      8  C   UNL     1      -0.073  -4.568   1.571  0.00  0.00    +0.072 A 
ATOM      9  C   UNL     1      -0.142  -3.913   2.768  0.00  0.00    +0.199 A 
ATOM     10  O   UNL     1       0.061  -2.586   2.883  0.00  0.00    -0.449 OA
ATOM     11  C   UNL     1       0.109  -1.818   1.770  0.00  0.00    +0.143 A 
ATOM     12  C   UNL     1       0.078  -0.430   1.903  0.00  0.00    -0.005 A 
ATOM     13  C   UNL     1      -0.018   0.194   3.271  0.00  0.00    +0.048 C 
ATOM     14  C   UNL     1      -0.458  -4.898   3.817  0.00  0.00    +0.283 C 
ATOM     15  O   UNL     1      -0.593  -4.640   4.997  0.00  0.00    -0.267 OA
ATOM     16  N   UNL     1      -0.577  -6.128   3.277  0.00  0.00    -0.281 N 
ATOM     17  C   UNL     1      -0.343  -6.014   1.828  0.00  0.00    +0.145 C 
ENDROOT
BRANCH  17  18
ATOM     18  C   UNL     1      -1.566  -6.458   1.067  0.00  0.00    -0.019 A 
ATOM     19  C   UNL     1      -2.823  -6.069   1.492  0.00  0.00    +0.006 A 
ATOM     20  C   UNL     1      -3.947  -6.474   0.797  0.00  0.00    +0.004 A 
ATOM     21  C   UNL     1      -3.817  -7.271  -0.325  0.00  0.00    +0.045 A 
ATOM     22  C   UNL     1      -2.557  -7.663  -0.753  0.00  0.00    +0.121 A 
ATOM     23  C   UNL     1      -1.430  -7.250  -0.057  0.00  0.00    +0.051 A 
BRANCH  22  24
ATOM     24  O   UNL     1      -2.426  -8.446  -1.856  0.00  0.00    -0.492 OA
BRANCH  24  25
ATOM     25  C   UNL     1      -3.629  -8.829  -2.526  0.00  0.00    +0.229 C 
BRANCH  25  26
ATOM     26  C   UNL     1      -3.284  -9.702  -3.734  0.00  0.00    +0.044 C 
BRANCH  26  27
ATOM     27  C   UNL     1      -4.571 -10.111  -4.452  0.00  0.00    -0.014 C 
ATOM     28  C   UNL     1      -4.222 -10.879  -5.729  0.00  0.00    +0.007 C 
ATOM     29  C   UNL     1      -5.406 -11.005  -3.532  0.00  0.00    +0.007 C 
ENDBRANCH  26  27
ENDBRANCH  25  26
ENDBRANCH  24  25
ENDBRANCH  22  24
ENDBRANCH  17  18
BRANCH  16  30
ATOM     30  C   UNL     1      -0.884  -7.362   4.005  0.00  0.00    +0.140 C 
BRANCH  30  31
ATOM     31  C   UNL     1       0.418  -8.086   4.354  0.00  0.00    +0.136 C 
ATOM     32  C   UNL     1       0.101  -9.431   5.042  0.00  0.00    +0.035 C 
ATOM     33  C   UNL     1       1.198  -9.506   6.139  0.00  0.00    +0.031 C 
ATOM     34  C   UNL     1       1.345  -8.009   6.511  0.00  0.00    +0.160 C 
ATOM     35  O   UNL     1       1.182  -7.296   5.273  0.00  0.00    -0.375 OA
ENDBRANCH  30  31
ENDBRANCH  16  30
TORSDOF 7
