REMARK  Name = ZINC21321176
REMARK  7 active torsions:
REMARK  status: ('A' for Active; 'I' for Inactive)
REMARK    1  A    between atoms: C_1  and  C_2
REMARK    2  A    between atoms: C_5  and  C_7
REMARK    3  A    between atoms: N_8  and  N_9
REMARK    4  A    between atoms: C_13  and  S_16
REMARK    5  A    between atoms: N_14  and  N_15
REMARK    6  A    between atoms: S_16  and  C_17
REMARK    7  A    between atoms: C_17  and  C_18
REMARK                            x       y       z     vdW  Elec       q    Type
REMARK                         _______ _______ _______ _____ _____    ______ ____
ROOT
ATOM      1  N   UNL     1      -0.011   0.966   0.007  0.00  0.00    -0.204 N 
ATOM      2  C   UNL     1       1.180   1.676  -0.000  0.00  0.00    +0.254 A 
ATOM      3  N   UNL     1       1.300   2.981   0.000  0.00  0.00    -0.109 NA
ATOM      4  N   UNL     1       2.666   3.291  -0.006  0.00  0.00    -0.119 NA
ATOM      5  C   UNL     1       3.337   2.164  -0.018  0.00  0.00    +0.210 A 
ATOM      6  N   UNL     1       2.437   1.137  -0.015  0.00  0.00    -0.211 N 
ATOM      7  H   UNL     1       0.004  -0.134   0.006  0.00  0.00    +0.177 HD
ENDROOT
BRANCH   6   8
ATOM      8  N   UNL     1       2.739  -0.196  -0.026  0.00  0.00    -0.294 N 
ATOM      9  H   UNL     1       3.790  -0.521  -0.037  0.00  0.00    +0.163 HD
ATOM     10  H   UNL     1       1.932  -0.943  -0.022  0.00  0.00    +0.163 HD
ENDBRANCH   6   8
BRANCH   1  12
ATOM     11  C   UNL     1      -2.352   0.984   0.019  0.00  0.00    +0.176 C 
ATOM     12  N   UNL     1      -1.234   1.650   0.017  0.00  0.00    -0.184 NA
BRANCH  11  17
ATOM     13  C   UNL     1      -5.689   4.719   0.054  0.00  0.00    +0.086 C 
ATOM     14  C   UNL     1      -5.101   3.332   0.044  0.00  0.00    +0.103 A 
ATOM     15  C   UNL     1      -5.803   2.181   0.042  0.00  0.00    +0.045 A 
ATOM     16  C   UNL     1      -4.870   1.127   0.026  0.00  0.00    +0.051 A 
ATOM     17  C   UNL     1      -3.631   1.700   0.029  0.00  0.00    +0.148 A 
ATOM     18  O   UNL     1      -3.790   3.038   0.036  0.00  0.00    -0.459 OA
ENDBRANCH  11  17
ENDBRANCH   1  12
BRANCH   5  19
ATOM     19  S   UNL     1       5.092   2.004  -0.035  0.00  0.00    -0.080 S 
BRANCH  19  20
ATOM     20  C   UNL     1       5.689   3.716  -0.032  0.00  0.00    +0.112 C 
BRANCH  20  21
ATOM     21  C   UNL     1       7.196   3.723  -0.046  0.00  0.00    -0.036 A 
ATOM     22  C   UNL     1       7.876   3.732  -1.250  0.00  0.00    +0.004 A 
ATOM     23  C   UNL     1       9.258   3.739  -1.263  0.00  0.00    +0.001 A 
ATOM     24  C   UNL     1       9.961   3.736  -0.073  0.00  0.00    +0.015 A 
ATOM     25  C   UNL     1       9.281   3.727   1.132  0.00  0.00    +0.018 A 
ATOM     26  C   UNL     1       7.898   3.725   1.145  0.00  0.00    +0.019 A 
ATOM     27 BR   UNL     1      10.242   3.723   2.760  0.00  0.00    -0.050 Br
ENDBRANCH  20  21
ENDBRANCH  19  20
ENDBRANCH   5  19
TORSDOF 6
