REMARK  Name = ZINC25070945
REMARK  12 active torsions:
REMARK  status: ('A' for Active; 'I' for Inactive)
REMARK    1  A    between atoms: C_1  and  C_2
REMARK    2  A    between atoms: C_2  and  O_3
REMARK    3  A    between atoms: O_3  and  C_4
REMARK    4  A    between atoms: C_6  and  C_11
REMARK    5  A    between atoms: C_9  and  O_10
REMARK    6  A    between atoms: C_13  and  C_28
REMARK    7  A    between atoms: C_14  and  C_27
REMARK    8  A    between atoms: N_15  and  C_19
REMARK    9  A    between atoms: C_21  and  C_26
REMARK   10  A    between atoms: C_23  and  C_25
REMARK   11  A    between atoms: N_30  and  C_31
REMARK   12  A    between atoms: N_30  and  C_32
REMARK                            x       y       z     vdW  Elec       q    Type
REMARK                         _______ _______ _______ _____ _____    ______ ____
ROOT
ATOM      1  C   UNL     1      -0.486  -0.332  -0.385  0.00  0.00    +0.139 C 
ATOM      2  C   UNL     1      -0.231  -0.194   1.102  0.00  0.00    +0.056 C 
ATOM      3  C   UNL     1       0.912  -0.717   1.595  0.00  0.00    +0.025 C 
ATOM      4  N   UNL     1       1.808  -1.349   0.779  0.00  0.00    -0.255 N 
ATOM      5  C   UNL     1       1.633  -1.499  -0.540  0.00  0.00    +0.142 C 
ATOM      6  S   UNL     1       2.835  -2.313  -1.448  0.00  0.00    -0.018 S 
ATOM      7  N   UNL     1       0.542  -1.030  -1.177  0.00  0.00    -0.315 N 
ATOM      8  C   UNL     1       1.204  -0.601   3.069  0.00  0.00    +0.062 C 
ATOM      9  H   UNL     1       0.408  -1.158  -2.261  0.00  0.00    +0.149 HD
ENDROOT
BRANCH   4  10
ATOM     10  C   UNL     1       2.974  -1.869   1.355  0.00  0.00    +0.041 A 
ATOM     11  C   UNL     1       4.203  -1.280   1.088  0.00  0.00    +0.027 A 
ATOM     12  C   UNL     1       5.351  -1.792   1.663  0.00  0.00    -0.048 A 
ATOM     13  C   UNL     1       5.278  -2.895   2.492  0.00  0.00    +0.006 A 
ATOM     14  C   UNL     1       4.056  -3.487   2.755  0.00  0.00    -0.048 A 
ATOM     15  C   UNL     1       2.904  -2.977   2.189  0.00  0.00    +0.027 A 
ATOM     16  C   UNL     1       3.980  -4.689   3.661  0.00  0.00    +0.044 C 
ATOM     17  C   UNL     1       6.684  -1.150   1.379  0.00  0.00    +0.044 C 
ENDBRANCH   4  10
BRANCH   1  20
ATOM     18  C   UNL     1      -2.066   2.776  -1.839  0.00  0.00    +0.162 A 
ATOM     19  C   UNL     1      -1.910   1.503  -1.316  0.00  0.00    +0.055 A 
ATOM     20  C   UNL     1      -0.653   1.052  -0.958  0.00  0.00    -0.019 A 
ATOM     21  C   UNL     1       0.452   1.865  -1.129  0.00  0.00    +0.009 A 
ATOM     22  C   UNL     1       0.303   3.135  -1.655  0.00  0.00    +0.049 A 
ATOM     23  C   UNL     1      -0.954   3.595  -2.012  0.00  0.00    +0.158 A 
BRANCH  23  24
ATOM     24  O   UNL     1      -1.101   4.844  -2.530  0.00  0.00    -0.503 OA
ATOM     25  H   UNL     1      -0.222   5.490  -2.666  0.00  0.00    +0.292 HD
ENDBRANCH  23  24
BRANCH  18  26
ATOM     26  O   UNL     1      -3.302   3.223  -2.187  0.00  0.00    -0.489 OA
BRANCH  26  28
ATOM     27  C   UNL     1      -5.694   2.989  -2.439  0.00  0.00    +0.048 C 
ATOM     28  C   UNL     1      -4.409   2.371  -1.887  0.00  0.00    +0.226 C 
ENDBRANCH  26  28
ENDBRANCH  18  26
ENDBRANCH   1  20
BRANCH   2  29
ATOM     29  C   UNL     1      -1.161   0.461   1.947  0.00  0.00    +0.246 C 
ATOM     30  O   UNL     1      -1.167   1.676   2.019  0.00  0.00    -0.270 OA
ATOM     31  N   UNL     1      -2.039  -0.262   2.671  0.00  0.00    -0.304 N 
ATOM     32  C   UNL     1      -3.067   0.416   3.464  0.00  0.00    +0.132 C 
ATOM     33  C   UNL     1      -1.965  -1.725   2.664  0.00  0.00    +0.132 C 
ENDBRANCH   2  29
TORSDOF 6
