REMARK  Name = ZINC45579873
REMARK  9 active torsions:
REMARK  status: ('A' for Active; 'I' for Inactive)
REMARK    1  A    between atoms: C_1  and  C_2
REMARK    2  A    between atoms: N_8  and  S_9
REMARK    3  A    between atoms: S_9  and  C_12
REMARK    4  A    between atoms: C_15  and  C_18
REMARK    5  A    between atoms: N_20  and  N_21
REMARK    6  A    between atoms: C_24  and  C_28
REMARK    7  A    between atoms: C_24  and  C_29
REMARK    8  A    between atoms: C_29  and  C_30
REMARK    9  A    between atoms: C_30  and  C_31
REMARK                            x       y       z     vdW  Elec       q    Type
REMARK                         _______ _______ _______ _____ _____    ______ ____
ROOT
ATOM      1  C   UNL     1      -2.456   0.608   6.849  0.00  0.00    +0.261 C 
ATOM      2  O   UNL     1      -3.380   1.397   6.858  0.00  0.00    -0.269 OA
ATOM      3  N   UNL     1      -2.299  -0.257   7.871  0.00  0.00    -0.220 N 
ATOM      4  H   UNL     1      -1.562  -0.888   7.864  0.00  0.00    +0.174 HD
ENDROOT
BRANCH   3   5
ATOM      5  N   UNL     1      -3.201  -0.246   8.943  0.00  0.00    -0.137 N 
ATOM      6  C   UNL     1      -2.927   0.267  10.158  0.00  0.00    +0.263 C 
ATOM      7  O   UNL     1      -1.892   0.786  10.517  0.00  0.00    -0.271 OA
ATOM      8  C   UNL     1      -4.181   0.060  10.983  0.00  0.00    +0.112 C 
ATOM      9  N   UNL     1      -5.104  -0.608  10.049  0.00  0.00    -0.284 N 
ATOM     10  C   UNL     1      -4.444  -0.739   8.884  0.00  0.00    +0.326 C 
ATOM     11  O   UNL     1      -4.922  -1.250   7.891  0.00  0.00    -0.251 OA
ATOM     12  C   UNL     1      -3.892  -0.837  12.188  0.00  0.00    +0.041 C 
ATOM     13  H   UNL     1      -6.011  -0.895  10.237  0.00  0.00    +0.151 HD
BRANCH   8  14
ATOM     14  C   UNL     1      -4.755   1.404  11.437  0.00  0.00    +0.040 C 
BRANCH  14  15
ATOM     15  C   UNL     1      -6.018   1.166  12.266  0.00  0.00    +0.038 C 
BRANCH  15  16
ATOM     16  C   UNL     1      -6.583   2.490  12.713  0.00  0.00    -0.047 A 
ATOM     17  C   UNL     1      -6.175   3.047  13.910  0.00  0.00    +0.003 A 
ATOM     18  C   UNL     1      -6.693   4.261  14.320  0.00  0.00    +0.000 A 
ATOM     19  C   UNL     1      -7.619   4.919  13.532  0.00  0.00    +0.000 A 
ATOM     20  C   UNL     1      -8.027   4.362  12.334  0.00  0.00    +0.000 A 
ATOM     21  C   UNL     1      -7.505   3.150  11.923  0.00  0.00    +0.003 A 
ENDBRANCH  15  16
ENDBRANCH  14  15
ENDBRANCH   8  14
ENDBRANCH   3   5
BRANCH   1  25
ATOM     22  C   UNL     1       0.280   0.575   3.600  0.00  0.00    +0.106 A 
ATOM     23  C   UNL     1      -0.771   1.475   3.607  0.00  0.00    +0.029 A 
ATOM     24  C   UNL     1      -1.663   1.490   4.659  0.00  0.00    +0.015 A 
ATOM     25  C   UNL     1      -1.504   0.596   5.718  0.00  0.00    +0.038 A 
ATOM     26  C   UNL     1      -0.441  -0.309   5.706  0.00  0.00    +0.015 A 
ATOM     27  C   UNL     1       0.441  -0.318   4.645  0.00  0.00    +0.029 A 
BRANCH  22  28
ATOM     28  S   UNL     1       1.415   0.561   2.252  0.00  0.00    +0.061 S 
ATOM     29  O   UNL     1       2.621  -0.009   2.743  0.00  0.00    -0.153 OA
ATOM     30  O   UNL     1       1.367   1.855   1.668  0.00  0.00    -0.153 OA
BRANCH  28  37
ATOM     31  C   UNL     1      -0.403   1.457   0.277  0.00  0.00    +0.026 C 
ATOM     32  C   UNL     1      -0.189  -0.052   0.147  0.00  0.00    +0.077 C 
ATOM     33  C   UNL     1       0.308  -0.381  -1.264  0.00  0.00    +0.020 C 
ATOM     34  C   UNL     1       0.653  -1.870  -1.345  0.00  0.00    +0.003 C 
ATOM     35  C   UNL     1       1.772  -2.191  -0.351  0.00  0.00    +0.017 C 
ATOM     36  C   UNL     1       1.291  -1.883   1.070  0.00  0.00    +0.110 C 
ATOM     37  N   UNL     1       0.819  -0.492   1.122  0.00  0.00    -0.174 NA
ENDBRANCH  28  37
ENDBRANCH  22  28
ENDBRANCH   1  25
TORSDOF 7
