REMARK  Name = ZINC38557408
REMARK  9 active torsions:
REMARK  status: ('A' for Active; 'I' for Inactive)
REMARK    1  A    between atoms: C_1  and  C_2
REMARK    2  A    between atoms: C_2  and  C_3
REMARK    3  A    between atoms: N_5  and  C_6
REMARK    4  A    between atoms: C_6  and  C_7
REMARK    5  A    between atoms: C_7  and  C_8
REMARK    6  A    between atoms: C_16  and  C_18
REMARK    7  A    between atoms: N_25  and  C_28
REMARK    8  A    between atoms: C_31  and  C_35
REMARK    9  A    between atoms: C_33  and  C_34
REMARK                            x       y       z     vdW  Elec       q    Type
REMARK                         _______ _______ _______ _____ _____    ______ ____
ROOT
ATOM      1  C   UNL     1       2.008  -4.533   3.810  0.00  0.00    -0.033 C 
ATOM      2  C   UNL     1       2.531  -3.567   4.599  0.00  0.00    -0.000 A 
ATOM      3  C   UNL     1       2.332  -2.114   4.655  0.00  0.00    +0.010 A 
ATOM      4  C   UNL     1       3.014  -1.394   5.575  0.00  0.00    +0.001 A 
ATOM      5  C   UNL     1       3.904  -1.999   6.473  0.00  0.00    +0.002 A 
ATOM      6  C   UNL     1       4.139  -3.328   6.482  0.00  0.00    +0.026 A 
ATOM      7  C   UNL     1       3.476  -4.182   5.558  0.00  0.00    +0.043 A 
ATOM      8  N   UNL     1       3.535  -5.478   5.370  0.00  0.00    -0.374 N 
ATOM      9  C   UNL     1       2.628  -5.833   4.273  0.00  0.00    +0.130 C 
ATOM     10  H   UNL     1       4.083  -6.099   5.875  0.00  0.00    +0.161 HD
ENDROOT
BRANCH   9  11
ATOM     11  C   UNL     1       3.403  -6.469   3.148  0.00  0.00    +0.020 C 
ATOM     12  C   UNL     1       2.950  -7.606   2.574  0.00  0.00    +0.100 C 
ATOM     13  C   UNL     1       3.776  -8.370   1.612  0.00  0.00    +0.274 C 
ATOM     14  O   UNL     1       5.014  -7.950   1.278  0.00  0.00    -0.268 OA
ATOM     15  N   UNL     1       3.272  -9.470   1.090  0.00  0.00    -0.153 NA
ATOM     16  C   UNL     1       2.054  -9.910   1.400  0.00  0.00    +0.171 C 
ATOM     17  S   UNL     1       1.504 -11.352   0.659  0.00  0.00    -0.016 S 
ATOM     18  N   UNL     1       1.232  -9.289   2.259  0.00  0.00    -0.216 N 
ATOM     19  C   UNL     1       1.605  -8.150   2.882  0.00  0.00    +0.261 C 
ATOM     20  O   UNL     1       0.864  -7.589   3.666  0.00  0.00    -0.269 OA
BRANCH  18  21
ATOM     21  C   UNL     1      -0.032  -9.834   2.519  0.00  0.00    +0.046 A 
ATOM     22  C   UNL     1      -0.199 -10.741   3.557  0.00  0.00    +0.024 A 
ATOM     23  C   UNL     1      -1.446 -11.276   3.811  0.00  0.00    +0.005 A 
ATOM     24  C   UNL     1      -2.529 -10.909   3.032  0.00  0.00    -0.050 A 
ATOM     25  C   UNL     1      -2.366 -10.007   1.998  0.00  0.00    +0.008 A 
ATOM     26  C   UNL     1      -1.122  -9.463   1.743  0.00  0.00    -0.028 A 
ATOM     27  C   UNL     1      -0.946  -8.475   0.619  0.00  0.00    +0.046 C 
ATOM     28  C   UNL     1      -3.889 -11.495   3.312  0.00  0.00    +0.044 C 
ENDBRANCH  18  21
ENDBRANCH   9  11
BRANCH   1  29
ATOM     29  C   UNL     1       1.005  -4.353   2.700  0.00  0.00    +0.052 C 
BRANCH  29  30
ATOM     30  C   UNL     1       0.648  -2.871   2.571  0.00  0.00    +0.108 C 
BRANCH  30  33
ATOM     31  C   UNL     1      -0.790  -1.464   1.196  0.00  0.00    +0.213 C 
ATOM     32  O   UNL     1      -0.399  -0.502   1.822  0.00  0.00    -0.276 OA
ATOM     33  N   UNL     1      -0.327  -2.695   1.492  0.00  0.00    -0.315 N 
ATOM     34  H   UNL     1      -0.639  -3.465   0.991  0.00  0.00    +0.149 HD
BRANCH  31  36
ATOM     35  C   UNL     1      -2.150   0.198  -0.043  0.00  0.00    +0.013 C 
ATOM     36  C   UNL     1      -1.792  -1.284   0.085  0.00  0.00    +0.092 C 
ENDBRANCH  31  36
ENDBRANCH  30  33
ENDBRANCH  29  30
ENDBRANCH   1  29
TORSDOF 6
