REMARK  Name = ZINC40530089
REMARK  16 active torsions:
REMARK  status: ('A' for Active; 'I' for Inactive)
REMARK    1  A    between atoms: C_1  and  C_2
REMARK    2  A    between atoms: C_2  and  C_3
REMARK    3  A    between atoms: C_3  and  C_4
REMARK    4  A    between atoms: C_4  and  C_5
REMARK    5  A    between atoms: C_5  and  O_6
REMARK    6  A    between atoms: O_6  and  C_7
REMARK    7  A    between atoms: C_11  and  C_13
REMARK    8  A    between atoms: C_18  and  O_27
REMARK    9  A    between atoms: C_22  and  N_26
REMARK   10  A    between atoms: C_23  and  C_24
REMARK   11  A    between atoms: O_27  and  C_28
REMARK   12  A    between atoms: C_28  and  C_30
REMARK   13  A    between atoms: C_34  and  O_36
REMARK   14  A    between atoms: O_36  and  C_37
REMARK   15  A    between atoms: C_37  and  C_38
REMARK   16  A    between atoms: C_38  and  C_39
REMARK                            x       y       z     vdW  Elec       q    Type
REMARK                         _______ _______ _______ _____ _____    ______ ____
ROOT
ATOM      1  C   UNL     1       2.903  -8.119   4.611  0.00  0.00    +0.098 C 
ATOM      2  C   UNL     1       4.346  -8.549   4.629  0.00  0.00    +0.008 A 
ATOM      3  C   UNL     1       5.051  -8.616   3.440  0.00  0.00    +0.012 A 
ATOM      4  C   UNL     1       6.375  -9.009   3.438  0.00  0.00    +0.047 A 
ATOM      5  C   UNL     1       7.004  -9.337   4.631  0.00  0.00    +0.135 A 
ATOM      6  C   UNL     1       6.301  -9.270   5.823  0.00  0.00    +0.093 A 
ATOM      7  C   UNL     1       4.969  -8.875   5.824  0.00  0.00    +0.138 A 
ATOM      8  O   UNL     1       4.295  -8.815   6.999  0.00  0.00    -0.441 OA
ATOM      9  C   UNL     1       2.951  -8.820   7.001  0.00  0.00    +0.199 C 
ATOM     10  C   UNL     1       2.235  -8.499   5.902  0.00  0.00    +0.098 C 
ENDROOT
BRANCH   1  15
ATOM     11  C   UNL     1       2.113  -4.716   3.172  0.00  0.00    +0.121 A 
ATOM     12  C   UNL     1       2.699  -3.878   4.110  0.00  0.00    +0.045 A 
ATOM     13  C   UNL     1       3.347  -4.416   5.205  0.00  0.00    +0.004 A 
ATOM     14  C   UNL     1       3.413  -5.788   5.366  0.00  0.00    +0.005 A 
ATOM     15  C   UNL     1       2.830  -6.624   4.432  0.00  0.00    -0.031 A 
ATOM     16  C   UNL     1       2.175  -6.091   3.338  0.00  0.00    +0.050 A 
BRANCH  11  17
ATOM     17  O   UNL     1       1.474  -4.189   2.094  0.00  0.00    -0.492 OA
BRANCH  17  18
ATOM     18  C   UNL     1       1.450  -2.764   1.987  0.00  0.00    +0.229 C 
BRANCH  18  19
ATOM     19  C   UNL     1       0.692  -2.361   0.720  0.00  0.00    +0.041 C 
BRANCH  19  20
ATOM     20  C   UNL     1       0.666  -0.836   0.605  0.00  0.00    +0.003 C 
BRANCH  20  22
ATOM     21  C   UNL     1      -0.118   1.093  -0.777  0.00  0.00    +0.004 C 
ATOM     22  C   UNL     1      -0.091  -0.432  -0.662  0.00  0.00    -0.003 C 
ENDBRANCH  20  22
ENDBRANCH  19  20
ENDBRANCH  18  19
ENDBRANCH  17  18
ENDBRANCH  11  17
ENDBRANCH   1  15
BRANCH   9  23
ATOM     23  N   UNL     1       2.289  -9.161   8.154  0.00  0.00    -0.328 N 
ATOM     24  H   UNL     1       2.791  -9.394   8.951  0.00  0.00    +0.145 HD
ATOM     25  H   UNL     1       1.319  -9.170   8.172  0.00  0.00    +0.145 HD
ENDBRANCH   9  23
BRANCH  10  26
ATOM     26  C   UNL     1       0.805  -8.523   5.971  0.00  0.00    +0.101 C 
ATOM     27  N   UNL     1      -0.330  -8.542   6.026  0.00  0.00    -0.191 NA
ENDBRANCH  10  26
BRANCH   5  28
ATOM     28  O   UNL     1       8.306  -9.725   4.630  0.00  0.00    -0.422 OA
BRANCH  28  29
ATOM     29  C   UNL     1       9.241  -8.800   4.338  0.00  0.00    +0.345 C 
ATOM     30  O   UNL     1       8.920  -7.638   4.188  0.00  0.00    -0.245 OA
BRANCH  29  31
ATOM     31  C   UNL     1      10.657  -9.198   4.199  0.00  0.00    +0.063 A 
ATOM     32  C   UNL     1      11.028 -10.534   4.365  0.00  0.00    +0.015 A 
ATOM     33  C   UNL     1      12.351 -10.903   4.235  0.00  0.00    +0.004 A 
ATOM     34  C   UNL     1      13.312  -9.953   3.941  0.00  0.00    +0.046 A 
ATOM     35  C   UNL     1      12.953  -8.623   3.774  0.00  0.00    +0.121 A 
ATOM     36  C   UNL     1      11.627  -8.242   3.896  0.00  0.00    +0.060 A 
BRANCH  35  37
ATOM     37  O   UNL     1      13.902  -7.694   3.485  0.00  0.00    -0.492 OA
BRANCH  37  38
ATOM     38  C   UNL     1      15.249  -8.158   3.367  0.00  0.00    +0.229 C 
BRANCH  38  39
ATOM     39  C   UNL     1      16.167  -6.978   3.041  0.00  0.00    +0.038 C 
ATOM     40  C   UNL     1      17.609  -7.474   2.915  0.00  0.00    +0.007 C 
ENDBRANCH  38  39
ENDBRANCH  37  38
ENDBRANCH  35  37
ENDBRANCH  29  31
ENDBRANCH  28  29
ENDBRANCH   5  28
TORSDOF 14
