REMARK  Name = ZINC00688195
REMARK  4 active torsions:
REMARK  status: ('A' for Active; 'I' for Inactive)
REMARK    1  A    between atoms: C_3  and  N_21
REMARK    2  A    between atoms: C_6  and  N_7
REMARK    3  A    between atoms: C_11  and  N_67
REMARK    4  A    between atoms: C_25  and  N_69
REMARK                            x       y       z     vdW  Elec       q    Type
REMARK                         _______ _______ _______ _____ _____    ______ ____
ROOT
ATOM      1  C   UNL     1       2.929   2.198   0.105  0.00  0.00    +0.026 A 
ATOM      2  C   UNL     1       4.223   1.934   0.509  0.00  0.00    +0.026 A 
ATOM      3  C   UNL     1       4.543   0.693   1.043  0.00  0.00    +0.044 A 
ATOM      4  C   UNL     1       3.562  -0.280   1.176  0.00  0.00    +0.026 A 
ATOM      5  C   UNL     1       2.268  -0.015   0.776  0.00  0.00    +0.026 A 
ATOM      6  C   UNL     1       1.947   1.226   0.242  0.00  0.00    +0.044 A 
ENDROOT
BRANCH   6   7
ATOM      7  N   UNL     1       0.632   1.496  -0.164  0.00  0.00    -0.212 N 
ATOM      8  C   UNL     1      -0.387   1.593   0.698  0.00  0.00    +0.225 C 
ATOM      9  O   UNL     1      -0.304   1.464   1.901  0.00  0.00    -0.275 OA
ATOM     10  C   UNL     1      -1.661   1.883  -0.066  0.00  0.00    +0.090 C 
ATOM     11  C   UNL     1      -1.194   1.947  -1.535  0.00  0.00    +0.029 C 
ATOM     12  C   UNL     1       0.293   1.677  -1.446  0.00  0.00    +0.213 C 
ATOM     13  O   UNL     1       1.055   1.632  -2.388  0.00  0.00    -0.277 OA
BRANCH  11  20
ATOM     14  C   UNL     1      -1.258   0.808  -3.681  0.00  0.00    -0.078 C 
ATOM     15  C   UNL     1      -2.071  -0.039  -4.621  0.00  0.00    -0.019 C 
ATOM     16  C   UNL     1      -3.016   0.884  -5.419  0.00  0.00    -0.002 C 
ATOM     17  C   UNL     1      -4.183   1.282  -4.640  0.00  0.00    -0.002 C 
ATOM     18  C   UNL     1      -3.797   2.073  -3.373  0.00  0.00    -0.019 C 
ATOM     19  C   UNL     1      -3.329   1.098  -2.327  0.00  0.00    -0.078 C 
ATOM     20  N   UNL     1      -1.844   0.870  -2.298  0.00  0.00    +0.388 N 
ATOM     21  H   UNL     1      -1.663  -0.025  -1.829  0.00  0.00    -0.081 HD
ENDBRANCH  11  20
ENDBRANCH   6   7
BRANCH   3  22
ATOM     22  N   UNL     1       5.859   0.423   1.450  0.00  0.00    -0.212 N 
ATOM     23  C   UNL     1       6.437   1.040   2.487  0.00  0.00    +0.225 C 
ATOM     24  O   UNL     1       5.914   1.883   3.184  0.00  0.00    -0.275 OA
ATOM     25  C   UNL     1       7.848   0.519   2.653  0.00  0.00    +0.090 C 
ATOM     26  C   UNL     1       7.986  -0.517   1.519  0.00  0.00    +0.029 C 
ATOM     27  C   UNL     1       6.637  -0.476   0.836  0.00  0.00    +0.213 C 
ATOM     28  O   UNL     1       6.312  -1.150  -0.119  0.00  0.00    -0.277 OA
BRANCH  26  35
ATOM     29  C   UNL     1       9.008  -0.943  -0.645  0.00  0.00    -0.078 C 
ATOM     30  C   UNL     1      10.233  -0.775  -1.502  0.00  0.00    -0.019 C 
ATOM     31  C   UNL     1      11.240  -1.887  -1.140  0.00  0.00    -0.002 C 
ATOM     32  C   UNL     1      11.964  -1.596   0.092  0.00  0.00    -0.002 C 
ATOM     33  C   UNL     1      11.021  -1.473   1.307  0.00  0.00    -0.019 C 
ATOM     34  C   UNL     1      10.370  -0.117   1.271  0.00  0.00    -0.078 C 
ATOM     35  N   UNL     1       9.034  -0.078   0.584  0.00  0.00    +0.388 N 
ATOM     36  H   UNL     1       8.843   0.891   0.303  0.00  0.00    -0.081 HD
ENDBRANCH  26  35
ENDBRANCH   3  22
TORSDOF 4
