REMARK  Name = ZINC00062034
REMARK  2 active torsions:
REMARK  status: ('A' for Active; 'I' for Inactive)
REMARK    1  A    between atoms: N_12  and  C_13
REMARK    2  A    between atoms: C_17  and  N_19
REMARK                            x       y       z     vdW  Elec       q    Type
REMARK                         _______ _______ _______ _____ _____    ______ ____
ROOT
ATOM      1  C   UNL     1      -0.038   1.112   0.041  0.00  0.00    +0.001 A 
ATOM      2  C   UNL     1      -1.236   1.780   0.223  0.00  0.00    +0.002 A 
ATOM      3  C   UNL     1      -1.232   3.158   0.383  0.00  0.00    +0.030 A 
ATOM      4  C   UNL     1      -0.049   3.838   0.349  0.00  0.00    +0.123 A 
ATOM      5  C   UNL     1       1.180   3.190   0.160  0.00  0.00    +0.043 A 
ATOM      6  C   UNL     1       1.157   1.795   0.005  0.00  0.00    +0.013 A 
ATOM      7  C   UNL     1       2.309   4.132   0.160  0.00  0.00    +0.154 C 
ATOM      8  N   UNL     1       2.079   5.396   0.324  0.00  0.00    -0.113 NA
ATOM      9  S   UNL     1       0.420   5.540   0.496  0.00  0.00    +0.101 S 
ATOM     10  O   UNL     1       0.158   5.947   1.832  0.00  0.00    -0.146 OA
ATOM     11  O   UNL     1      -0.075   6.227  -0.644  0.00  0.00    -0.146 OA
ATOM     12  N   UNL     1       3.599   3.675  -0.012  0.00  0.00    -0.298 N 
ATOM     13  H   UNL     1       3.773   2.721  -0.057  0.00  0.00    +0.154 HD
ENDROOT
BRANCH  12  14
ATOM     14  C   UNL     1       4.654   4.585  -0.123  0.00  0.00    +0.035 A 
ATOM     15  C   UNL     1       5.912   4.254   0.365  0.00  0.00    +0.023 A 
ATOM     16  C   UNL     1       6.953   5.155   0.254  0.00  0.00    +0.004 A 
ATOM     17  C   UNL     1       6.743   6.385  -0.342  0.00  0.00    +0.033 A 
ATOM     18  C   UNL     1       5.493   6.717  -0.829  0.00  0.00    +0.128 A 
ATOM     19  C   UNL     1       4.449   5.819  -0.726  0.00  0.00    +0.056 A 
BRANCH  18  20
ATOM     20  N   UNL     1       5.274   8.035  -1.467  0.00  0.00    +0.056 N 
ATOM     21  O   UNL     1       6.195   8.826  -1.563  0.00  0.00    -0.126 OA
ATOM     22  O   UNL     1       4.172   8.328  -1.897  0.00  0.00    -0.126 OA
ENDBRANCH  18  20
ENDBRANCH  12  14
TORSDOF 2
