REMARK  Name = ZINC20139405
REMARK  11 active torsions:
REMARK  status: ('A' for Active; 'I' for Inactive)
REMARK    1  A    between atoms: C_1  and  C_2
REMARK    2  A    between atoms: C_2  and  C_3
REMARK    3  A    between atoms: C_2  and  C_4
REMARK    4  A    between atoms: C_2  and  N_5
REMARK    5  A    between atoms: C_6  and  C_10
REMARK    6  A    between atoms: C_10  and  C_12
REMARK    7  A    between atoms: C_10  and  N_21
REMARK    8  A    between atoms: C_15  and  N_18
REMARK    9  A    between atoms: N_18  and  C_19
REMARK   10  A    between atoms: N_18  and  C_20
REMARK   11  A    between atoms: N_24  and  C_27
REMARK                            x       y       z     vdW  Elec       q    Type
REMARK                         _______ _______ _______ _____ _____    ______ ____
ROOT
ATOM      1  C   UNL     1      -1.198  -0.566  -0.057  0.00  0.00    +0.157 C 
ENDROOT
BRANCH   1   2
ATOM      2  N   UNL     1      -0.981  -1.785  -0.847  0.00  0.00    -0.293 NA
ATOM      3  C   UNL     1      -0.472  -1.461  -2.187  0.00  0.00    +0.067 C 
ATOM      4  C   UNL     1      -0.185  -2.757  -2.948  0.00  0.00    -0.063 C 
ATOM      5  N   UNL     1      -1.417  -3.555  -3.035  0.00  0.00    +0.383 N 
ATOM      6  C   UNL     1      -1.926  -3.879  -1.695  0.00  0.00    -0.063 C 
ATOM      7  C   UNL     1      -2.213  -2.582  -0.933  0.00  0.00    +0.067 C 
ATOM      8  H   UNL     1      -2.178  -2.950  -3.550  0.00  0.00    -0.081 HD
BRANCH   5   9
ATOM      9  C   UNL     1      -1.200  -4.774  -3.825  0.00  0.00    -0.068 C 
ATOM     10  C   UNL     1      -0.091  -5.608  -3.181  0.00  0.00    -0.015 C 
ATOM     11  C   UNL     1       0.135  -6.878  -4.004  0.00  0.00    -0.002 C 
ATOM     12  C   UNL     1       0.544  -6.497  -5.429  0.00  0.00    -0.000 C 
ATOM     13  C   UNL     1      -0.566  -5.663  -6.072  0.00  0.00    -0.002 C 
ATOM     14  C   UNL     1      -0.791  -4.393  -5.249  0.00  0.00    -0.015 C 
ENDBRANCH   5   9
ENDBRANCH   1   2
BRANCH   1  15
ATOM     15  C   UNL     1      -1.629  -0.941   1.337  0.00  0.00    -0.023 A 
ATOM     16  C   UNL     1      -0.943  -1.920   2.032  0.00  0.00    +0.007 A 
ATOM     17  C   UNL     1      -1.332  -2.262   3.312  0.00  0.00    +0.023 A 
ATOM     18  C   UNL     1      -2.422  -1.629   3.897  0.00  0.00    +0.029 A 
ATOM     19  C   UNL     1      -3.112  -0.650   3.195  0.00  0.00    +0.023 A 
ATOM     20  C   UNL     1      -2.714  -0.309   1.917  0.00  0.00    +0.007 A 
BRANCH  18  21
ATOM     21  N   UNL     1      -2.822  -1.977   5.190  0.00  0.00    -0.336 N 
ATOM     22  C   UNL     1      -3.971  -1.309   5.805  0.00  0.00    +0.129 C 
ATOM     23  C   UNL     1      -2.092  -3.010   5.929  0.00  0.00    +0.129 C 
ENDBRANCH  18  21
ENDBRANCH   1  15
BRANCH   1  25
ATOM     24  N   UNL     1       0.252   1.514  -0.335  0.00  0.00    -0.222 N 
ATOM     25  C   UNL     1       0.084   0.224   0.009  0.00  0.00    +0.173 A 
ATOM     26  N   UNL     1       1.252  -0.212   0.413  0.00  0.00    -0.111 NA
ATOM     27  N   UNL     1       2.094   0.759   0.321  0.00  0.00    -0.023 NA
ATOM     28  N   UNL     1       1.492   1.804  -0.131  0.00  0.00    -0.043 NA
BRANCH  24  30
ATOM     29  C   UNL     1      -1.915   2.530   0.167  0.00  0.00    +0.036 C 
ATOM     30  C   UNL     1      -0.779   2.418  -0.852  0.00  0.00    +0.059 C 
ATOM     31  C   UNL     1      -0.171   3.801  -1.092  0.00  0.00    +0.036 C 
ATOM     32  C   UNL     1      -1.328   1.866  -2.169  0.00  0.00    +0.036 C 
ENDBRANCH  24  30
ENDBRANCH   1  25
TORSDOF 6
