REMARK  Name = ZINC39638036
REMARK  10 active torsions:
REMARK  status: ('A' for Active; 'I' for Inactive)
REMARK    1  A    between atoms: C_1  and  C_2
REMARK    2  A    between atoms: C_2  and  C_3
REMARK    3  A    between atoms: C_3  and  C_5
REMARK    4  A    between atoms: C_3  and  N_8
REMARK    5  A    between atoms: C_5  and  O_6
REMARK    6  A    between atoms: O_6  and  C_7
REMARK    7  A    between atoms: C_9  and  C_11
REMARK    8  A    between atoms: C_22  and  C_24
REMARK    9  A    between atoms: C_25  and  C_37
REMARK   10  A    between atoms: C_28  and  C_29
REMARK                            x       y       z     vdW  Elec       q    Type
REMARK                         _______ _______ _______ _____ _____    ______ ____
ROOT
ATOM      1  C   UNL     1       3.294   0.133  -0.779  0.00  0.00    +0.100 C 
ATOM      2  C   UNL     1       3.974   0.702   0.485  0.00  0.00    +0.121 C 
ATOM      3  N   UNL     1       4.630   1.950   0.029  0.00  0.00    -0.296 N 
ATOM      4  C   UNL     1       3.660   2.550  -0.919  0.00  0.00    +0.115 C 
ATOM      5  C   UNL     1       3.088   1.349  -1.698  0.00  0.00    -0.004 C 
ATOM      6  C   UNL     1       1.602   1.558  -1.973  0.00  0.00    -0.010 C 
ATOM      7  C   UNL     1       1.427   2.736  -2.936  0.00  0.00    -0.082 C 
ATOM      8  N   UNL     1       2.142   2.459  -4.187  0.00  0.00    +0.379 N 
ATOM      9  C   UNL     1       3.583   2.352  -3.927  0.00  0.00    -0.082 C 
ATOM     10  C   UNL     1       3.849   1.157  -3.006  0.00  0.00    -0.010 C 
ATOM     11  C   UNL     1       5.835   2.432   0.392  0.00  0.00    +0.252 C 
ATOM     12  O   UNL     1       6.237   3.480  -0.075  0.00  0.00    -0.270 OA
ATOM     13  H   UNL     1       1.807   1.592  -4.580  0.00  0.00    -0.086 HD
ATOM     14  H   UNL     1       1.975   3.208  -4.842  0.00  0.00    -0.086 HD
ENDROOT
BRANCH  11  15
ATOM     15  C   UNL     1       6.665   1.688   1.355  0.00  0.00    +0.106 A 
ATOM     16  C   UNL     1       7.675   0.821   1.059  0.00  0.00    +0.147 A 
ATOM     17  O   UNL     1       8.178   0.356   2.205  0.00  0.00    -0.359 OA
ATOM     18  N   UNL     1       7.482   0.931   3.293  0.00  0.00    -0.077 NA
ATOM     19  C   UNL     1       6.569   1.742   2.822  0.00  0.00    +0.128 A 
ATOM     20  C   UNL     1       8.143   0.450  -0.325  0.00  0.00    +0.090 C 
BRANCH  19  21
ATOM     21  C   UNL     1       5.617   2.557   3.615  0.00  0.00    +0.041 A 
ATOM     22  C   UNL     1       4.728   1.937   4.493  0.00  0.00    +0.052 A 
ATOM     23  C   UNL     1       3.843   2.702   5.229  0.00  0.00    +0.021 A 
ATOM     24  C   UNL     1       3.838   4.078   5.096  0.00  0.00    +0.003 A 
ATOM     25  C   UNL     1       4.717   4.699   4.227  0.00  0.00    +0.021 A 
ATOM     26  C   UNL     1       5.611   3.946   3.490  0.00  0.00    +0.052 A 
ATOM     27 CL   UNL     1       6.718   4.727   2.405  0.00  0.00    -0.083 Cl
ATOM     28 CL   UNL     1       4.732   0.209   4.660  0.00  0.00    -0.083 Cl
ENDBRANCH  19  21
ENDBRANCH  11  15
BRANCH   1  30
ATOM     29  N   UNL     1       1.478  -1.502  -1.169  0.00  0.00    -0.310 N 
ATOM     30  C   UNL     1       1.967  -0.488  -0.426  0.00  0.00    +0.218 C 
ATOM     31  O   UNL     1       1.339  -0.077   0.526  0.00  0.00    -0.275 OA
ATOM     32  H   UNL     1       1.981  -1.831  -1.931  0.00  0.00    +0.149 HD
BRANCH  29  33
ATOM     33  C   UNL     1       0.189  -2.106  -0.826  0.00  0.00    +0.098 C 
BRANCH  33  35
ATOM     34  C   UNL     1       0.895  -2.531   1.532  0.00  0.00    +0.006 C 
ATOM     35  C   UNL     1       0.397  -3.183   0.241  0.00  0.00    +0.021 C 
ENDBRANCH  33  35
BRANCH  33  36
ATOM     36  C   UNL     1      -0.427  -2.738  -2.076  0.00  0.00    +0.181 C 
BRANCH  36  37
ATOM     37  O   UNL     1       0.394  -3.823  -2.514  0.00  0.00    -0.381 OA
ATOM     38  C   UNL     1      -0.094  -4.486  -3.682  0.00  0.00    +0.194 C 
ENDBRANCH  36  37
ENDBRANCH  33  36
ENDBRANCH  29  33
ENDBRANCH   1  30
TORSDOF 7
