REMARK  Name = ZINC36849893
REMARK  11 active torsions:
REMARK  status: ('A' for Active; 'I' for Inactive)
REMARK    1  A    between atoms: C_1  and  C_2
REMARK    2  A    between atoms: C_4  and  C_30
REMARK    3  A    between atoms: C_5  and  N_9
REMARK    4  A    between atoms: C_6  and  C_8
REMARK    5  A    between atoms: C_12  and  C_15
REMARK    6  A    between atoms: C_15  and  S_16
REMARK    7  A    between atoms: S_16  and  C_17
REMARK    8  A    between atoms: C_20  and  S_22
REMARK    9  A    between atoms: S_22  and  C_23
REMARK   10  A    between atoms: C_23  and  C_24
REMARK   11  A    between atoms: C_27  and  C_29
REMARK                            x       y       z     vdW  Elec       q    Type
REMARK                         _______ _______ _______ _____ _____    ______ ____
ROOT
ATOM      1  N   UNL     1       0.059  -4.171  -0.021  0.00  0.00    -0.218 N 
ATOM      2  C   UNL     1       1.273  -4.851  -0.031  0.00  0.00    +0.172 A 
ATOM      3  N   UNL     1       1.482  -6.149  -0.045  0.00  0.00    -0.228 NA
ATOM      4  C   UNL     1       2.707  -6.643  -0.053  0.00  0.00    +0.061 A 
ATOM      5  C   UNL     1       3.730  -5.753  -0.047  0.00  0.00    +0.072 A 
ATOM      6  S   UNL     1       2.829  -4.211  -0.036  0.00  0.00    -0.060 S 
ATOM      7  C   UNL     1      -1.100  -4.860  -0.018  0.00  0.00    +0.223 C 
ATOM      8  O   UNL     1      -1.083  -6.073  -0.025  0.00  0.00    -0.275 OA
ATOM      9  C   UNL     1      -2.414  -4.124  -0.007  0.00  0.00    +0.110 C 
ENDROOT
BRANCH   1  14
ATOM     10  C   UNL     1      -0.018   1.503   0.010  0.00  0.00    +0.044 C 
ATOM     11  C   UNL     1       0.002  -0.004   0.002  0.00  0.00    -0.050 A 
ATOM     12  C   UNL     1       0.006  -0.687  -1.200  0.00  0.00    +0.008 A 
ATOM     13  C   UNL     1       0.025  -2.068  -1.211  0.00  0.00    -0.028 A 
ATOM     14  C   UNL     1       0.040  -2.771  -0.013  0.00  0.00    +0.049 A 
ATOM     15  C   UNL     1       0.037  -2.082   1.192  0.00  0.00    -0.028 A 
ATOM     16  C   UNL     1       0.023  -0.700   1.197  0.00  0.00    +0.008 A 
ATOM     17  C   UNL     1       0.054  -2.840   2.495  0.00  0.00    +0.046 C 
ATOM     18  C   UNL     1       0.028  -2.812  -2.522  0.00  0.00    +0.046 C 
ENDBRANCH   1  14
BRANCH   4  19
ATOM     19  C   UNL     1       2.956  -8.129  -0.068  0.00  0.00    +0.132 C 
BRANCH  19  20
ATOM     20  S   UNL     1       3.052  -8.709  -1.784  0.00  0.00    -0.091 S 
BRANCH  20  21
ATOM     21  C   UNL     1       3.343 -10.440  -1.634  0.00  0.00    +0.160 A 
ATOM     22  N   UNL     1       3.462 -11.176  -0.545  0.00  0.00    -0.134 NA
ATOM     23  N   UNL     1       3.689 -12.528  -0.655  0.00  0.00    -0.134 NA
ATOM     24  C   UNL     1       3.788 -13.082  -1.849  0.00  0.00    +0.160 A 
ATOM     25  S   UNL     1       3.548 -11.669  -2.914  0.00  0.00    -0.033 S 
BRANCH  24  26
ATOM     26  S   UNL     1       4.072 -14.768  -2.277  0.00  0.00    -0.088 S 
BRANCH  26  27
ATOM     27  C   UNL     1       4.206 -15.611  -0.676  0.00  0.00    +0.171 C 
BRANCH  27  28
ATOM     28  C   UNL     1       4.454 -17.080  -0.902  0.00  0.00    +0.221 C 
ATOM     29  O   UNL     1       4.532 -17.516  -2.031  0.00  0.00    -0.275 OA
ATOM     30  N   UNL     1       4.588 -17.910   0.152  0.00  0.00    -0.329 N 
ATOM     31  H   UNL     1       4.525 -17.562   1.055  0.00  0.00    +0.145 HD
ATOM     32  H   UNL     1       4.747 -18.856   0.007  0.00  0.00    +0.145 HD
ENDBRANCH  27  28
ENDBRANCH  26  27
ENDBRANCH  24  26
ENDBRANCH  20  21
ENDBRANCH  19  20
ENDBRANCH   4  19
TORSDOF 7
