REMARK  Name = ZINC36523086
REMARK  16 active torsions:
REMARK  status: ('A' for Active; 'I' for Inactive)
REMARK    1  A    between atoms: C_1  and  C_2
REMARK    2  A    between atoms: C_2  and  C_3
REMARK    3  A    between atoms: C_2  and  C_4
REMARK    4  A    between atoms: C_2  and  C_5
REMARK    5  A    between atoms: C_5  and  C_6
REMARK    6  A    between atoms: C_6  and  C_7
REMARK    7  A    between atoms: C_6  and  C_8
REMARK    8  A    between atoms: C_6  and  N_9
REMARK    9  A    between atoms: C_10  and  C_12
REMARK   10  A    between atoms: C_12  and  C_14
REMARK   11  A    between atoms: C_12  and  N_21
REMARK   12  A    between atoms: C_18  and  O_20
REMARK   13  A    between atoms: N_21  and  C_22
REMARK   14  A    between atoms: C_23  and  C_25
REMARK   15  A    between atoms: C_25  and  C_33
REMARK   16  A    between atoms: C_26  and  C_27
REMARK                            x       y       z     vdW  Elec       q    Type
REMARK                         _______ _______ _______ _____ _____    ______ ____
ROOT
ATOM      1  C   UNL     1       5.573  -0.916  -4.015  0.00  0.00    +0.192 C 
ENDROOT
BRANCH   1   2
ATOM      2  C   UNL     1       5.681  -2.385  -4.338  0.00  0.00    -0.015 A 
ATOM      3  C   UNL     1       5.191  -2.866  -5.538  0.00  0.00    +0.006 A 
ATOM      4  C   UNL     1       5.288  -4.212  -5.837  0.00  0.00    +0.004 A 
ATOM      5  C   UNL     1       5.876  -5.080  -4.937  0.00  0.00    +0.045 A 
ATOM      6  C   UNL     1       6.369  -4.600  -3.733  0.00  0.00    +0.117 A 
ATOM      7  C   UNL     1       6.276  -3.247  -3.438  0.00  0.00    +0.051 A 
BRANCH   6   8
ATOM      8  O   UNL     1       6.948  -5.451  -2.846  0.00  0.00    -0.507 OA
ATOM      9  H   UNL     1       7.902  -5.557  -2.967  0.00  0.00    +0.292 HD
ENDBRANCH   6   8
ENDBRANCH   1   2
BRANCH   1  11
ATOM     10  N   UNL     1       3.594  -1.201  -2.559  0.00  0.00    -0.308 N 
ATOM     11  C   UNL     1       4.853  -0.743  -2.703  0.00  0.00    +0.238 C 
ATOM     12  O   UNL     1       5.407  -0.190  -1.776  0.00  0.00    -0.273 OA
ATOM     13  H   UNL     1       3.151  -1.643  -3.300  0.00  0.00    +0.149 HD
BRANCH  10  14
ATOM     14  C   UNL     1       2.894  -1.032  -1.283  0.00  0.00    +0.030 C 
ATOM     15  C   UNL     1       2.919   0.444  -0.879  0.00  0.00    +0.031 C 
ATOM     16  C   UNL     1       3.588  -1.867  -0.206  0.00  0.00    +0.031 C 
BRANCH  14  17
ATOM     17  C   UNL     1       1.444  -1.496  -1.432  0.00  0.00    +0.031 C 
BRANCH  17  19
ATOM     18  C   UNL     1       1.317  -1.874  -3.898  0.00  0.00    +0.010 C 
ATOM     19  C   UNL     1       0.872  -0.967  -2.749  0.00  0.00    -0.036 C 
ATOM     20  C   UNL     1       1.384   0.454  -2.994  0.00  0.00    +0.010 C 
ATOM     21  C   UNL     1      -0.656  -0.953  -2.673  0.00  0.00    +0.010 C 
ENDBRANCH  17  19
ENDBRANCH  14  17
ENDBRANCH  10  14
ENDBRANCH   1  11
BRANCH   1  22
ATOM     22  N   UNL     1       6.916  -0.338  -3.916  0.00  0.00    -0.285 N 
ATOM     23  C   UNL     1       7.876  -0.876  -2.949  0.00  0.00    +0.133 C 
ATOM     24  C   UNL     1       7.268   0.689  -4.714  0.00  0.00    +0.248 C 
ATOM     25  O   UNL     1       6.444   1.195  -5.454  0.00  0.00    -0.270 OA
BRANCH  24  26
ATOM     26  C   UNL     1       8.648   1.199  -4.692  0.00  0.00    +0.045 C 
ATOM     27  C   UNL     1       9.042   2.050  -3.707  0.00  0.00    +0.021 C 
BRANCH  27  28
ATOM     28  C   UNL     1       8.096   2.446  -2.655  0.00  0.00    -0.024 A 
ATOM     29  C   UNL     1       8.539   2.619  -1.339  0.00  0.00    +0.008 A 
ATOM     30  C   UNL     1       7.644   2.990  -0.358  0.00  0.00    +0.001 A 
ATOM     31  C   UNL     1       6.311   3.192  -0.672  0.00  0.00    +0.000 A 
ATOM     32  C   UNL     1       5.865   3.022  -1.971  0.00  0.00    +0.001 A 
ATOM     33  C   UNL     1       6.747   2.656  -2.965  0.00  0.00    +0.008 A 
ENDBRANCH  27  28
BRANCH  26  34
ATOM     34  C   UNL     1       9.607   0.786  -5.742  0.00  0.00    -0.013 A 
ATOM     35  C   UNL     1       9.365   1.107  -7.077  0.00  0.00    +0.008 A 
ATOM     36  C   UNL     1      10.262   0.720  -8.051  0.00  0.00    +0.001 A 
ATOM     37  C   UNL     1      11.401   0.014  -7.705  0.00  0.00    +0.000 A 
ATOM     38  C   UNL     1      11.647  -0.308  -6.382  0.00  0.00    +0.001 A 
ATOM     39  C   UNL     1      10.760   0.080  -5.398  0.00  0.00    +0.008 A 
ENDBRANCH  26  34
ENDBRANCH  24  26
ENDBRANCH   1  22
TORSDOF 10
