REMARK  Name = ZINC12547051
REMARK  5 active torsions:
REMARK  status: ('A' for Active; 'I' for Inactive)
REMARK    1  A    between atoms: C_5  and  N_7
REMARK    2  A    between atoms: N_10  and  C_13
REMARK    3  A    between atoms: C_13  and  C_14
REMARK    4  A    between atoms: C_17  and  C_33
REMARK    5  A    between atoms: C_25  and  C_26
REMARK                            x       y       z     vdW  Elec       q    Type
REMARK                         _______ _______ _______ _____ _____    ______ ____
ROOT
ATOM      1  C   UNL     1       4.536  -1.692   0.420  0.00  0.00    +0.253 C 
ATOM      2  O   UNL     1       5.737  -1.810   0.545  0.00  0.00    -0.272 OA
ATOM      3  N   UNL     1       3.985  -0.464   0.346  0.00  0.00    -0.183 N 
ATOM      4  C   UNL     1       4.712   0.823   0.390  0.00  0.00    +0.147 C 
ATOM      5  C   UNL     1       3.704   1.775  -0.275  0.00  0.00    +0.067 C 
ATOM      6  C   UNL     1       3.616   3.116   0.456  0.00  0.00    +0.012 C 
ATOM      7  C   UNL     1       2.474   3.921  -0.160  0.00  0.00    +0.005 C 
ATOM      8  C   UNL     1       1.117   3.267   0.009  0.00  0.00    +0.037 C 
ATOM      9  C   UNL     1       1.150   1.769   0.001  0.00  0.00    -0.023 C 
ATOM     10  C   UNL     1      -0.013   1.076   0.008  0.00  0.00    +0.020 C 
ATOM     11  C   UNL     1       2.376   1.069  -0.009  0.00  0.00    +0.068 C 
ATOM     12  N   UNL     1       2.621  -0.179   0.203  0.00  0.00    -0.181 NA
ENDROOT
BRANCH  10  13
ATOM     13  C   UNL     1      -1.289   1.790   0.018  0.00  0.00    +0.012 A 
ATOM     14  C   UNL     1      -2.578   1.277   0.015  0.00  0.00    +0.015 A 
ATOM     15  C   UNL     1      -3.631   2.160   0.030  0.00  0.00    +0.008 A 
ATOM     16  C   UNL     1      -3.379   3.497   0.036  0.00  0.00    +0.046 A 
ATOM     17  S   UNL     1      -1.595   3.549   0.028  0.00  0.00    -0.097 S 
ENDBRANCH  10  13
BRANCH   4  18
ATOM     18  C   UNL     1       5.995   0.757  -0.399  0.00  0.00    +0.013 A 
ATOM     19  C   UNL     1       7.170   1.392  -0.172  0.00  0.00    +0.013 A 
ATOM     20  C   UNL     1       8.226   1.178  -1.038  0.00  0.00    +0.008 A 
ATOM     21  C   UNL     1       8.054   0.340  -2.089  0.00  0.00    +0.045 A 
ATOM     22  S   UNL     1       6.361  -0.183  -1.871  0.00  0.00    -0.100 S 
ENDBRANCH   4  18
BRANCH   1  23
ATOM     23  C   UNL     1       3.662  -2.917   0.348  0.00  0.00    +0.214 C 
BRANCH  23  32
ATOM     24  C   UNL     1       7.168  -7.884   0.088  0.00  0.00    +0.003 A 
ATOM     25  C   UNL     1       6.558  -6.912  -0.694  0.00  0.00    +0.014 A 
ATOM     26  C   UNL     1       5.806  -5.917  -0.096  0.00  0.00    +0.051 A 
ATOM     27  C   UNL     1       5.660  -5.894   1.308  0.00  0.00    +0.070 A 
ATOM     28  C   UNL     1       6.276  -6.874   2.083  0.00  0.00    +0.038 A 
ATOM     29  C   UNL     1       7.032  -7.870   1.459  0.00  0.00    +0.023 A 
ATOM     30  C   UNL     1       4.814  -4.726   1.607  0.00  0.00    +0.256 C 
ATOM     31  O   UNL     1       4.463  -4.371   2.715  0.00  0.00    -0.269 OA
ATOM     32  N   UNL     1       4.494  -4.118   0.451  0.00  0.00    -0.225 N 
ATOM     33  C   UNL     1       5.035  -4.761  -0.600  0.00  0.00    +0.254 C 
ATOM     34  O   UNL     1       4.913  -4.444  -1.766  0.00  0.00    -0.270 OA
BRANCH  28  35
ATOM     35  N   UNL     1       6.140  -6.862   3.463  0.00  0.00    -0.357 N 
ATOM     36  H   UNL     1       5.615  -6.169   3.893  0.00  0.00    +0.142 HD
ATOM     37  H   UNL     1       6.571  -7.546   3.999  0.00  0.00    +0.142 HD
ENDBRANCH  28  35
ENDBRANCH  23  32
ENDBRANCH   1  23
TORSDOF 5
