REMARK  Name = ZINC39693214
REMARK  9 active torsions:
REMARK  status: ('A' for Active; 'I' for Inactive)
REMARK    1  A    between atoms: C_1  and  C_2
REMARK    2  A    between atoms: C_4  and  C_16
REMARK    3  A    between atoms: C_11  and  C_13
REMARK    4  A    between atoms: C_16  and  S_17
REMARK    5  A    between atoms: S_17  and  C_18
REMARK    6  A    between atoms: C_21  and  C_26
REMARK    7  A    between atoms: N_22  and  C_23
REMARK    8  A    between atoms: C_23  and  C_24
REMARK    9  A    between atoms: C_30  and  N_32
REMARK                            x       y       z     vdW  Elec       q    Type
REMARK                         _______ _______ _______ _____ _____    ______ ____
ROOT
ATOM      1  C   UNL     1      -2.533   3.875   1.646  0.00  0.00    +0.192 A 
ATOM      2  N   UNL     1      -3.120   4.559   0.690  0.00  0.00    -0.122 NA
ATOM      3  N   UNL     1      -3.181   5.803   1.010  0.00  0.00    -0.128 NA
ATOM      4  C   UNL     1      -2.635   5.988   2.190  0.00  0.00    +0.165 A 
ATOM      5  N   UNL     1      -2.208   4.759   2.635  0.00  0.00    -0.298 N 
ENDROOT
BRANCH   4   6
ATOM      6  C   UNL     1      -2.509   7.275   2.907  0.00  0.00    +0.021 A 
ATOM      7  C   UNL     1      -1.574   7.417   3.934  0.00  0.00    +0.012 A 
ATOM      8  C   UNL     1      -1.461   8.620   4.598  0.00  0.00    +0.003 A 
ATOM      9  C   UNL     1      -2.272   9.685   4.249  0.00  0.00    +0.033 A 
ATOM     10  C   UNL     1      -3.201   9.552   3.233  0.00  0.00    +0.127 A 
ATOM     11  C   UNL     1      -3.320   8.356   2.556  0.00  0.00    +0.044 A 
BRANCH  10  12
ATOM     12  N   UNL     1      -4.065  10.697   2.866  0.00  0.00    +0.056 N 
ATOM     13  O   UNL     1      -3.959  11.747   3.456  0.00  0.00    -0.126 OA
ATOM     14  O   UNL     1      -4.877  10.581   1.978  0.00  0.00    -0.126 OA
ENDBRANCH  10  12
ENDBRANCH   4   6
BRANCH   1  15
ATOM     15  S   UNL     1      -2.227   2.140   1.653  0.00  0.00    -0.081 S 
BRANCH  15  16
ATOM     16  C   UNL     1      -2.896   1.570   0.066  0.00  0.00    +0.113 C 
BRANCH  16  20
ATOM     17  C   UNL     1      -0.274   1.731  -0.787  0.00  0.00    +0.041 C 
ATOM     18  C   UNL     1      -0.287   0.225  -0.841  0.00  0.00    -0.039 C 
ATOM     19  C   UNL     1      -1.391  -0.474  -0.506  0.00  0.00    +0.009 C 
ATOM     20  C   UNL     1      -2.696   0.082  -0.058  0.00  0.00    -0.023 C 
ATOM     21  C   UNL     1      -3.696  -0.771   0.236  0.00  0.00    +0.074 C 
ATOM     22  C   UNL     1      -3.502  -2.213   0.117  0.00  0.00    +0.261 C 
ATOM     23  O   UNL     1      -4.421  -2.970   0.388  0.00  0.00    -0.269 OA
ATOM     24  N   UNL     1      -2.330  -2.716  -0.287  0.00  0.00    -0.170 NA
ATOM     25  C   UNL     1      -1.316  -1.947  -0.588  0.00  0.00    +0.098 C 
ATOM     26  S   UNL     1       0.340  -2.286  -1.143  0.00  0.00    -0.088 S 
ATOM     27  C   UNL     1       0.933  -0.552  -1.276  0.00  0.00    +0.192 C 
BRANCH  27  28
ATOM     28  C   UNL     1       2.090  -0.307  -0.343  0.00  0.00    +0.373 C 
ATOM     29  O   UNL     1       2.305  -1.077   0.577  0.00  0.00    -0.245 OA
ATOM     30  O   UNL     1       2.811   0.662  -0.508  0.00  0.00    -0.245 OA
ENDBRANCH  27  28
ENDBRANCH  16  20
ENDBRANCH  15  16
ENDBRANCH   1  15
BRANCH   5  31
ATOM     31  C   UNL     1      -1.542   4.460   3.905  0.00  0.00    +0.152 C 
BRANCH  31  32
ATOM     32  C   UNL     1      -0.049   4.451   3.699  0.00  0.00    -0.013 C 
ATOM     33  C   UNL     1       0.721   5.197   4.451  0.00  0.00    +0.005 C 
ENDBRANCH  31  32
ENDBRANCH   5  31
TORSDOF 8
