REMARK  Name = ZINC36502622
REMARK  11 active torsions:
REMARK  status: ('A' for Active; 'I' for Inactive)
REMARK    1  A    between atoms: C_1  and  C_2
REMARK    2  A    between atoms: C_5  and  C_8
REMARK    3  A    between atoms: C_8  and  C_10
REMARK    4  A    between atoms: C_8  and  N_24
REMARK    5  A    between atoms: N_12  and  C_13
REMARK    6  A    between atoms: C_13  and  S_14
REMARK    7  A    between atoms: S_14  and  C_17
REMARK    8  A    between atoms: C_20  and  C_23
REMARK    9  A    between atoms: N_24  and  C_25
REMARK   10  A    between atoms: C_25  and  C_26
REMARK   11  A    between atoms: C_31  and  C_33
REMARK                            x       y       z     vdW  Elec       q    Type
REMARK                         _______ _______ _______ _____ _____    ______ ____
ROOT
ATOM      1  C   UNL     1      -0.983  -3.041   0.928  0.00  0.00    +0.193 C 
ENDROOT
BRANCH   1   6
ATOM      2  C   UNL     1      -4.224   1.056   3.398  0.00  0.00    +0.044 C 
ATOM      3  C   UNL     1      -3.379  -0.012   2.754  0.00  0.00    -0.050 A 
ATOM      4  C   UNL     1      -3.060   0.074   1.411  0.00  0.00    +0.004 A 
ATOM      5  C   UNL     1      -2.285  -0.906   0.821  0.00  0.00    +0.006 A 
ATOM      6  C   UNL     1      -1.827  -1.972   1.573  0.00  0.00    -0.018 A 
ATOM      7  C   UNL     1      -2.145  -2.058   2.915  0.00  0.00    +0.006 A 
ATOM      8  C   UNL     1      -2.917  -1.075   3.507  0.00  0.00    +0.004 A 
ENDBRANCH   1   6
BRANCH   1   9
ATOM      9  C   UNL     1       0.475  -2.704   1.105  0.00  0.00    +0.239 C 
ATOM     10  O   UNL     1       1.213  -3.481   1.673  0.00  0.00    -0.273 OA
ATOM     11  N   UNL     1       0.960  -1.538   0.632  0.00  0.00    -0.294 N 
ATOM     12  H   UNL     1       0.370  -0.916   0.178  0.00  0.00    +0.150 HD
BRANCH  11  13
ATOM     13  C   UNL     1       2.377  -1.210   0.804  0.00  0.00    +0.278 C 
BRANCH  13  14
ATOM     14  S   UNL     1       3.295  -1.696  -0.683  0.00  0.00    +0.013 S 
ATOM     15  O   UNL     1       4.661  -1.327  -0.557  0.00  0.00    -0.168 OA
ATOM     16  O   UNL     1       2.933  -3.014  -1.072  0.00  0.00    -0.168 OA
BRANCH  14  17
ATOM     17  C   UNL     1       2.665  -0.661  -1.962  0.00  0.00    +0.090 A 
ATOM     18  C   UNL     1       1.577  -1.071  -2.710  0.00  0.00    +0.027 A 
ATOM     19  C   UNL     1       1.083  -0.258  -3.714  0.00  0.00    +0.005 A 
ATOM     20  C   UNL     1       1.677   0.963  -3.969  0.00  0.00    -0.050 A 
ATOM     21  C   UNL     1       2.765   1.373  -3.221  0.00  0.00    +0.005 A 
ATOM     22  C   UNL     1       3.256   0.563  -2.214  0.00  0.00    +0.027 A 
ATOM     23  C   UNL     1       1.140   1.848  -5.064  0.00  0.00    +0.044 C 
ENDBRANCH  14  17
ENDBRANCH  13  14
ENDBRANCH  11  13
ENDBRANCH   1   9
BRANCH   1  24
ATOM     24  N   UNL     1      -1.265  -4.333   1.559  0.00  0.00    -0.275 N 
ATOM     25  C   UNL     1      -2.348  -5.043   1.185  0.00  0.00    +0.248 C 
ATOM     26  O   UNL     1      -2.623  -6.079   1.758  0.00  0.00    -0.270 OA
BRANCH  25  27
ATOM     27  C   UNL     1      -3.200  -4.563   0.076  0.00  0.00    +0.037 A 
ATOM     28  C   UNL     1      -2.627  -4.207  -1.146  0.00  0.00    +0.013 A 
ATOM     29  C   UNL     1      -3.428  -3.760  -2.176  0.00  0.00    +0.001 A 
ATOM     30  C   UNL     1      -4.796  -3.663  -2.000  0.00  0.00    +0.000 A 
ATOM     31  C   UNL     1      -5.371  -4.014  -0.791  0.00  0.00    +0.001 A 
ATOM     32  C   UNL     1      -4.582  -4.468   0.245  0.00  0.00    +0.013 A 
ENDBRANCH  25  27
BRANCH  24  33
ATOM     33  C   UNL     1      -0.371  -4.852   2.597  0.00  0.00    +0.183 C 
BRANCH  33  34
ATOM     34  C   UNL     1       0.589  -5.839   1.984  0.00  0.00    +0.122 A 
ATOM     35  C   UNL     1       1.910  -5.648   1.812  0.00  0.00    +0.046 A 
ATOM     36  C   UNL     1       2.417  -6.821   1.207  0.00  0.00    +0.041 A 
ATOM     37  C   UNL     1       1.377  -7.658   1.046  0.00  0.00    +0.195 A 
ATOM     38  O   UNL     1       0.273  -7.060   1.524  0.00  0.00    -0.466 OA
ENDBRANCH  33  34
ENDBRANCH  24  33
ENDBRANCH   1  24
TORSDOF 9
