REMARK  Name = ZINC38660842
REMARK  11 active torsions:
REMARK  status: ('A' for Active; 'I' for Inactive)
REMARK    1  A    between atoms: C_1  and  C_2
REMARK    2  A    between atoms: C_2  and  O_3
REMARK    3  A    between atoms: O_3  and  C_4
REMARK    4  A    between atoms: C_7  and  C_10
REMARK    5  A    between atoms: C_10  and  O_12
REMARK    6  A    between atoms: O_12  and  C_13
REMARK    7  A    between atoms: C_20  and  N_39
REMARK    8  A    between atoms: C_21  and  C_37
REMARK    9  A    between atoms: C_22  and  C_24
REMARK   10  A    between atoms: C_28  and  O_30
REMARK   11  A    between atoms: O_30  and  C_31
REMARK                            x       y       z     vdW  Elec       q    Type
REMARK                         _______ _______ _______ _____ _____    ______ ____
ROOT
ATOM      1  C   UNL     1       1.747  -7.684  -2.627  0.00  0.00    +0.135 A 
ATOM      2  C   UNL     1       1.116  -8.456  -1.661  0.00  0.00    +0.047 A 
ATOM      3  C   UNL     1       1.100  -9.832  -1.780  0.00  0.00    +0.012 A 
ATOM      4  C   UNL     1       1.711 -10.446  -2.860  0.00  0.00    +0.008 A 
ATOM      5  C   UNL     1       2.342  -9.680  -3.826  0.00  0.00    +0.138 A 
ATOM      6  C   UNL     1       2.356  -8.296  -3.711  0.00  0.00    +0.093 A 
ATOM      7  O   UNL     1       2.947 -10.263  -4.891  0.00  0.00    -0.441 OA
ATOM      8  C   UNL     1       2.627 -11.521  -5.236  0.00  0.00    +0.199 C 
ATOM      9  C   UNL     1       2.025 -12.371  -4.371  0.00  0.00    +0.098 C 
ATOM     10  C   UNL     1       1.682 -11.947  -2.971  0.00  0.00    +0.098 C 
ENDROOT
BRANCH  10  11
ATOM     11  C   UNL     1       2.682 -12.538  -2.011  0.00  0.00    -0.031 A 
ATOM     12  C   UNL     1       4.022 -12.214  -2.123  0.00  0.00    +0.005 A 
ATOM     13  C   UNL     1       4.942 -12.754  -1.244  0.00  0.00    +0.004 A 
ATOM     14  C   UNL     1       4.526 -13.620  -0.252  0.00  0.00    +0.046 A 
ATOM     15  C   UNL     1       3.182 -13.947  -0.137  0.00  0.00    +0.129 A 
ATOM     16  C   UNL     1       2.260 -13.399  -1.017  0.00  0.00    +0.050 A 
BRANCH  15  17
ATOM     17  O   UNL     1       2.770 -14.799   0.838  0.00  0.00    -0.456 OA
BRANCH  17  18
ATOM     18  C   UNL     1       1.468 -15.190   0.835  0.00  0.00    +0.128 A 
ATOM     19  C   UNL     1       0.990 -16.003  -0.183  0.00  0.00    +0.046 A 
ATOM     20  C   UNL     1      -0.334 -16.399  -0.184  0.00  0.00    +0.004 A 
ATOM     21  C   UNL     1      -1.181 -15.986   0.828  0.00  0.00    +0.000 A 
ATOM     22  C   UNL     1      -0.706 -15.177   1.843  0.00  0.00    +0.004 A 
ATOM     23  C   UNL     1       0.618 -14.783   1.852  0.00  0.00    +0.046 A 
ENDBRANCH  17  18
ENDBRANCH  15  17
ENDBRANCH  10  11
BRANCH   8  24
ATOM     24  N   UNL     1       2.920 -11.958  -6.504  0.00  0.00    -0.328 N 
ATOM     25  H   UNL     1       3.352 -11.361  -7.135  0.00  0.00    +0.145 HD
ATOM     26  H   UNL     1       2.696 -12.864  -6.769  0.00  0.00    +0.145 HD
ENDBRANCH   8  24
BRANCH   9  27
ATOM     27  C   UNL     1       1.710 -13.701  -4.799  0.00  0.00    +0.101 C 
ATOM     28  N   UNL     1       1.459 -14.755  -5.139  0.00  0.00    -0.191 NA
ENDBRANCH   9  27
BRANCH   1  29
ATOM     29  O   UNL     1       1.764  -6.330  -2.511  0.00  0.00    -0.422 OA
BRANCH  29  30
ATOM     30  C   UNL     1       0.938  -5.617  -3.303  0.00  0.00    +0.344 C 
ATOM     31  O   UNL     1       0.275  -6.180  -4.152  0.00  0.00    -0.245 OA
BRANCH  30  35
ATOM     32  C   UNL     1       0.653  -1.408  -2.830  0.00  0.00    +0.121 A 
ATOM     33  C   UNL     1      -0.106  -2.050  -3.802  0.00  0.00    +0.046 A 
ATOM     34  C   UNL     1      -0.017  -3.414  -3.959  0.00  0.00    +0.018 A 
ATOM     35  C   UNL     1       0.839  -4.155  -3.139  0.00  0.00    +0.060 A 
ATOM     36  C   UNL     1       1.601  -3.507  -2.162  0.00  0.00    +0.018 A 
ATOM     37  C   UNL     1       1.509  -2.141  -2.016  0.00  0.00    +0.046 A 
BRANCH  32  38
ATOM     38  O   UNL     1       0.561  -0.063  -2.679  0.00  0.00    -0.492 OA
BRANCH  38  40
ATOM     39  C   UNL     1      -0.305   2.125  -3.231  0.00  0.00    +0.048 C 
ATOM     40  C   UNL     1      -0.338   0.628  -3.548  0.00  0.00    +0.225 C 
ENDBRANCH  38  40
ENDBRANCH  32  38
ENDBRANCH  30  35
ENDBRANCH  29  30
ENDBRANCH   1  29
TORSDOF 10
