REMARK  Name = ZINC24536452
REMARK  7 active torsions:
REMARK  status: ('A' for Active; 'I' for Inactive)
REMARK    1  A    between atoms: C_4  and  N_7
REMARK    2  A    between atoms: N_7  and  C_8
REMARK    3  A    between atoms: C_16  and  C_18
REMARK    4  A    between atoms: C_18  and  O_19
REMARK    5  A    between atoms: O_19  and  C_20
REMARK    6  A    between atoms: C_20  and  C_22
REMARK    7  A    between atoms: C_27  and  N_28
REMARK                            x       y       z     vdW  Elec       q    Type
REMARK                         _______ _______ _______ _____ _____    ______ ____
ROOT
ATOM      1  N   UNL     1       5.821   6.847  -0.200  0.00  0.00    -0.260 N 
ATOM      2  C   UNL     1       4.734   6.064  -0.058  0.00  0.00    +0.258 C 
ATOM      3  O   UNL     1       3.635   6.566   0.056  0.00  0.00    -0.271 OA
ENDROOT
BRANCH   1   4
ATOM      4  C   UNL     1       7.119   6.248  -0.521  0.00  0.00    +0.127 C 
ATOM      5  C   UNL     1       7.625   6.818  -1.873  0.00  0.00    +0.198 C 
ATOM      6  S   UNL     1       7.053   5.462  -2.981  0.00  0.00    -0.008 S 
ATOM      7  O   UNL     1       8.089   5.051  -3.862  0.00  0.00    -0.170 OA
ATOM      8  O   UNL     1       5.733   5.706  -3.448  0.00  0.00    -0.170 OA
ATOM      9  C   UNL     1       6.908   4.168  -1.761  0.00  0.00    +0.132 C 
ATOM     10  C   UNL     1       6.970   4.762  -0.598  0.00  0.00    +0.016 C 
ENDBRANCH   1   4
BRANCH   1  14
ATOM     11  C   UNL     1       5.493  10.973   0.276  0.00  0.00    +0.000 A 
ATOM     12  C   UNL     1       4.412  10.158   0.556  0.00  0.00    +0.002 A 
ATOM     13  C   UNL     1       4.517   8.790   0.400  0.00  0.00    +0.023 A 
ATOM     14  C   UNL     1       5.711   8.233  -0.040  0.00  0.00    +0.037 A 
ATOM     15  C   UNL     1       6.797   9.054  -0.316  0.00  0.00    +0.023 A 
ATOM     16  C   UNL     1       6.683  10.422  -0.163  0.00  0.00    +0.002 A 
ENDBRANCH   1  14
BRANCH   2  17
ATOM     17  C   UNL     1       4.882   4.564  -0.042  0.00  0.00    +0.328 C 
BRANCH  17  18
ATOM     18  O   UNL     1       3.593   3.953   0.231  0.00  0.00    -0.452 OA
BRANCH  18  19
ATOM     19  C   UNL     1       3.531   2.608   0.179  0.00  0.00    +0.341 C 
ATOM     20  O   UNL     1       4.543   1.959   0.004  0.00  0.00    -0.245 OA
BRANCH  19  21
ATOM     21  C   UNL     1       2.235   1.925   0.334  0.00  0.00    +0.081 A 
ATOM     22  C   UNL     1       1.053   2.667   0.417  0.00  0.00    +0.017 A 
ATOM     23  C   UNL     1      -0.155   2.023   0.561  0.00  0.00    +0.002 A 
ATOM     24  C   UNL     1      -0.208   0.639   0.625  0.00  0.00    +0.022 A 
ATOM     25  C   UNL     1       0.950  -0.109   0.545  0.00  0.00    +0.062 A 
ATOM     26  C   UNL     1       2.179   0.524   0.399  0.00  0.00    +0.057 A 
ATOM     27 CL   UNL     1       0.870  -1.841   0.626  0.00  0.00    -0.082 Cl
BRANCH  26  28
ATOM     28  N   UNL     1       3.345  -0.226   0.318  0.00  0.00    -0.356 N 
ATOM     29  H   UNL     1       3.298  -1.324   0.369  0.00  0.00    +0.142 HD
ATOM     30  H   UNL     1       4.316   0.277   0.203  0.00  0.00    +0.142 HD
ENDBRANCH  26  28
ENDBRANCH  19  21
ENDBRANCH  18  19
ENDBRANCH  17  18
ENDBRANCH   2  17
TORSDOF 7
