REMARK  Name = ZINC09865057
REMARK  7 active torsions:
REMARK  status: ('A' for Active; 'I' for Inactive)
REMARK    1  A    between atoms: C_1  and  C_2
REMARK    2  A    between atoms: C_9  and  C_11
REMARK    3  A    between atoms: C_11  and  S_12
REMARK    4  A    between atoms: S_12  and  C_13
REMARK    5  A    between atoms: C_16  and  C_25
REMARK    6  A    between atoms: N_17  and  C_18
REMARK    7  A    between atoms: C_25  and  N_56
REMARK                            x       y       z     vdW  Elec       q    Type
REMARK                         _______ _______ _______ _____ _____    ______ ____
ROOT
ATOM      1  C   UNL     1       1.336  -1.283  -7.148  0.00  0.00    +0.196 A 
ATOM      2  N   UNL     1       0.159  -1.293  -7.728  0.00  0.00    -0.122 NA
ATOM      3  N   UNL     1       0.300  -1.260  -9.005  0.00  0.00    -0.135 NA
ATOM      4  C   UNL     1       1.565  -1.237  -9.316  0.00  0.00    +0.122 A 
ATOM      5  N   UNL     1       2.273  -1.251  -8.144  0.00  0.00    -0.276 N 
ENDROOT
BRANCH   5   6
ATOM      6  C   UNL     1       3.668  -1.236  -7.996  0.00  0.00    +0.050 A 
ATOM      7  C   UNL     1       4.399  -0.131  -8.412  0.00  0.00    +0.029 A 
ATOM      8  C   UNL     1       5.772  -0.116  -8.260  0.00  0.00    +0.040 A 
ATOM      9  C   UNL     1       6.420  -1.206  -7.704  0.00  0.00    +0.124 A 
ATOM     10  C   UNL     1       5.693  -2.311  -7.294  0.00  0.00    +0.040 A 
ATOM     11  C   UNL     1       4.320  -2.327  -7.439  0.00  0.00    +0.029 A 
ATOM     12  F   UNL     1       7.763  -1.191  -7.561  0.00  0.00    -0.205 F 
ENDBRANCH   5   6
BRANCH   1  13
ATOM     13  S   UNL     1       1.651  -1.313  -5.414  0.00  0.00    -0.079 S 
BRANCH  13  14
ATOM     14  C   UNL     1      -0.047  -1.347  -4.788  0.00  0.00    +0.134 C 
BRANCH  14  23
ATOM     15  C   UNL     1      -0.018   1.503   0.010  0.00  0.00    +0.047 C 
ATOM     16  C   UNL     1       0.002  -0.004   0.002  0.00  0.00    -0.008 A 
ATOM     17  C   UNL     1       0.023  -0.697   1.172  0.00  0.00    +0.008 A 
ATOM     18  C   UNL     1       0.041  -2.102   1.149  0.00  0.00    +0.018 A 
ATOM     19  C   UNL     1       0.038  -2.763  -0.028  0.00  0.00    +0.093 A 
ATOM     20  N   UNL     1       0.018  -2.080  -1.209  0.00  0.00    -0.306 N 
ATOM     21  C   UNL     1      -0.006  -0.709  -1.218  0.00  0.00    +0.141 A 
ATOM     22  N   UNL     1      -0.029  -0.308  -2.481  0.00  0.00    -0.232 NA
ATOM     23  C   UNL     1      -0.026  -1.377  -3.281  0.00  0.00    +0.070 A 
ATOM     24  C   UNL     1       0.011  -2.489  -2.515  0.00  0.00    +0.116 A 
ENDBRANCH  14  23
ENDBRANCH  13  14
ENDBRANCH   1  13
BRANCH   4  25
ATOM     25  C   UNL     1       2.142  -1.203 -10.708  0.00  0.00    -0.001 C 
BRANCH  25  31
ATOM     26  C   UNL     1       3.375  -3.262 -10.394  0.00  0.00    -0.078 C 
ATOM     27  C   UNL     1       3.459  -4.728 -10.824  0.00  0.00    -0.019 C 
ATOM     28  C   UNL     1       3.806  -4.799 -12.314  0.00  0.00    -0.004 C 
ATOM     29  C   UNL     1       2.746  -4.036 -13.113  0.00  0.00    -0.019 C 
ATOM     30  C   UNL     1       2.683  -2.590 -12.617  0.00  0.00    -0.078 C 
ATOM     31  N   UNL     1       2.321  -2.590 -11.183  0.00  0.00    +0.384 N 
ATOM     32  H   UNL     1       1.438  -3.101 -11.062  0.00  0.00    -0.081 HD
ENDBRANCH  25  31
ENDBRANCH   4  25
TORSDOF 6
