REMARK  Name = ZINC62528776
REMARK  7 active torsions:
REMARK  status: ('A' for Active; 'I' for Inactive)
REMARK    1  A    between atoms: C_1  and  C_2
REMARK    2  A    between atoms: C_2  and  N_3
REMARK    3  A    between atoms: C_4  and  C_6
REMARK    4  A    between atoms: C_6  and  N_7
REMARK    5  A    between atoms: N_15  and  C_16
REMARK    6  A    between atoms: N_19  and  C_22
REMARK    7  A    between atoms: C_22  and  C_23
REMARK                            x       y       z     vdW  Elec       q    Type
REMARK                         _______ _______ _______ _____ _____    ______ ____
ROOT
ATOM      1  N   UNL     1      -2.574  -4.247   0.245  0.00  0.00    -0.291 NA
ATOM      2  C   UNL     1      -2.013  -4.786  -1.001  0.00  0.00    +0.104 C 
ATOM      3  C   UNL     1      -1.944  -6.314  -0.907  0.00  0.00    +0.124 C 
ATOM      4  N   UNL     1      -3.278  -6.822  -0.555  0.00  0.00    -0.283 N 
ATOM      5  C   UNL     1      -3.964  -6.231   0.605  0.00  0.00    +0.124 C 
ATOM      6  C   UNL     1      -3.954  -4.707   0.451  0.00  0.00    +0.104 C 
ATOM      7  C   UNL     1      -3.857  -7.803  -1.275  0.00  0.00    +0.302 C 
ATOM      8  O   UNL     1      -3.315  -8.221  -2.280  0.00  0.00    -0.253 OA
ATOM      9  N   UNL     1      -5.038  -8.321  -0.882  0.00  0.00    -0.297 N 
ATOM     10  H   UNL     1      -5.506  -7.939  -0.123  0.00  0.00    +0.151 HD
ENDROOT
BRANCH   9  11
ATOM     11  C   UNL     1      -5.614  -9.460  -1.601  0.00  0.00    +0.071 C 
ATOM     12  C   UNL     1      -6.415  -8.954  -2.804  0.00  0.00    +0.004 C 
ATOM     13  C   UNL     1      -7.079 -10.141  -3.504  0.00  0.00    -0.077 C 
ATOM     14  N   UNL     1      -7.979 -10.824  -2.568  0.00  0.00    +0.380 N 
ATOM     15  C   UNL     1      -7.208 -11.375  -1.447  0.00  0.00    -0.077 C 
ATOM     16  C   UNL     1      -6.549 -10.234  -0.668  0.00  0.00    +0.004 C 
ATOM     17  H   UNL     1      -8.659 -10.167  -2.216  0.00  0.00    -0.082 HD
BRANCH  14  18
ATOM     18  C   UNL     1      -8.673 -11.915  -3.265  0.00  0.00    -0.075 C 
BRANCH  18  19
ATOM     19  C   UNL     1      -9.717 -12.534  -2.334  0.00  0.00    -0.028 C 
ATOM     20  C   UNL     1     -10.384 -13.721  -3.032  0.00  0.00    +0.002 C 
ATOM     21  C   UNL     1     -11.428 -14.340  -2.100  0.00  0.00    +0.000 C 
ATOM     22  C   UNL     1     -12.487 -13.292  -1.754  0.00  0.00    +0.000 C 
ATOM     23  C   UNL     1     -11.821 -12.104  -1.056  0.00  0.00    +0.000 C 
ATOM     24  C   UNL     1     -10.777 -11.486  -1.988  0.00  0.00    +0.002 C 
ENDBRANCH  18  19
ENDBRANCH  14  18
ENDBRANCH   9  11
BRANCH   1  25
ATOM     25  C   UNL     1      -2.499  -2.780   0.265  0.00  0.00    +0.180 C 
BRANCH  25  27
ATOM     26  N   UNL     1      -0.741  -1.041   0.321  0.00  0.00    -0.315 N 
ATOM     27  C   UNL     1      -1.055  -2.352   0.299  0.00  0.00    +0.227 C 
ATOM     28  O   UNL     1      -0.174  -3.186   0.305  0.00  0.00    -0.274 OA
ATOM     29  H   UNL     1      -1.445  -0.374   0.316  0.00  0.00    +0.149 HD
BRANCH  26  31
ATOM     30  C   UNL     1       0.741   0.903   0.374  0.00  0.00    +0.024 C 
ATOM     31  C   UNL     1       0.663  -0.624   0.354  0.00  0.00    +0.101 C 
ENDBRANCH  26  31
ENDBRANCH  25  27
ENDBRANCH   1  25
TORSDOF 6
