REMARK  Name = ZINC24823780
REMARK  4 active torsions:
REMARK  status: ('A' for Active; 'I' for Inactive)
REMARK    1  A    between atoms: C_6  and  S_7
REMARK    2  A    between atoms: S_7  and  N_10
REMARK    3  A    between atoms: C_16  and  C_18
REMARK    4  A    between atoms: C_18  and  N_19
REMARK                            x       y       z     vdW  Elec       q    Type
REMARK                         _______ _______ _______ _____ _____    ______ ____
ROOT
ATOM      1  N   UNL     1      -0.707   1.563   1.212  0.00  0.00    -0.174 NA
ATOM      2  C   UNL     1      -0.013   1.086   0.008  0.00  0.00    +0.128 C 
ATOM      3  C   UNL     1      -0.761   1.597  -1.229  0.00  0.00    +0.125 C 
ATOM      4  N   UNL     1      -0.997   3.039  -1.073  0.00  0.00    -0.298 N 
ATOM      5  C   UNL     1      -1.695   3.517   0.130  0.00  0.00    +0.125 C 
ATOM      6  C   UNL     1      -0.947   3.005   1.367  0.00  0.00    +0.128 C 
ATOM      7  C   UNL     1      -0.580   3.909  -2.014  0.00  0.00    +0.233 C 
ATOM      8  O   UNL     1      -0.004   3.503  -3.002  0.00  0.00    -0.274 OA
ENDROOT
BRANCH   1   9
ATOM      9  S   UNL     1      -1.216   0.495   2.371  0.00  0.00    +0.061 S 
ATOM     10  O   UNL     1      -2.282   1.127   3.066  0.00  0.00    -0.153 OA
ATOM     11  O   UNL     1      -1.367  -0.762   1.726  0.00  0.00    -0.153 OA
BRANCH   9  17
ATOM     12  C   UNL     1       1.053  -0.671   3.336  0.00  0.00    +0.032 A 
ATOM     13  C   UNL     1       2.094  -0.816   4.237  0.00  0.00    +0.051 A 
ATOM     14  C   UNL     1       2.172   0.021   5.336  0.00  0.00    +0.162 A 
ATOM     15  C   UNL     1       1.213   1.006   5.530  0.00  0.00    +0.164 A 
ATOM     16  C   UNL     1       0.176   1.152   4.624  0.00  0.00    +0.078 A 
ATOM     17  C   UNL     1       0.102   0.313   3.526  0.00  0.00    +0.109 A 
ATOM     18  O   UNL     1       1.300   1.827   6.616  0.00  0.00    -0.488 OA
ATOM     19  C   UNL     1       1.074   1.210   7.885  0.00  0.00    +0.232 C 
ATOM     20  C   UNL     1       2.350   0.568   8.408  0.00  0.00    +0.082 C 
ATOM     21  C   UNL     1       2.819  -0.583   7.533  0.00  0.00    +0.232 C 
ATOM     22  O   UNL     1       3.190  -0.114   6.235  0.00  0.00    -0.488 OA
ENDBRANCH   9  17
ENDBRANCH   1   9
BRANCH   7  23
ATOM     23  C   UNL     1      -0.829   5.385  -1.840  0.00  0.00    +0.203 C 
BRANCH  23  24
ATOM     24  N   UNL     1      -0.284   6.111  -2.990  0.00  0.00    -0.293 N 
ATOM     25  C   UNL     1      -1.158   6.331  -4.135  0.00  0.00    +0.108 C 
ATOM     26  C   UNL     1      -0.622   7.468  -5.007  0.00  0.00    +0.019 C 
ATOM     27  C   UNL     1       0.856   7.198  -5.311  0.00  0.00    +0.011 C 
ATOM     28  C   UNL     1       1.649   7.324  -4.008  0.00  0.00    +0.096 C 
ATOM     29  C   UNL     1       0.979   6.534  -2.921  0.00  0.00    +0.216 C 
ATOM     30  O   UNL     1       1.623   6.260  -1.930  0.00  0.00    -0.276 OA
ENDBRANCH  23  24
ENDBRANCH   7  23
TORSDOF 4
