REMARK  Name = ZINC06445118
REMARK  9 active torsions:
REMARK  status: ('A' for Active; 'I' for Inactive)
REMARK    1  A    between atoms: C_12  and  C_13
REMARK    2  A    between atoms: C_13  and  N_14
REMARK    3  A    between atoms: N_14  and  C_15
REMARK    4  A    between atoms: N_14  and  C_22
REMARK    5  A    between atoms: C_15  and  C_16
REMARK    6  A    between atoms: C_16  and  N_63
REMARK    7  A    between atoms: C_22  and  N_24
REMARK    8  A    between atoms: N_24  and  C_25
REMARK    9  A    between atoms: C_25  and  C_26
REMARK                            x       y       z     vdW  Elec       q    Type
REMARK                         _______ _______ _______ _____ _____    ______ ____
ROOT
ATOM      1  N   UNL     1      -3.027   7.282   1.455  0.00  0.00    -0.310 N 
ENDROOT
BRANCH   1   2
ATOM      2  C   UNL     1      -2.460   8.347   2.057  0.00  0.00    +0.133 C 
ATOM      3  S   UNL     1      -1.441   9.393   1.164  0.00  0.00    -0.019 S 
BRANCH   2   4
ATOM      4  N   UNL     1      -2.697   8.588   3.362  0.00  0.00    -0.324 N 
ATOM      5  H   UNL     1      -3.274   7.996   3.868  0.00  0.00    +0.148 HD
BRANCH   4   6
ATOM      6  C   UNL     1      -2.081   9.746   4.016  0.00  0.00    +0.134 C 
BRANCH   6   7
ATOM      7  C   UNL     1      -2.509   9.789   5.484  0.00  0.00    +0.135 C 
ATOM      8  C   UNL     1      -1.973  11.069   6.162  0.00  0.00    +0.035 C 
ATOM      9  C   UNL     1      -1.596  10.609   7.588  0.00  0.00    +0.031 C 
ATOM     10  C   UNL     1      -1.949   9.105   7.603  0.00  0.00    +0.160 C 
ATOM     11  O   UNL     1      -1.903   8.702   6.216  0.00  0.00    -0.375 OA
ENDBRANCH   6   7
ENDBRANCH   4   6
ENDBRANCH   2   4
ENDBRANCH   1   2
BRANCH   1  12
ATOM     12  C   UNL     1      -2.682   6.954   0.070  0.00  0.00    +0.147 C 
BRANCH  12  24
ATOM     13  C   UNL     1      -0.294   6.288  -0.019  0.00  0.00    +0.020 A 
ATOM     14  C   UNL     1       0.737   5.251  -0.030  0.00  0.00    +0.003 A 
ATOM     15  C   UNL     1       2.095   5.584  -0.112  0.00  0.00    +0.059 A 
ATOM     16  C   UNL     1       3.043   4.585  -0.117  0.00  0.00    +0.167 A 
ATOM     17  C   UNL     1       2.653   3.241  -0.051  0.00  0.00    +0.168 A 
ATOM     18  C   UNL     1       1.314   2.904   0.026  0.00  0.00    +0.075 A 
ATOM     19  C   UNL     1       0.346   3.900   0.037  0.00  0.00    +0.053 A 
ATOM     20  N   UNL     1      -0.995   3.582   0.112  0.00  0.00    -0.322 N 
ATOM     21  H   UNL     1      -1.264   2.651   0.159  0.00  0.00    +0.169 HD
ATOM     22  C   UNL     1      -1.935   4.543   0.122  0.00  0.00    +0.254 A 
ATOM     23  O   UNL     1      -3.110   4.225   0.189  0.00  0.00    -0.268 OA
ATOM     24  C   UNL     1      -1.595   5.910   0.056  0.00  0.00    +0.035 A 
ATOM     25  O   UNL     1       3.774   2.464  -0.077  0.00  0.00    -0.453 OA
ATOM     26  C   UNL     1       4.823   3.316  -0.572  0.00  0.00    +0.466 C 
ATOM     27  O   UNL     1       4.406   4.638  -0.183  0.00  0.00    -0.453 OA
ENDBRANCH  12  24
ENDBRANCH   1  12
BRANCH   1  28
ATOM     28  C   UNL     1      -3.987   6.452   2.187  0.00  0.00    +0.088 C 
BRANCH  28  29
ATOM     29  C   UNL     1      -3.243   5.326   2.908  0.00  0.00    -0.059 C 
BRANCH  29  35
ATOM     30  C   UNL     1      -4.829   5.251   4.737  0.00  0.00    -0.050 C 
ATOM     31  C   UNL     1      -5.866   4.368   5.436  0.00  0.00    +0.141 C 
ATOM     32  O   UNL     1      -5.233   3.171   5.896  0.00  0.00    -0.383 OA
ATOM     33  C   UNL     1      -4.617   2.409   4.854  0.00  0.00    +0.141 C 
ATOM     34  C   UNL     1      -3.567   3.272   4.150  0.00  0.00    -0.050 C 
ATOM     35  N   UNL     1      -4.226   4.486   3.625  0.00  0.00    +0.384 N 
ATOM     36  H   UNL     1      -4.967   4.207   2.971  0.00  0.00    -0.082 HD
ENDBRANCH  29  35
ENDBRANCH  28  29
ENDBRANCH   1  28
TORSDOF 9
