REMARK  Name = ZINC66278018
REMARK  3 active torsions:
REMARK  status: ('A' for Active; 'I' for Inactive)
REMARK    1  A    between atoms: C_1  and  C_2
REMARK    2  A    between atoms: C_7  and  C_12
REMARK    3  A    between atoms: N_14  and  N_15
REMARK                            x       y       z     vdW  Elec       q    Type
REMARK                         _______ _______ _______ _____ _____    ______ ____
ROOT
ATOM      1  C   UNL     1       1.211  -5.002  -1.103  0.00  0.00    +0.261 C 
ATOM      2  O   UNL     1       0.904  -4.580  -2.202  0.00  0.00    -0.269 OA
ATOM      3  N   UNL     1       1.512  -6.306  -0.942  0.00  0.00    -0.220 N 
ATOM      4  H   UNL     1       1.757  -6.642  -0.066  0.00  0.00    +0.174 HD
ENDROOT
BRANCH   3   5
ATOM      5  N   UNL     1       1.471  -7.175  -2.040  0.00  0.00    -0.147 N 
ATOM      6  C   UNL     1       0.340  -7.638  -2.603  0.00  0.00    +0.271 C 
ATOM      7  O   UNL     1      -0.789  -7.371  -2.246  0.00  0.00    -0.268 OA
ATOM      8  C   UNL     1       0.703  -8.523  -3.729  0.00  0.00    +0.051 A 
ATOM      9  C   UNL     1      -0.021  -9.262  -4.651  0.00  0.00    +0.014 A 
ATOM     10  C   UNL     1       0.647 -10.010  -5.609  0.00  0.00    +0.001 A 
ATOM     11  C   UNL     1       2.028 -10.022  -5.651  0.00  0.00    +0.001 A 
ATOM     12  C   UNL     1       2.766  -9.287  -4.735  0.00  0.00    +0.014 A 
ATOM     13  C   UNL     1       2.112  -8.535  -3.772  0.00  0.00    +0.051 A 
ATOM     14  C   UNL     1       2.558  -7.653  -2.673  0.00  0.00    +0.271 C 
ATOM     15  O   UNL     1       3.712  -7.404  -2.388  0.00  0.00    -0.268 OA
ENDBRANCH   3   5
BRANCH   1  21
ATOM     16  C   UNL     1      -0.019   1.526   0.010  0.00  0.00    +0.008 C 
ATOM     17  C   UNL     1       0.002  -0.004   0.002  0.00  0.00    -0.009 C 
ATOM     18  C   UNL     1       0.724  -0.500  -1.254  0.00  0.00    +0.008 C 
ATOM     19  C   UNL     1       0.536  -2.012  -1.400  0.00  0.00    +0.037 C 
ATOM     20  C   UNL     1       0.935  -2.681  -0.093  0.00  0.00    -0.025 A 
ATOM     21  C   UNL     1       1.254  -4.088   0.050  0.00  0.00    +0.049 A 
ATOM     22  C   UNL     1       1.598  -4.538   1.304  0.00  0.00    +0.058 A 
ATOM     23  S   UNL     1       1.508  -3.168   2.271  0.00  0.00    -0.101 S 
ATOM     24  C   UNL     1       1.019  -1.977   1.058  0.00  0.00    -0.006 A 
ATOM     25  C   UNL     1       0.750  -0.515   1.243  0.00  0.00    +0.046 C 
ENDBRANCH   1  21
TORSDOF 2
