REMARK  Name = ZINC08318913
REMARK  6 active torsions:
REMARK  status: ('A' for Active; 'I' for Inactive)
REMARK    1  A    between atoms: C_1  and  N_2
REMARK    2  A    between atoms: C_5  and  N_15
REMARK    3  A    between atoms: C_6  and  S_7
REMARK    4  A    between atoms: S_7  and  C_8
REMARK    5  A    between atoms: C_11  and  S_13
REMARK    6  A    between atoms: S_13  and  C_14
REMARK                            x       y       z     vdW  Elec       q    Type
REMARK                         _______ _______ _______ _____ _____    ______ ____
ROOT
ATOM      1  C   UNL     1      -0.018   1.461   0.010  0.00  0.00    +0.151 C 
ATOM      2  N   UNL     1       0.002  -0.004   0.002  0.00  0.00    -0.326 N 
ATOM      3  C   UNL     1       0.009  -0.799  -1.088  0.00  0.00    +0.202 A 
ATOM      4  N   UNL     1       0.028  -2.058  -0.714  0.00  0.00    -0.212 NA
ATOM      5  C   UNL     1       0.035  -2.134   0.612  0.00  0.00    +0.247 A 
ATOM      6  C   UNL     1       0.024  -0.828   1.106  0.00  0.00    +0.133 A 
ENDROOT
BRANCH   5   7
ATOM      7  N   UNL     1       0.056  -3.375   1.418  0.00  0.00    +0.078 N 
ATOM      8  O   UNL     1       0.070  -4.548   0.820  0.00  0.00    -0.125 OA
ATOM      9  O   UNL     1       0.060  -3.306   2.733  0.00  0.00    -0.125 OA
ENDBRANCH   5   7
BRANCH   6  10
ATOM     10  S   UNL     1       0.032  -0.362   2.699  0.00  0.00    -0.039 S 
BRANCH  10  11
ATOM     11  C   UNL     1      -1.348  -1.042   3.323  0.00  0.00    +0.165 A 
ATOM     12  N   UNL     1      -2.285  -1.808   2.718  0.00  0.00    -0.134 NA
ATOM     13  N   UNL     1      -3.284  -2.246   3.352  0.00  0.00    -0.134 NA
ATOM     14  C   UNL     1      -3.460  -1.967   4.667  0.00  0.00    +0.159 A 
ATOM     15  S   UNL     1      -2.007  -0.973   4.986  0.00  0.00    -0.033 S 
BRANCH  14  16
ATOM     16  S   UNL     1      -4.679  -2.427   5.696  0.00  0.00    -0.100 S 
ATOM     17  C   UNL     1      -5.779  -3.425   4.655  0.00  0.00    +0.092 C 
ENDBRANCH  14  16
ENDBRANCH  10  11
ENDBRANCH   6  10
TORSDOF 4
