REMARK  Name = ZINC01761447
REMARK  8 active torsions:
REMARK  status: ('A' for Active; 'I' for Inactive)
REMARK    1  A    between atoms: C_1  and  C_2
REMARK    2  A    between atoms: C_2  and  O_3
REMARK    3  A    between atoms: O_3  and  C_4
REMARK    4  A    between atoms: C_4  and  C_6
REMARK    5  A    between atoms: C_9  and  N_12
REMARK    6  A    between atoms: C_13  and  C_15
REMARK    7  A    between atoms: C_15  and  S_16
REMARK    8  A    between atoms: S_16  and  C_17
REMARK                            x       y       z     vdW  Elec       q    Type
REMARK                         _______ _______ _______ _____ _____    ______ ____
ROOT
ATOM      1  S   UNL     1      -1.368  -0.745  -0.969  0.00  0.00    -0.077 S 
ENDROOT
BRANCH   1   2
ATOM      2  C   UNL     1       0.163   0.071  -0.657  0.00  0.00    +0.191 A 
ATOM      3  N   UNL     1       1.252  -0.653  -0.428  0.00  0.00    -0.207 NA
ATOM      4  C   UNL     1       2.427  -0.098  -0.187  0.00  0.00    +0.129 A 
ATOM      5  C   UNL     1       2.536   1.321  -0.171  0.00  0.00    +0.051 A 
ATOM      6  C   UNL     1       3.722   2.146   0.072  0.00  0.00    -0.025 A 
ATOM      7  C   UNL     1       3.556   3.483   0.030  0.00  0.00    -0.004 A 
ATOM      8  S   UNL     1       1.837   3.725  -0.329  0.00  0.00    -0.073 S 
ATOM      9  C   UNL     1       1.341   2.025  -0.422  0.00  0.00    +0.115 A 
ATOM     10  N   UNL     1       0.205   1.396  -0.654  0.00  0.00    -0.214 NA
ATOM     11  C   UNL     1       4.602   4.535   0.243  0.00  0.00    +0.043 C 
ATOM     12  C   UNL     1       5.829   3.874   0.887  0.00  0.00    +0.005 C 
ATOM     13  C   UNL     1       6.165   2.599   0.108  0.00  0.00    +0.005 C 
ATOM     14  C   UNL     1       5.092   1.539   0.360  0.00  0.00    +0.037 C 
ATOM     15  N   UNL     1       3.539  -0.886   0.047  0.00  0.00    -0.343 N 
ATOM     16  H   UNL     1       3.526  -1.827  -0.192  0.00  0.00    +0.144 HD
ATOM     17  H   UNL     1       4.332  -0.500   0.449  0.00  0.00    +0.144 HD
ENDBRANCH   1   2
BRANCH   1  18
ATOM     18  C   UNL     1      -0.834  -2.471  -0.851  0.00  0.00    +0.173 C 
BRANCH  18  20
ATOM     19  N   UNL     1      -1.852  -4.716  -1.050  0.00  0.00    -0.285 N 
ATOM     20  C   UNL     1      -2.013  -3.379  -1.090  0.00  0.00    +0.227 C 
ATOM     21  O   UNL     1      -3.106  -2.906  -1.318  0.00  0.00    -0.275 OA
ATOM     22  H   UNL     1      -0.994  -5.095  -0.802  0.00  0.00    +0.155 HD
BRANCH  19  26
ATOM     23  C   UNL     1      -5.039  -7.226  -1.995  0.00  0.00    +0.059 A 
ATOM     24  C   UNL     1      -3.735  -7.584  -2.353  0.00  0.00    +0.017 A 
ATOM     25  C   UNL     1      -2.684  -6.752  -2.039  0.00  0.00    +0.024 A 
ATOM     26  C   UNL     1      -2.918  -5.556  -1.367  0.00  0.00    +0.033 A 
ATOM     27  C   UNL     1      -4.214  -5.200  -1.005  0.00  0.00    +0.024 A 
ATOM     28  C   UNL     1      -5.270  -6.024  -1.320  0.00  0.00    +0.017 A 
BRANCH  23  29
ATOM     29  C   UNL     1      -6.167  -8.115  -2.330  0.00  0.00    +0.339 C 
ATOM     30  O   UNL     1      -5.964  -9.159  -2.917  0.00  0.00    -0.245 OA
BRANCH  29  31
ATOM     31  O   UNL     1      -7.423  -7.769  -1.985  0.00  0.00    -0.461 OA
BRANCH  31  33
ATOM     32  C   UNL     1      -9.828  -8.132  -1.876  0.00  0.00    +0.048 C 
ATOM     33  C   UNL     1      -8.484  -8.691  -2.346  0.00  0.00    +0.229 C 
ENDBRANCH  31  33
ENDBRANCH  29  31
ENDBRANCH  23  29
ENDBRANCH  19  26
ENDBRANCH  18  20
ENDBRANCH   1  18
TORSDOF 7
