REMARK  Name = ZINC34699254
REMARK  13 active torsions:
REMARK  status: ('A' for Active; 'I' for Inactive)
REMARK    1  A    between atoms: C_1  and  O_2
REMARK    2  A    between atoms: O_2  and  C_3
REMARK    3  A    between atoms: C_7  and  C_9
REMARK    4  A    between atoms: N_12  and  C_32
REMARK    5  A    between atoms: C_14  and  C_16
REMARK    6  A    between atoms: C_16  and  N_17
REMARK    7  A    between atoms: N_17  and  C_18
REMARK    8  A    between atoms: C_18  and  C_19
REMARK    9  A    between atoms: C_25  and  C_27
REMARK   10  A    between atoms: C_32  and  C_33
REMARK   11  A    between atoms: C_36  and  O_41
REMARK   12  A    between atoms: C_37  and  O_39
REMARK   13  A    between atoms: O_39  and  C_40
REMARK                            x       y       z     vdW  Elec       q    Type
REMARK                         _______ _______ _______ _____ _____    ______ ____
ROOT
ATOM      1  C   UNL     1      -4.622  -6.251  -0.049  0.00  0.00    +0.005 C 
ATOM      2  C   UNL     1      -6.051  -6.419  -0.607  0.00  0.00    -0.070 C 
ATOM      3  N   UNL     1      -6.852  -6.891   0.552  0.00  0.00    +0.383 N 
ATOM      4  C   UNL     1      -6.331  -6.106   1.700  0.00  0.00    -0.073 C 
ATOM      5  C   UNL     1      -4.803  -6.047   1.470  0.00  0.00    -0.005 C 
ATOM      6  H   UNL     1      -6.706  -7.878   0.703  0.00  0.00    -0.081 HD
ENDROOT
BRANCH   1  11
ATOM      7  C   UNL     1      -2.041  -4.018  -1.671  0.00  0.00    +0.120 A 
ATOM      8  C   UNL     1      -2.744  -2.828  -1.791  0.00  0.00    +0.045 A 
ATOM      9  C   UNL     1      -4.050  -2.752  -1.349  0.00  0.00    +0.004 A 
ATOM     10  C   UNL     1      -4.657  -3.860  -0.785  0.00  0.00    +0.004 A 
ATOM     11  C   UNL     1      -3.958  -5.046  -0.663  0.00  0.00    -0.042 A 
ATOM     12  C   UNL     1      -2.653  -5.129  -1.110  0.00  0.00    +0.049 A 
BRANCH   7  14
ATOM     13  C   UNL     1      -0.189  -2.913  -2.672  0.00  0.00    +0.277 C 
ATOM     14  O   UNL     1      -0.756  -4.096  -2.106  0.00  0.00    -0.495 OA
ENDBRANCH   7  14
ENDBRANCH   1  11
BRANCH   5  15
ATOM     15  C   UNL     1      -4.254  -4.682   1.891  0.00  0.00    +0.110 C 
BRANCH  15  16
ATOM     16  N   UNL     1      -4.286  -4.574   3.352  0.00  0.00    -0.297 N 
ATOM     17  C   UNL     1      -5.253  -3.854   3.953  0.00  0.00    +0.219 C 
ATOM     18  O   UNL     1      -5.333  -3.837   5.163  0.00  0.00    -0.275 OA
BRANCH  17  19
ATOM     19  C   UNL     1      -6.236  -3.070   3.122  0.00  0.00    +0.075 C 
ATOM     20  C   UNL     1      -5.712  -1.637   2.895  0.00  0.00    +0.013 C 
ATOM     21  C   UNL     1      -6.982  -0.753   2.955  0.00  0.00    +0.001 C 
ATOM     22  C   UNL     1      -7.813  -1.425   4.077  0.00  0.00    +0.001 C 
ATOM     23  C   UNL     1      -7.572  -2.935   3.874  0.00  0.00    +0.013 C 
ENDBRANCH  17  19
BRANCH  16  24
ATOM     24  C   UNL     1      -3.265  -5.247   4.159  0.00  0.00    +0.142 C 
BRANCH  24  25
ATOM     25  C   UNL     1      -2.096  -4.319   4.367  0.00  0.00    -0.030 A 
ATOM     26  C   UNL     1      -1.051  -4.311   3.462  0.00  0.00    +0.005 A 
ATOM     27  C   UNL     1       0.021  -3.459   3.653  0.00  0.00    +0.000 A 
ATOM     28  C   UNL     1       0.049  -2.617   4.749  0.00  0.00    +0.000 A 
ATOM     29  C   UNL     1      -0.997  -2.626   5.653  0.00  0.00    +0.000 A 
ATOM     30  C   UNL     1      -2.071  -3.474   5.460  0.00  0.00    +0.005 A 
ENDBRANCH  24  25
ENDBRANCH  16  24
ENDBRANCH  15  16
ENDBRANCH   5  15
BRANCH   3  31
ATOM     31  C   UNL     1      -8.278  -6.607   0.340  0.00  0.00    -0.043 C 
BRANCH  31  32
ATOM     32  C   UNL     1      -8.790  -7.436  -0.809  0.00  0.00    -0.060 A 
ATOM     33  C   UNL     1      -8.732  -6.938  -2.098  0.00  0.00    +0.005 A 
ATOM     34  C   UNL     1      -9.200  -7.695  -3.156  0.00  0.00    +0.049 A 
ATOM     35  C   UNL     1      -9.730  -8.954  -2.926  0.00  0.00    +0.158 A 
ATOM     36  C   UNL     1      -9.789  -9.455  -1.629  0.00  0.00    +0.161 A 
ATOM     37  C   UNL     1      -9.313  -8.694  -0.574  0.00  0.00    +0.051 A 
BRANCH  36  38
ATOM     38  O   UNL     1     -10.308 -10.690  -1.398  0.00  0.00    -0.491 OA
ATOM     39  C   UNL     1     -10.337 -11.139  -0.042  0.00  0.00    +0.277 C 
ENDBRANCH  36  38
BRANCH  35  40
ATOM     40  O   UNL     1     -10.192  -9.699  -3.966  0.00  0.00    -0.503 OA
ATOM     41  H   UNL     1      -9.524 -10.271  -4.368  0.00  0.00    +0.292 HD
ENDBRANCH  35  40
ENDBRANCH  31  32
ENDBRANCH   3  31
TORSDOF 11
