REMARK  Name = ZINC35705781
REMARK  12 active torsions:
REMARK  status: ('A' for Active; 'I' for Inactive)
REMARK    1  A    between atoms: C_1  and  C_2
REMARK    2  A    between atoms: C_2  and  O_3
REMARK    3  A    between atoms: O_3  and  C_4
REMARK    4  A    between atoms: C_7  and  C_10
REMARK    5  A    between atoms: C_10  and  N_11
REMARK    6  A    between atoms: N_11  and  C_12
REMARK    7  A    between atoms: N_11  and  C_24
REMARK    8  A    between atoms: C_12  and  C_13
REMARK    9  A    between atoms: C_13  and  C_14
REMARK   10  A    between atoms: C_24  and  C_25
REMARK   11  A    between atoms: C_27  and  C_30
REMARK   12  A    between atoms: C_38  and  C_40
REMARK                            x       y       z     vdW  Elec       q    Type
REMARK                         _______ _______ _______ _____ _____    ______ ____
ROOT
ATOM      1  N   UNL     1       0.046  -6.645  -2.551  0.00  0.00    +0.388 N 
ATOM      2  H   UNL     1      -0.815  -6.441  -2.065  0.00  0.00    -0.081 HD
ENDROOT
BRANCH   1   3
ATOM      3  C   UNL     1       1.174  -6.538  -1.617  0.00  0.00    -0.042 C 
BRANCH   3   7
ATOM      4  C   UNL     1       1.135  -2.684   0.230  0.00  0.00    +0.121 A 
ATOM      5  C   UNL     1       0.450  -3.741   0.812  0.00  0.00    +0.046 A 
ATOM      6  C   UNL     1       0.464  -4.986   0.213  0.00  0.00    +0.005 A 
ATOM      7  C   UNL     1       1.160  -5.179  -0.966  0.00  0.00    -0.064 A 
ATOM      8  C   UNL     1       1.843  -4.128  -1.548  0.00  0.00    +0.005 A 
ATOM      9  C   UNL     1       1.827  -2.880  -0.957  0.00  0.00    +0.046 A 
BRANCH   4  10
ATOM     10  O   UNL     1       1.122  -1.459   0.817  0.00  0.00    -0.492 OA
BRANCH  10  12
ATOM     11  C   UNL     1       0.489   0.108   2.544  0.00  0.00    +0.048 C 
ATOM     12  C   UNL     1       0.389  -1.331   2.037  0.00  0.00    +0.225 C 
ENDBRANCH  10  12
ENDBRANCH   4  10
ENDBRANCH   3   7
ENDBRANCH   1   3
BRANCH   1  13
ATOM     13  C   UNL     1       0.227  -5.686  -3.650  0.00  0.00    -0.073 C 
BRANCH  13  14
ATOM     14  C   UNL     1      -0.999  -5.721  -4.564  0.00  0.00    +0.019 C 
BRANCH  14  15
ATOM     15  C   UNL     1      -0.770  -4.813  -5.745  0.00  0.00    -0.024 A 
ATOM     16  C   UNL     1      -1.237  -3.563  -5.894  0.00  0.00    +0.087 A 
ATOM     17  N   UNL     1      -0.826  -3.051  -7.094  0.00  0.00    -0.360 N 
ATOM     18  H   UNL     1      -1.038  -2.164  -7.423  0.00  0.00    +0.165 HD
ATOM     19  C   UNL     1      -0.065  -3.982  -7.764  0.00  0.00    +0.047 A 
ATOM     20  C   UNL     1       0.009  -5.125  -6.946  0.00  0.00    +0.003 A 
ATOM     21  C   UNL     1       0.730  -6.241  -7.372  0.00  0.00    +0.010 A 
ATOM     22  C   UNL     1       1.365  -6.217  -8.582  0.00  0.00    +0.001 A 
ATOM     23  C   UNL     1       1.300  -5.091  -9.391  0.00  0.00    +0.002 A 
ATOM     24  C   UNL     1       0.585  -3.982  -8.994  0.00  0.00    +0.026 A 
ENDBRANCH  14  15
ENDBRANCH  13  14
ENDBRANCH   1  13
BRANCH   1  25
ATOM     25  C   UNL     1      -0.012  -8.008  -3.096  0.00  0.00    +0.019 C 
BRANCH  25  26
ATOM     26  C   UNL     1      -0.326  -8.979  -1.987  0.00  0.00    +0.179 A 
ATOM     27  N   UNL     1      -1.512  -9.411  -1.679  0.00  0.00    -0.210 NA
ATOM     28  C   UNL     1      -1.399 -10.270  -0.630  0.00  0.00    +0.164 A 
ATOM     29  C   UNL     1      -0.078 -10.342  -0.312  0.00  0.00    +0.230 A 
ATOM     30  O   UNL     1       0.575  -9.539  -1.167  0.00  0.00    -0.449 OA
BRANCH  28  31
ATOM     31  C   UNL     1      -2.501 -10.988   0.036  0.00  0.00    +0.268 C 
ATOM     32  O   UNL     1      -2.285 -11.630   1.046  0.00  0.00    -0.268 OA
ATOM     33  N   UNL     1      -3.747 -10.933  -0.474  0.00  0.00    -0.293 N 
ATOM     34  C   UNL     1      -3.998 -10.282  -1.768  0.00  0.00    +0.127 C 
ATOM     35  C   UNL     1      -4.705 -11.283  -2.691  0.00  0.00    +0.126 C 
ATOM     36  N   UNL     1      -5.838 -11.873  -1.964  0.00  0.00    -0.299 N 
ATOM     37  C   UNL     1      -5.587 -12.524  -0.670  0.00  0.00    +0.126 C 
ATOM     38  C   UNL     1      -4.879 -11.528   0.250  0.00  0.00    +0.127 C 
ATOM     39  C   UNL     1      -7.084 -11.818  -2.474  0.00  0.00    +0.213 C 
ATOM     40  O   UNL     1      -7.265 -11.365  -3.585  0.00  0.00    -0.276 OA
ATOM     41  C   UNL     1      -8.252 -12.319  -1.665  0.00  0.00    +0.109 C 
ENDBRANCH  28  31
ENDBRANCH  25  26
ENDBRANCH   1  25
TORSDOF 10
