REMARK  Name = ZINC49720215
REMARK  7 active torsions:
REMARK  status: ('A' for Active; 'I' for Inactive)
REMARK    1  A    between atoms: C_5  and  S_14
REMARK    2  A    between atoms: C_6  and  N_7
REMARK    3  A    between atoms: N_7  and  C_8
REMARK    4  A    between atoms: S_14  and  N_17
REMARK    5  A    between atoms: C_18  and  C_19
REMARK    6  A    between atoms: C_19  and  N_20
REMARK    7  A    between atoms: N_23  and  C_24
REMARK                            x       y       z     vdW  Elec       q    Type
REMARK                         _______ _______ _______ _____ _____    ______ ____
ROOT
ATOM      1  S   UNL     1       1.147  -2.535  -0.216  0.00  0.00    +0.103 S 
ATOM      2  O   UNL     1       0.524  -3.213  -1.299  0.00  0.00    -0.146 OA
ATOM      3  O   UNL     1       2.537  -2.646   0.053  0.00  0.00    -0.146 OA
ENDROOT
BRANCH   1   8
ATOM      4  C   UNL     1      -0.701   0.988  -0.862  0.00  0.00    +0.042 A 
ATOM      5  C   UNL     1       0.371   1.850  -0.766  0.00  0.00    +0.084 A 
ATOM      6  N   UNL     1       1.586   1.395  -0.520  0.00  0.00    -0.365 N 
ATOM      7  C   UNL     1       1.828   0.108  -0.356  0.00  0.00    +0.113 A 
ATOM      8  C   UNL     1       0.811  -0.819  -0.436  0.00  0.00    +0.149 A 
ATOM      9  C   UNL     1      -0.487  -0.380  -0.695  0.00  0.00    +0.057 A 
ATOM     10  H   UNL     1       2.321   2.025  -0.459  0.00  0.00    +0.165 HD
BRANCH   9  11
ATOM     11  N   UNL     1      -1.542  -1.283  -0.783  0.00  0.00    -0.339 N 
ATOM     12  H   UNL     1      -1.380  -2.232  -0.665  0.00  0.00    +0.146 HD
BRANCH  11  13
ATOM     13  C   UNL     1      -2.899  -0.801  -1.055  0.00  0.00    +0.070 C 
ATOM     14  C   UNL     1      -3.094  -0.651  -2.565  0.00  0.00    +0.022 C 
ATOM     15  C   UNL     1      -4.510  -0.147  -2.849  0.00  0.00    +0.002 C 
ATOM     16  C   UNL     1      -5.527  -1.150  -2.300  0.00  0.00    +0.000 C 
ATOM     17  C   UNL     1      -5.333  -1.300  -0.790  0.00  0.00    +0.002 C 
ATOM     18  C   UNL     1      -3.916  -1.804  -0.507  0.00  0.00    +0.022 C 
ENDBRANCH  11  13
ENDBRANCH   9  11
ENDBRANCH   1   8
BRANCH   1  19
ATOM     19  N   UNL     1       0.358  -3.015   1.159  0.00  0.00    -0.116 NA
ATOM     20  C   UNL     1       0.380  -4.258   1.515  0.00  0.00    +0.144 C 
ATOM     21  N   UNL     1      -0.387  -4.682   2.569  0.00  0.00    -0.327 N 
ATOM     22  H   UNL     1      -0.432  -5.626   2.787  0.00  0.00    +0.148 HD
BRANCH  21  23
ATOM     23  C   UNL     1      -1.139  -3.709   3.365  0.00  0.00    +0.072 C 
ATOM     24  C   UNL     1      -0.230  -3.127   4.450  0.00  0.00    +0.022 C 
ATOM     25  C   UNL     1      -1.015  -2.111   5.282  0.00  0.00    +0.002 C 
ATOM     26  C   UNL     1      -2.212  -2.804   5.937  0.00  0.00    +0.000 C 
ATOM     27  C   UNL     1      -3.120  -3.386   4.852  0.00  0.00    +0.002 C 
ATOM     28  C   UNL     1      -2.335  -4.402   4.020  0.00  0.00    +0.022 C 
ENDBRANCH  21  23
BRANCH  20  29
ATOM     29  C   UNL     1       1.248  -5.241   0.772  0.00  0.00    +0.283 C 
BRANCH  29  30
ATOM     30  N   UNL     1       1.216  -6.536   1.456  0.00  0.00    +0.030 N 
ATOM     31  O   UNL     1       1.011  -7.547   0.826  0.00  0.00    -0.131 OA
ATOM     32  O   UNL     1       1.394  -6.593   2.651  0.00  0.00    -0.131 OA
ENDBRANCH  29  30
ENDBRANCH  20  29
ENDBRANCH   1  19
TORSDOF 7
