REMARK  Name = ZINC31920166
REMARK  4 active torsions:
REMARK  status: ('A' for Active; 'I' for Inactive)
REMARK    1  A    between atoms: C_1  and  C_2
REMARK    2  A    between atoms: C_2  and  C_4
REMARK    3  A    between atoms: C_2  and  O_23
REMARK    4  A    between atoms: C_5  and  C_14
REMARK                            x       y       z     vdW  Elec       q    Type
REMARK                         _______ _______ _______ _____ _____    ______ ____
ROOT
ATOM      1  C   UNL     1       3.909  -0.274   0.327  0.00  0.00    +0.079 A 
ATOM      2  C   UNL     1       4.791   0.764   0.302  0.00  0.00    +0.096 A 
ATOM      3  N   UNL     1       4.093   1.910   0.269  0.00  0.00    -0.227 NA
ATOM      4  C   UNL     1       2.798   1.629   0.274  0.00  0.00    +0.139 A 
ATOM      5  N   UNL     1       2.654   0.266   0.310  0.00  0.00    -0.299 N 
ATOM      6  C   UNL     1       1.410  -0.298   0.322  0.00  0.00    +0.113 A 
ATOM      7  C   UNL     1       0.303   0.476   0.298  0.00  0.00    +0.058 A 
ATOM      8  C   UNL     1       0.419   1.877   0.261  0.00  0.00    +0.025 A 
ATOM      9  C   UNL     1       1.652   2.450   0.249  0.00  0.00    +0.048 A 
ATOM     10 CL   UNL     1      -1.268  -0.261   0.313  0.00  0.00    -0.082 Cl
ENDROOT
BRANCH   2  11
ATOM     11  C   UNL     1       6.271   0.648   0.309  0.00  0.00    +0.006 A 
ATOM     12  C   UNL     1       6.914  -0.139  -0.644  0.00  0.00    +0.014 A 
ATOM     13  C   UNL     1       8.290  -0.245  -0.637  0.00  0.00    +0.050 A 
ATOM     14  C   UNL     1       9.037   0.428   0.318  0.00  0.00    +0.166 A 
ATOM     15  C   UNL     1       8.398   1.216   1.274  0.00  0.00    +0.167 A 
ATOM     16  C   UNL     1       7.019   1.330   1.266  0.00  0.00    +0.059 A 
ATOM     17  O   UNL     1       9.345   1.766   2.088  0.00  0.00    -0.453 OA
ATOM     18  C   UNL     1      10.589   1.637   1.374  0.00  0.00    +0.466 C 
ATOM     19  O   UNL     1      10.383   0.485   0.535  0.00  0.00    -0.453 OA
ENDBRANCH   2  11
BRANCH   1  21
ATOM     20  C   UNL     1       4.788  -2.101   1.756  0.00  0.00    +0.044 C 
ATOM     21  C   UNL     1       4.253  -1.740   0.368  0.00  0.00    +0.160 C 
BRANCH  21  22
ATOM     22  O   UNL     1       5.252  -2.023  -0.615  0.00  0.00    -0.386 OA
ATOM     23  H   UNL     1       5.048  -1.827  -1.678  0.00  0.00    +0.210 HD
ENDBRANCH  21  22
ENDBRANCH   1  21
TORSDOF 3
