REMARK  Name = ZINC21237762
REMARK  11 active torsions:
REMARK  status: ('A' for Active; 'I' for Inactive)
REMARK    1  A    between atoms: C_1  and  C_2
REMARK    2  A    between atoms: C_2  and  C_26
REMARK    3  A    between atoms: N_5  and  C_9
REMARK    4  A    between atoms: C_9  and  C_10
REMARK    5  A    between atoms: C_10  and  C_12
REMARK    6  A    between atoms: N_21  and  S_22
REMARK    7  A    between atoms: S_22  and  C_25
REMARK    8  A    between atoms: C_29  and  C_32
REMARK    9  A    between atoms: C_32  and  C_33
REMARK   10  A    between atoms: C_32  and  C_34
REMARK   11  A    between atoms: C_32  and  C_35
REMARK                            x       y       z     vdW  Elec       q    Type
REMARK                         _______ _______ _______ _____ _____    ______ ____
ROOT
ATOM      1  C   UNL     1       5.544   0.240   0.577  0.00  0.00    +0.047 C 
ATOM      2  C   UNL     1       4.159  -0.271   0.174  0.00  0.00    +0.135 C 
ATOM      3  C   UNL     1       3.076   0.638   0.721  0.00  0.00    +0.251 C 
ATOM      4  O   UNL     1       2.845   0.883   1.886  0.00  0.00    -0.272 OA
ATOM      5  N   UNL     1       2.424   1.117  -0.357  0.00  0.00    -0.216 N 
ATOM      6  C   UNL     1       2.944   0.648  -1.497  0.00  0.00    +0.310 C 
ATOM      7  O   UNL     1       2.527   0.941  -2.600  0.00  0.00    -0.252 OA
ATOM      8  N   UNL     1       3.979  -0.185  -1.285  0.00  0.00    -0.281 N 
ATOM      9  H   UNL     1       4.642  -0.752  -1.955  0.00  0.00    +0.152 HD
ENDROOT
BRANCH   2  10
ATOM     10  C   UNL     1       3.959  -1.686   0.651  0.00  0.00    -0.015 A 
ATOM     11  C   UNL     1       3.448  -1.925   1.913  0.00  0.00    +0.006 A 
ATOM     12  C   UNL     1       3.261  -3.224   2.349  0.00  0.00    +0.004 A 
ATOM     13  C   UNL     1       3.593  -4.283   1.526  0.00  0.00    -0.042 A 
ATOM     14  C   UNL     1       4.108  -4.045   0.265  0.00  0.00    +0.004 A 
ATOM     15  C   UNL     1       4.292  -2.746  -0.172  0.00  0.00    +0.006 A 
BRANCH  13  16
ATOM     16  C   UNL     1       3.393  -5.699   2.002  0.00  0.00    -0.013 C 
ATOM     17  C   UNL     1       4.738  -6.429   2.009  0.00  0.00    +0.015 C 
ATOM     18  C   UNL     1       2.815  -5.683   3.419  0.00  0.00    +0.015 C 
ATOM     19  C   UNL     1       2.425  -6.421   1.064  0.00  0.00    +0.015 C 
ENDBRANCH  13  16
ENDBRANCH   2  10
BRANCH   5  20
ATOM     20  C   UNL     1       1.291   2.043  -0.288  0.00  0.00    +0.197 C 
BRANCH  20  21
ATOM     21  C   UNL     1       0.006   1.258  -0.219  0.00  0.00    +0.181 C 
ATOM     22  O   UNL     1       0.034   0.046  -0.226  0.00  0.00    -0.290 OA
BRANCH  21  23
ATOM     23  C   UNL     1      -1.280   1.962  -0.150  0.00  0.00    +0.019 A 
ATOM     24  C   UNL     1      -1.315   3.363  -0.136  0.00  0.00    +0.013 A 
ATOM     25  C   UNL     1      -2.516   4.009  -0.074  0.00  0.00    +0.026 A 
ATOM     26  C   UNL     1      -3.704   3.281  -0.014  0.00  0.00    +0.054 A 
ATOM     27  C   UNL     1      -3.676   1.891  -0.025  0.00  0.00    -0.024 A 
ATOM     28  C   UNL     1      -2.475   1.236  -0.091  0.00  0.00    +0.017 A 
ATOM     29  C   UNL     1      -4.943   1.078   0.032  0.00  0.00    +0.038 C 
ATOM     30  C   UNL     1      -6.091   1.916   0.595  0.00  0.00    +0.025 C 
ATOM     31  C   UNL     1      -6.164   3.239  -0.179  0.00  0.00    +0.131 C 
ATOM     32  N   UNL     1      -4.912   3.969   0.059  0.00  0.00    -0.207 N 
BRANCH  32  33
ATOM     33  S   UNL     1      -4.937   5.588   0.408  0.00  0.00    +0.043 S 
ATOM     34  O   UNL     1      -6.271   5.848   0.822  0.00  0.00    -0.155 OA
ATOM     35  O   UNL     1      -3.850   5.782   1.303  0.00  0.00    -0.155 OA
ATOM     36  C   UNL     1      -4.601   6.411  -1.172  0.00  0.00    +0.218 C 
ENDBRANCH  32  33
ENDBRANCH  21  23
ENDBRANCH  20  21
ENDBRANCH   5  20
TORSDOF 6
