REMARK  Name = ZINC20291583
REMARK  12 active torsions:
REMARK  status: ('A' for Active; 'I' for Inactive)
REMARK    1  A    between atoms: C_1  and  C_2
REMARK    2  A    between atoms: C_2  and  N_3
REMARK    3  A    between atoms: N_3  and  C_4
REMARK    4  A    between atoms: N_3  and  C_6
REMARK    5  A    between atoms: C_4  and  C_5
REMARK    6  A    between atoms: C_6  and  C_7
REMARK    7  A    between atoms: C_7  and  C_8
REMARK    8  A    between atoms: C_8  and  N_9
REMARK    9  A    between atoms: C_10  and  C_30
REMARK   10  A    between atoms: C_12  and  C_17
REMARK   11  A    between atoms: C_17  and  C_19
REMARK   12  A    between atoms: C_26  and  C_29
REMARK                            x       y       z     vdW  Elec       q    Type
REMARK                         _______ _______ _______ _____ _____    ______ ____
ROOT
ATOM      1  N   UNL     1      -0.481  -2.237   0.478  0.00  0.00    -0.284 N 
ATOM      2  C   UNL     1       0.190  -0.979   0.823  0.00  0.00    +0.145 C 
ATOM      3  C   UNL     1      -0.902   0.053   0.976  0.00  0.00    +0.076 C 
ATOM      4  C   UNL     1      -2.075  -0.581   0.743  0.00  0.00    +0.249 C 
ATOM      5  C   UNL     1      -1.805  -2.000   0.429  0.00  0.00    +0.288 C 
ATOM      6  O   UNL     1      -2.653  -2.830   0.170  0.00  0.00    -0.266 OA
ATOM      7  O   UNL     1      -3.299  -0.007   0.787  0.00  0.00    -0.282 OA
ENDROOT
BRANCH   2   8
ATOM      8  C   UNL     1       1.133  -0.575  -0.282  0.00  0.00    -0.021 A 
ATOM      9  C   UNL     1       0.742  -0.694  -1.603  0.00  0.00    +0.006 A 
ATOM     10  C   UNL     1       1.604  -0.319  -2.616  0.00  0.00    +0.001 A 
ATOM     11  C   UNL     1       2.862   0.166  -2.309  0.00  0.00    +0.015 A 
ATOM     12  C   UNL     1       3.256   0.280  -0.988  0.00  0.00    +0.018 A 
ATOM     13  C   UNL     1       2.390  -0.091   0.026  0.00  0.00    +0.021 A 
ATOM     14 BR   UNL     1       4.976   0.942  -0.568  0.00  0.00    -0.050 Br
ENDBRANCH   2   8
BRANCH   3  15
ATOM     15  C   UNL     1      -0.727   1.468   1.319  0.00  0.00    +0.195 C 
ATOM     16  O   UNL     1      -1.005   2.330   0.506  0.00  0.00    -0.287 OA
BRANCH  15  17
ATOM     17  C   UNL     1      -0.212   1.847   2.649  0.00  0.00    +0.023 A 
ATOM     18  C   UNL     1       0.029   0.867   3.617  0.00  0.00    +0.015 A 
ATOM     19  C   UNL     1       0.517   1.221   4.852  0.00  0.00    +0.046 A 
ATOM     20  C   UNL     1       0.770   2.560   5.156  0.00  0.00    +0.124 A 
ATOM     21  C   UNL     1       0.517   3.533   4.192  0.00  0.00    -0.002 A 
ATOM     22  C   UNL     1       0.034   3.191   2.954  0.00  0.00    +0.019 A 
ATOM     23  C   UNL     1       0.871   4.872   4.810  0.00  0.00    +0.083 C 
ATOM     24  C   UNL     1       0.946   4.519   6.315  0.00  0.00    +0.175 C 
ATOM     25  O   UNL     1       1.257   3.116   6.298  0.00  0.00    -0.488 OA
ATOM     26  C   UNL     1       2.058   5.312   7.003  0.00  0.00    +0.052 C 
ENDBRANCH  15  17
ENDBRANCH   3  15
BRANCH   1  27
ATOM     27  C   UNL     1       0.173  -3.524   0.230  0.00  0.00    +0.107 C 
BRANCH  27  28
ATOM     28  C   UNL     1       0.292  -4.298   1.544  0.00  0.00    +0.000 C 
BRANCH  28  29
ATOM     29  C   UNL     1       0.975  -5.642   1.286  0.00  0.00    -0.077 C 
BRANCH  29  30
ATOM     30  N   UNL     1       1.089  -6.385   2.548  0.00  0.00    +0.379 N 
ATOM     31  H   UNL     1       1.562  -5.723   3.288  0.00  0.00    -0.082 HD
BRANCH  30  33
ATOM     32  C   UNL     1      -0.930  -7.679   2.052  0.00  0.00    -0.017 C 
ATOM     33  C   UNL     1      -0.236  -6.759   3.059  0.00  0.00    -0.082 C 
ENDBRANCH  30  33
BRANCH  30  34
ATOM     34  C   UNL     1       1.945  -7.567   2.388  0.00  0.00    -0.082 C 
ATOM     35  C   UNL     1       2.280  -8.145   3.764  0.00  0.00    -0.017 C 
ENDBRANCH  30  34
ENDBRANCH  29  30
ENDBRANCH  28  29
ENDBRANCH  27  28
ENDBRANCH   1  27
TORSDOF 9
