REMARK  Name = ZINC09221013
REMARK  9 active torsions:
REMARK  status: ('A' for Active; 'I' for Inactive)
REMARK    1  A    between atoms: C_1  and  C_2
REMARK    2  A    between atoms: C_5  and  N_9
REMARK    3  A    between atoms: C_6  and  C_8
REMARK    4  A    between atoms: C_10  and  C_31
REMARK    5  A    between atoms: C_13  and  S_14
REMARK    6  A    between atoms: S_14  and  C_15
REMARK    7  A    between atoms: C_15  and  C_16
REMARK    8  A    between atoms: N_18  and  C_19
REMARK    9  A    between atoms: C_19  and  C_20
REMARK                            x       y       z     vdW  Elec       q    Type
REMARK                         _______ _______ _______ _____ _____    ______ ____
ROOT
ATOM      1  N   UNL     1       1.068   2.584   0.006  0.00  0.00    -0.270 N 
ATOM      2  C   UNL     1       0.561   3.866   0.017  0.00  0.00    +0.171 A 
ATOM      3  N   UNL     1      -0.747   3.762   0.028  0.00  0.00    -0.128 NA
ATOM      4  N   UNL     1      -1.090   2.523   0.020  0.00  0.00    -0.122 NA
ATOM      5  C   UNL     1      -0.022   1.758   0.012  0.00  0.00    +0.197 A 
ENDROOT
BRANCH   1  10
ATOM      6  C   UNL     1       6.533   1.054  -0.053  0.00  0.00    +0.044 C 
ATOM      7  C   UNL     1       5.082   1.461  -0.038  0.00  0.00    -0.050 A 
ATOM      8  C   UNL     1       4.406   1.652  -1.229  0.00  0.00    +0.005 A 
ATOM      9  C   UNL     1       3.075   2.020  -1.218  0.00  0.00    +0.027 A 
ATOM     10  C   UNL     1       2.418   2.207  -0.009  0.00  0.00    +0.053 A 
ATOM     11  C   UNL     1       3.099   2.014   1.185  0.00  0.00    -0.026 A 
ATOM     12  C   UNL     1       4.429   1.642   1.167  0.00  0.00    +0.008 A 
ATOM     13  C   UNL     1       2.389   2.211   2.499  0.00  0.00    +0.046 C 
ENDBRANCH   1  10
BRANCH   2  14
ATOM     14  C   UNL     1       1.343   5.120   0.015  0.00  0.00    +0.038 A 
ATOM     15  C   UNL     1       0.733   6.340   0.333  0.00  0.00    +0.014 A 
ATOM     16  C   UNL     1       1.511   7.484   0.323  0.00  0.00    +0.020 A 
ATOM     17  C   UNL     1       2.850   7.390  -0.010  0.00  0.00    +0.111 A 
ATOM     18  N   UNL     1       3.397   6.227  -0.311  0.00  0.00    -0.263 NA
ATOM     19  C   UNL     1       2.700   5.110  -0.309  0.00  0.00    +0.122 A 
ENDBRANCH   2  14
BRANCH   5  20
ATOM     20  S   UNL     1       0.002  -0.004   0.002  0.00  0.00    -0.076 S 
BRANCH  20  21
ATOM     21  C   UNL     1      -1.776  -0.343   0.017  0.00  0.00    +0.173 C 
BRANCH  21  22
ATOM     22  C   UNL     1      -2.004  -1.832   0.011  0.00  0.00    +0.223 C 
ATOM     23  O   UNL     1      -1.057  -2.590  -0.002  0.00  0.00    -0.275 OA
ATOM     24  N   UNL     1      -3.259  -2.322   0.021  0.00  0.00    -0.311 N 
ATOM     25  H   UNL     1      -4.016  -1.716   0.031  0.00  0.00    +0.149 HD
BRANCH  24  26
ATOM     26  C   UNL     1      -3.481  -3.770   0.015  0.00  0.00    +0.152 C 
BRANCH  26  27
ATOM     27  C   UNL     1      -4.984  -4.056   0.028  0.00  0.00    +0.228 C 
ATOM     28  C   UNL     1      -5.222  -5.570   0.118  0.00  0.00    +0.275 C 
ATOM     29  O   UNL     1      -6.634  -5.802   0.114  0.00  0.00    -0.485 OA
ATOM     30  C   UNL     1      -7.363  -5.127  -0.817  0.00  0.00    +0.162 A 
ATOM     31  C   UNL     1      -8.646  -5.557  -1.119  0.00  0.00    +0.049 A 
ATOM     32  C   UNL     1      -9.399  -4.880  -2.060  0.00  0.00    +0.004 A 
ATOM     33  C   UNL     1      -8.876  -3.773  -2.701  0.00  0.00    +0.004 A 
ATOM     34  C   UNL     1      -7.597  -3.340  -2.405  0.00  0.00    +0.049 A 
ATOM     35  C   UNL     1      -6.835  -4.016  -1.464  0.00  0.00    +0.163 A 
ATOM     36  O   UNL     1      -5.576  -3.580  -1.186  0.00  0.00    -0.480 OA
ENDBRANCH  26  27
ENDBRANCH  24  26
ENDBRANCH  21  22
ENDBRANCH  20  21
ENDBRANCH   5  20
TORSDOF 7
