REMARK  Name = ZINC45899309
REMARK  10 active torsions:
REMARK  status: ('A' for Active; 'I' for Inactive)
REMARK    1  A    between atoms: C_1  and  C_2
REMARK    2  A    between atoms: C_3  and  N_9
REMARK    3  A    between atoms: C_10  and  C_12
REMARK    4  A    between atoms: C_12  and  N_13
REMARK    5  A    between atoms: N_22  and  C_25
REMARK    6  A    between atoms: C_28  and  C_31
REMARK    7  A    between atoms: C_31  and  C_32
REMARK    8  A    between atoms: N_34  and  C_35
REMARK    9  A    between atoms: C_35  and  C_36
REMARK   10  A    between atoms: C_35  and  C_37
REMARK                            x       y       z     vdW  Elec       q    Type
REMARK                         _______ _______ _______ _____ _____    ______ ____
ROOT
ATOM      1  N   UNL     1       0.296  -0.835  -5.990  0.00  0.00    -0.284 N 
ATOM      2  C   UNL     1       1.547  -1.263  -6.413  0.00  0.00    +0.059 A 
ATOM      3  C   UNL     1       2.710  -0.822  -5.802  0.00  0.00    +0.027 A 
ATOM      4  C   UNL     1       3.935  -1.271  -6.255  0.00  0.00    +0.002 A 
ATOM      5  C   UNL     1       4.013  -2.161  -7.315  0.00  0.00    +0.001 A 
ATOM      6  C   UNL     1       2.867  -2.611  -7.935  0.00  0.00    +0.015 A 
ATOM      7  C   UNL     1       1.625  -2.165  -7.489  0.00  0.00    +0.064 A 
ATOM      8  C   UNL     1       0.369  -2.613  -8.115  0.00  0.00    +0.269 A 
ATOM      9  O   UNL     1       0.381  -3.393  -9.048  0.00  0.00    -0.266 OA
ATOM     10  N   UNL     1      -0.796  -2.136  -7.627  0.00  0.00    -0.228 N 
ATOM     11  C   UNL     1      -0.820  -1.279  -6.594  0.00  0.00    +0.337 A 
ATOM     12  O   UNL     1      -1.896  -0.884  -6.190  0.00  0.00    -0.246 OA
ENDROOT
BRANCH  10  13
ATOM     13  C   UNL     1      -2.004  -2.547  -8.206  0.00  0.00    +0.054 A 
ATOM     14  C   UNL     1      -2.402  -3.874  -8.117  0.00  0.00    +0.027 A 
ATOM     15  C   UNL     1      -3.593  -4.277  -8.688  0.00  0.00    +0.006 A 
ATOM     16  C   UNL     1      -4.389  -3.359  -9.349  0.00  0.00    -0.038 A 
ATOM     17  C   UNL     1      -3.996  -2.037  -9.439  0.00  0.00    +0.006 A 
ATOM     18  C   UNL     1      -2.809  -1.627  -8.864  0.00  0.00    +0.027 A 
BRANCH  16  19
ATOM     19  C   UNL     1      -5.688  -3.801  -9.972  0.00  0.00    +0.130 C 
BRANCH  19  20
ATOM     20  C   UNL     1      -6.801  -3.664  -8.965  0.00  0.00    +0.218 C 
ATOM     21  O   UNL     1      -6.563  -3.248  -7.851  0.00  0.00    -0.275 OA
ATOM     22  N   UNL     1      -8.061  -4.004  -9.302  0.00  0.00    -0.313 N 
ATOM     23  H   UNL     1      -8.251  -4.337 -10.193  0.00  0.00    +0.149 HD
BRANCH  22  24
ATOM     24  C   UNL     1      -9.143  -3.871  -8.323  0.00  0.00    +0.067 C 
ATOM     25  C   UNL     1     -10.475  -3.704  -9.056  0.00  0.00    +0.027 C 
ATOM     26  C   UNL     1      -9.195  -5.124  -7.448  0.00  0.00    +0.027 C 
ENDBRANCH  22  24
ENDBRANCH  19  20
ENDBRANCH  16  19
ENDBRANCH  10  13
BRANCH   1  27
ATOM     27  C   UNL     1       0.192   0.104  -4.871  0.00  0.00    +0.222 C 
BRANCH  27  29
ATOM     28  N   UNL     1      -0.008  -0.002  -2.408  0.00  0.00    -0.284 N 
ATOM     29  C   UNL     1       0.097  -0.663  -3.578  0.00  0.00    +0.237 C 
ATOM     30  O   UNL     1       0.116  -1.876  -3.590  0.00  0.00    -0.274 OA
ATOM     31  H   UNL     1      -0.104   0.963  -2.403  0.00  0.00    +0.155 HD
BRANCH  28  34
ATOM     32  C   UNL     1      -1.260   1.167  -0.136  0.00  0.00    +0.047 C 
ATOM     33  C   UNL     1      -0.577  -0.174  -0.067  0.00  0.00    -0.011 A 
ATOM     34  C   UNL     1       0.022  -0.709  -1.200  0.00  0.00    +0.038 A 
ATOM     35  C   UNL     1       0.650  -1.945  -1.133  0.00  0.00    +0.023 A 
ATOM     36  C   UNL     1       0.677  -2.641   0.061  0.00  0.00    +0.003 A 
ATOM     37  C   UNL     1       0.080  -2.107   1.187  0.00  0.00    +0.020 A 
ATOM     38  C   UNL     1      -0.542  -0.872   1.125  0.00  0.00    +0.046 A 
ATOM     39 CL   UNL     1      -1.284  -0.202   2.545  0.00  0.00    -0.083 Cl
ENDBRANCH  28  34
ENDBRANCH  27  29
ENDBRANCH   1  27
TORSDOF 7
