REMARK  Name = ZINC20267788
REMARK  8 active torsions:
REMARK  status: ('A' for Active; 'I' for Inactive)
REMARK    1  A    between atoms: C_4  and  C_7
REMARK    2  A    between atoms: C_7  and  C_8
REMARK    3  A    between atoms: C_8  and  C_9
REMARK    4  A    between atoms: C_11  and  C_30
REMARK    5  A    between atoms: C_11  and  C_34
REMARK    6  A    between atoms: N_19  and  C_22
REMARK    7  A    between atoms: C_22  and  C_23
REMARK    8  A    between atoms: C_23  and  C_24
REMARK                            x       y       z     vdW  Elec       q    Type
REMARK                         _______ _______ _______ _____ _____    ______ ____
ROOT
ATOM      1  C   UNL     1       5.492  -1.419   1.105  0.00  0.00    +0.097 C 
ATOM      2  N   UNL     1       6.133  -1.816   0.066  0.00  0.00    -0.244 NA
ATOM      3  C   UNL     1       7.294  -2.695   0.132  0.00  0.00    +0.284 C 
ATOM      4  C   UNL     1       7.394  -3.364   1.472  0.00  0.00    +0.100 A 
ATOM      5  C   UNL     1       8.223  -4.484   1.649  0.00  0.00    +0.262 A 
ATOM      6  O   UNL     1       8.868  -4.926   0.713  0.00  0.00    -0.267 OA
ATOM      7  N   UNL     1       8.300  -5.067   2.863  0.00  0.00    -0.275 N 
ATOM      8  H   UNL     1       8.871  -5.840   2.989  0.00  0.00    +0.173 HD
ATOM      9  C   UNL     1       7.593  -4.585   3.901  0.00  0.00    +0.331 A 
ATOM     10  O   UNL     1       7.680  -5.125   4.987  0.00  0.00    -0.246 OA
ATOM     11  N   UNL     1       6.791  -3.513   3.755  0.00  0.00    -0.281 N 
ATOM     12  C   UNL     1       6.681  -2.894   2.536  0.00  0.00    +0.119 A 
ATOM     13  N   UNL     1       5.860  -1.801   2.372  0.00  0.00    -0.289 N 
ATOM     14  H   UNL     1       5.541  -1.308   3.143  0.00  0.00    +0.155 HD
ENDROOT
BRANCH   3  15
ATOM     15  C   UNL     1       7.175  -3.764  -0.956  0.00  0.00    +0.428 C 
ATOM     16  F   UNL     1       6.744  -3.172  -2.148  0.00  0.00    -0.167 F 
ATOM     17  F   UNL     1       8.423  -4.364  -1.158  0.00  0.00    -0.167 F 
ATOM     18  F   UNL     1       6.250  -4.735  -0.556  0.00  0.00    -0.167 F 
ENDBRANCH   3  15
BRANCH   3  19
ATOM     19  C   UNL     1       8.560  -1.871  -0.113  0.00  0.00    +0.428 C 
ATOM     20  F   UNL     1       8.667  -0.877   0.866  0.00  0.00    -0.167 F 
ATOM     21  F   UNL     1       9.680  -2.708  -0.052  0.00  0.00    -0.167 F 
ATOM     22  F   UNL     1       8.492  -1.275  -1.377  0.00  0.00    -0.167 F 
ENDBRANCH   3  19
BRANCH   1  23
ATOM     23  C   UNL     1       4.309  -0.503   0.931  0.00  0.00    +0.076 C 
BRANCH  23  24
ATOM     24  C   UNL     1       4.097  -0.221  -0.558  0.00  0.00    +0.042 C 
BRANCH  24  28
ATOM     25  C   UNL     1       0.741   2.375  -1.054  0.00  0.00    +0.000 A 
ATOM     26  C   UNL     1       2.008   2.906  -0.896  0.00  0.00    +0.000 A 
ATOM     27  C   UNL     1       3.094   2.065  -0.735  0.00  0.00    +0.003 A 
ATOM     28  C   UNL     1       2.913   0.695  -0.732  0.00  0.00    -0.047 A 
ATOM     29  C   UNL     1       1.646   0.165  -0.889  0.00  0.00    +0.003 A 
ATOM     30  C   UNL     1       0.560   1.005  -1.052  0.00  0.00    +0.000 A 
ENDBRANCH  24  28
ENDBRANCH  23  24
ENDBRANCH   1  23
BRANCH  11  31
ATOM     31  C   UNL     1       6.031  -3.008   4.902  0.00  0.00    +0.133 C 
BRANCH  31  32
ATOM     32  C   UNL     1       6.866  -1.963   5.645  0.00  0.00    +0.057 C 
BRANCH  32  33
ATOM     33  C   UNL     1       6.085  -1.443   6.825  0.00  0.00    -0.046 A 
ATOM     34  C   UNL     1       5.256  -0.347   6.676  0.00  0.00    +0.004 A 
ATOM     35  C   UNL     1       4.540   0.130   7.758  0.00  0.00    +0.000 A 
ATOM     36  C   UNL     1       4.652  -0.490   8.989  0.00  0.00    +0.000 A 
ATOM     37  C   UNL     1       5.479  -1.587   9.137  0.00  0.00    +0.000 A 
ATOM     38  C   UNL     1       6.192  -2.067   8.054  0.00  0.00    +0.004 A 
ENDBRANCH  32  33
ENDBRANCH  31  32
ENDBRANCH  11  31
TORSDOF 8
