REMARK  Name = ZINC27820101
REMARK  8 active torsions:
REMARK  status: ('A' for Active; 'I' for Inactive)
REMARK    1  A    between atoms: C_1  and  C_2
REMARK    2  A    between atoms: C_2  and  N_3
REMARK    3  A    between atoms: C_12  and  S_13
REMARK    4  A    between atoms: S_13  and  C_14
REMARK    5  A    between atoms: C_14  and  C_16
REMARK    6  A    between atoms: C_14  and  C_17
REMARK    7  A    between atoms: N_19  and  C_20
REMARK    8  A    between atoms: C_23  and  N_27
REMARK                            x       y       z     vdW  Elec       q    Type
REMARK                         _______ _______ _______ _____ _____    ______ ____
ROOT
ATOM      1  C   UNL     1       1.280   1.979   0.019  0.00  0.00    +0.137 C 
ATOM      2  C   UNL     1       1.658   2.335   1.458  0.00  0.00    +0.029 C 
ENDROOT
BRANCH   1   3
ATOM      3  C   UNL     1      -0.015   1.208   0.015  0.00  0.00    +0.230 C 
ATOM      4  O   UNL     1       0.001  -0.005   0.005  0.00  0.00    -0.274 OA
ATOM      5  N   UNL     1      -1.191   1.867   0.018  0.00  0.00    -0.283 N 
ATOM      6  H   UNL     1      -1.207   2.963   0.102  0.00  0.00    +0.155 HD
BRANCH   5   7
ATOM      7  C   UNL     1      -2.392   1.155  -0.086  0.00  0.00    +0.052 A 
ATOM      8  C   UNL     1      -2.510  -0.099   0.499  0.00  0.00    +0.027 A 
ATOM      9  C   UNL     1      -3.696  -0.798   0.395  0.00  0.00    +0.034 A 
ATOM     10  C   UNL     1      -4.766  -0.252  -0.290  0.00  0.00    +0.128 A 
ATOM     11  C   UNL     1      -4.652   0.996  -0.874  0.00  0.00    +0.054 A 
ATOM     12  C   UNL     1      -3.469   1.704  -0.770  0.00  0.00    +0.064 A 
ATOM     13 CL   UNL     1      -3.329   3.274  -1.497  0.00  0.00    -0.082 Cl
BRANCH  10  14
ATOM     14  N   UNL     1      -6.036  -1.005  -0.399  0.00  0.00    +0.056 N 
ATOM     15  O   UNL     1      -6.138  -2.104   0.115  0.00  0.00    -0.126 OA
ATOM     16  O   UNL     1      -6.979  -0.525  -1.002  0.00  0.00    -0.126 OA
ENDBRANCH  10  14
ENDBRANCH   5   7
ENDBRANCH   1   3
BRANCH   1  17
ATOM     17  S   UNL     1       2.588   0.964  -0.714  0.00  0.00    -0.075 S 
BRANCH  17  27
ATOM     18  N   UNL     1       5.122   1.738  -1.218  0.00  0.00    -0.287 N 
ATOM     19  C   UNL     1       6.147   2.623  -1.231  0.00  0.00    +0.269 A 
ATOM     20  O   UNL     1       7.242   2.306  -1.667  0.00  0.00    -0.266 OA
ATOM     21  C   UNL     1       5.919   3.904  -0.735  0.00  0.00    +0.102 A 
ATOM     22  C   UNL     1       4.663   4.285  -0.229  0.00  0.00    +0.086 A 
ATOM     23  C   UNL     1       4.577   5.605   0.237  0.00  0.00    +0.036 A 
ATOM     24  C   UNL     1       5.654   6.417   0.184  0.00  0.00    +0.048 A 
ATOM     25  S   UNL     1       6.902   5.367  -0.542  0.00  0.00    -0.090 S 
ATOM     26  N   UNL     1       3.687   3.330  -0.260  0.00  0.00    -0.222 NA
ATOM     27  C   UNL     1       3.910   2.129  -0.723  0.00  0.00    +0.173 A 
BRANCH  18  29
ATOM     28  C   UNL     1       4.978   0.343  -3.222  0.00  0.00    +0.027 C 
ATOM     29  C   UNL     1       5.309   0.378  -1.728  0.00  0.00    +0.124 C 
ENDBRANCH  18  29
ENDBRANCH  17  27
ENDBRANCH   1  17
TORSDOF 6
