REMARK  Name = ZINC63533466
REMARK  6 active torsions:
REMARK  status: ('A' for Active; 'I' for Inactive)
REMARK    1  A    between atoms: C_7  and  C_10
REMARK    2  A    between atoms: C_10  and  C_11
REMARK    3  A    between atoms: C_11  and  N_12
REMARK    4  A    between atoms: C_13  and  C_15
REMARK    5  A    between atoms: C_15  and  C_16
REMARK    6  A    between atoms: N_20  and  C_24
REMARK                            x       y       z     vdW  Elec       q    Type
REMARK                         _______ _______ _______ _____ _____    ______ ____
ROOT
ATOM      1  N   UNL     1      -0.458  -4.798  -1.460  0.00  0.00    -0.315 N 
ATOM      2  C   UNL     1      -0.811  -5.380  -2.623  0.00  0.00    +0.215 C 
ATOM      3  O   UNL     1      -0.371  -4.957  -3.671  0.00  0.00    -0.276 OA
ATOM      4  H   UNL     1      -0.810  -5.136  -0.622  0.00  0.00    +0.149 HD
ENDROOT
BRANCH   1   5
ATOM      5  C   UNL     1       0.457  -3.653  -1.462  0.00  0.00    +0.108 C 
BRANCH   5   6
ATOM      6  C   UNL     1       0.691  -3.186  -0.024  0.00  0.00    +0.052 C 
BRANCH   6  13
ATOM      7  C   UNL     1      -0.016   1.348   0.009  0.00  0.00    +0.001 A 
ATOM      8  C   UNL     1       1.166   2.101   0.002  0.00  0.00    +0.002 A 
ATOM      9  C   UNL     1       2.391   1.535  -0.013  0.00  0.00    +0.026 A 
ATOM     10  C   UNL     1       2.529   0.120  -0.022  0.00  0.00    +0.043 A 
ATOM     11  N   UNL     1       3.587  -0.654  -0.037  0.00  0.00    -0.380 N 
ATOM     12  C   UNL     1       3.143  -2.053  -0.041  0.00  0.00    +0.144 C 
ATOM     13  C   UNL     1       1.631  -2.008  -0.025  0.00  0.00    -0.040 C 
ATOM     14  C   UNL     1       1.295  -0.698  -0.014  0.00  0.00    -0.001 A 
ATOM     15  C   UNL     1       0.002  -0.004   0.002  0.00  0.00    +0.010 A 
ATOM     16  H   UNL     1       4.509  -0.353  -0.045  0.00  0.00    +0.160 HD
ENDBRANCH   6  13
ENDBRANCH   5   6
ENDBRANCH   1   5
BRANCH   2  17
ATOM     17  C   UNL     1      -1.752  -6.557  -2.622  0.00  0.00    +0.127 C 
BRANCH  17  18
ATOM     18  C   UNL     1      -1.986  -7.025  -4.059  0.00  0.00    +0.170 C 
ATOM     19  C   UNL     1      -2.985  -8.165  -4.094  0.00  0.00    +0.244 C 
ATOM     20  O   UNL     1      -4.141  -8.136  -3.730  0.00  0.00    -0.273 OA
ATOM     21  N   UNL     1      -2.320  -9.216  -4.613  0.00  0.00    -0.221 N 
ATOM     22  C   UNL     1      -1.054  -8.902  -4.909  0.00  0.00    +0.309 C 
ATOM     23  O   UNL     1      -0.258  -9.685  -5.389  0.00  0.00    -0.252 OA
ATOM     24  N   UNL     1      -0.758  -7.619  -4.617  0.00  0.00    -0.287 N 
ATOM     25  H   UNL     1       0.093  -7.173  -4.749  0.00  0.00    +0.151 HD
BRANCH  21  26
ATOM     26  C   UNL     1      -2.912 -10.539  -4.827  0.00  0.00    +0.086 C 
ATOM     27  C   UNL     1      -2.136 -11.581  -4.019  0.00  0.00    +0.023 C 
ATOM     28  C   UNL     1      -2.754 -12.963  -4.242  0.00  0.00    +0.002 C 
ATOM     29  C   UNL     1      -2.687 -13.318  -5.729  0.00  0.00    +0.000 C 
ATOM     30  C   UNL     1      -3.462 -12.276  -6.537  0.00  0.00    +0.002 C 
ATOM     31  C   UNL     1      -2.844 -10.894  -6.314  0.00  0.00    +0.023 C 
ENDBRANCH  21  26
ENDBRANCH  17  18
ENDBRANCH   2  17
TORSDOF 6
