REMARK  Name = ZINC62721010
REMARK  4 active torsions:
REMARK  status: ('A' for Active; 'I' for Inactive)
REMARK    1  A    between atoms: C_1  and  C_2
REMARK    2  A    between atoms: C_2  and  O_3
REMARK    3  A    between atoms: O_3  and  C_4
REMARK    4  A    between atoms: C_12  and  C_15
REMARK                            x       y       z     vdW  Elec       q    Type
REMARK                         _______ _______ _______ _____ _____    ______ ____
ROOT
ATOM      1  C   UNL     1      -1.498  -1.844   0.006  0.00  0.00    +0.098 C 
ATOM      2  C   UNL     1      -0.406  -2.603  -0.003  0.00  0.00    +0.045 C 
ATOM      3  C   UNL     1      -0.534  -4.075   0.007  0.00  0.00    -0.035 C 
ATOM      4  C   UNL     1       0.517  -4.821   0.289  0.00  0.00    -0.022 C 
ATOM      5  C   UNL     1       0.450  -6.322   0.359  0.00  0.00    +0.035 C 
ATOM      6  C   UNL     1      -0.922  -6.726   0.918  0.00  0.00    +0.079 C 
ATOM      7  C   UNL     1      -1.972  -6.104   0.024  0.00  0.00    +0.144 C 
ATOM      8  O   UNL     1      -2.869  -6.780  -0.422  0.00  0.00    -0.296 OA
ATOM      9  C   UNL     1      -1.893  -4.644  -0.305  0.00  0.00    +0.051 C 
ATOM     10  C   UNL     1      -2.930  -3.842   0.486  0.00  0.00    +0.026 C 
ATOM     11  C   UNL     1      -2.894  -2.389   0.017  0.00  0.00    +0.075 C 
ATOM     12  C   UNL     1      -2.178  -4.456  -1.796  0.00  0.00    +0.024 C 
ENDROOT
BRANCH   1  13
ATOM     13  O   UNL     1      -1.339  -0.499   0.012  0.00  0.00    -0.496 OA
BRANCH  13  15
ATOM     14  C   UNL     1      -0.019   1.526   0.010  0.00  0.00    +0.048 C 
ATOM     15  C   UNL     1       0.002  -0.004   0.002  0.00  0.00    +0.225 C 
ENDBRANCH  13  15
ENDBRANCH   1  13
TORSDOF 2
