REMARK  Name = ZINC20155044
REMARK  12 active torsions:
REMARK  status: ('A' for Active; 'I' for Inactive)
REMARK    1  A    between atoms: C_1  and  C_2
REMARK    2  A    between atoms: C_2  and  O_3
REMARK    3  A    between atoms: O_3  and  C_4
REMARK    4  A    between atoms: C_4  and  C_6
REMARK    5  A    between atoms: C_9  and  N_12
REMARK    6  A    between atoms: C_13  and  C_15
REMARK    7  A    between atoms: C_17  and  N_36
REMARK    8  A    between atoms: C_20  and  N_21
REMARK    9  A    between atoms: C_22  and  C_24
REMARK   10  A    between atoms: C_24  and  N_25
REMARK   11  A    between atoms: N_25  and  C_26
REMARK   12  A    between atoms: C_26  and  C_27
REMARK                            x       y       z     vdW  Elec       q    Type
REMARK                         _______ _______ _______ _____ _____    ______ ____
ROOT
ATOM      1  C   UNL     1      11.828  -2.561   0.165  0.00  0.00    +0.060 A 
ATOM      2  C   UNL     1      12.637  -3.020  -0.877  0.00  0.00    +0.047 A 
ATOM      3  C   UNL     1      12.103  -3.198  -2.135  0.00  0.00    +0.127 A 
ATOM      4  C   UNL     1      10.764  -2.930  -2.371  0.00  0.00    +0.034 A 
ATOM      5  C   UNL     1       9.951  -2.482  -1.350  0.00  0.00    +0.026 A 
ATOM      6  C   UNL     1      10.472  -2.296  -0.076  0.00  0.00    +0.046 A 
ENDROOT
BRANCH   1   8
ATOM      7  N   UNL     1      13.717  -2.522   1.717  0.00  0.00    -0.281 N 
ATOM      8  C   UNL     1      12.395  -2.362   1.512  0.00  0.00    +0.250 C 
ATOM      9  O   UNL     1      11.669  -2.054   2.438  0.00  0.00    -0.270 OA
ATOM     10  H   UNL     1      14.359  -2.891   0.904  0.00  0.00    +0.155 HD
BRANCH   7  14
ATOM     11  C   UNL     1      15.373  -1.616   5.429  0.00  0.00    +0.059 A 
ATOM     12  C   UNL     1      15.993  -2.551   4.595  0.00  0.00    +0.017 A 
ATOM     13  C   UNL     1      15.443  -2.848   3.368  0.00  0.00    +0.024 A 
ATOM     14  C   UNL     1      14.271  -2.219   2.959  0.00  0.00    +0.034 A 
ATOM     15  C   UNL     1      13.654  -1.284   3.785  0.00  0.00    +0.024 A 
ATOM     16  C   UNL     1      14.196  -0.986   5.015  0.00  0.00    +0.017 A 
BRANCH  11  17
ATOM     17  C   UNL     1      15.959  -1.296   6.744  0.00  0.00    +0.339 C 
ATOM     18  O   UNL     1      16.982  -1.845   7.103  0.00  0.00    -0.245 OA
BRANCH  17  19
ATOM     19  O   UNL     1      15.360  -0.395   7.547  0.00  0.00    -0.461 OA
BRANCH  19  21
ATOM     20  C   UNL     1      15.175   0.912   9.594  0.00  0.00    +0.048 C 
ATOM     21  C   UNL     1      15.993  -0.129   8.827  0.00  0.00    +0.229 C 
ENDBRANCH  19  21
ENDBRANCH  17  19
ENDBRANCH  11  17
ENDBRANCH   7  14
ENDBRANCH   1   8
BRANCH   6  22
ATOM     22  N   UNL     1       9.653  -1.843   0.956  0.00  0.00    -0.286 N 
ATOM     23  C   UNL     1       8.553  -1.117   0.674  0.00  0.00    +0.200 C 
ATOM     24  O   UNL     1       8.332  -0.769  -0.467  0.00  0.00    -0.278 OA
ATOM     25  H   UNL     1       9.903  -2.079   2.001  0.00  0.00    +0.155 HD
BRANCH  23  26
ATOM     26  C   UNL     1       7.598  -0.737   1.776  0.00  0.00    +0.016 C 
BRANCH  26  27
ATOM     27  N   UNL     1       6.490   0.047   1.215  0.00  0.00    +0.387 N 
ATOM     28  H   UNL     1       6.887   0.958   0.744  0.00  0.00    -0.085 HD
ATOM     29  H   UNL     1       5.960  -0.555   0.462  0.00  0.00    -0.085 HD
BRANCH  27  30
ATOM     30  C   UNL     1       5.537   0.436   2.264  0.00  0.00    -0.046 C 
BRANCH  30  31
ATOM     31  C   UNL     1       4.416   1.237   1.651  0.00  0.00    -0.061 A 
ATOM     32  C   UNL     1       3.285   0.594   1.184  0.00  0.00    +0.005 A 
ATOM     33  C   UNL     1       2.255   1.324   0.621  0.00  0.00    +0.050 A 
ATOM     34  C   UNL     1       2.354   2.703   0.525  0.00  0.00    +0.166 A 
ATOM     35  C   UNL     1       3.493   3.350   0.997  0.00  0.00    +0.166 A 
ATOM     36  C   UNL     1       4.522   2.612   1.559  0.00  0.00    +0.051 A 
ATOM     37  O   UNL     1       3.350   4.692   0.790  0.00  0.00    -0.453 OA
ATOM     38  C   UNL     1       1.943   4.897   0.561  0.00  0.00    +0.466 C 
ATOM     39  O   UNL     1       1.496   3.639   0.023  0.00  0.00    -0.453 OA
ENDBRANCH  30  31
ENDBRANCH  27  30
ENDBRANCH  26  27
ENDBRANCH  23  26
ENDBRANCH   6  22
BRANCH   3  40
ATOM     40  N   UNL     1      12.964  -3.679  -3.239  0.00  0.00    +0.056 N 
ATOM     41  O   UNL     1      12.495  -3.837  -4.352  0.00  0.00    -0.126 OA
ATOM     42  O   UNL     1      14.141  -3.916  -3.035  0.00  0.00    -0.126 OA
ENDBRANCH   3  40
TORSDOF 11
