REMARK  Name = ZINC14801548
REMARK  6 active torsions:
REMARK  status: ('A' for Active; 'I' for Inactive)
REMARK    1  A    between atoms: C_4  and  C_7
REMARK    2  A    between atoms: C_7  and  N_8
REMARK    3  A    between atoms: N_8  and  C_9
REMARK    4  A    between atoms: C_9  and  C_10
REMARK    5  A    between atoms: C_22  and  C_24
REMARK    6  A    between atoms: C_28  and  N_30
REMARK                            x       y       z     vdW  Elec       q    Type
REMARK                         _______ _______ _______ _____ _____    ______ ____
ROOT
ATOM      1  N   UNL     1      -4.004  -1.806  -0.173  0.00  0.00    -0.286 N 
ATOM      2  C   UNL     1      -4.353  -0.983  -1.182  0.00  0.00    +0.247 C 
ATOM      3  O   UNL     1      -5.038  -0.004  -0.959  0.00  0.00    -0.270 OA
ENDROOT
BRANCH   2   4
ATOM      4  C   UNL     1      -3.902  -1.271  -2.560  0.00  0.00    +0.039 A 
ATOM      5  C   UNL     1      -2.725  -1.990  -2.776  0.00  0.00    +0.014 A 
ATOM      6  C   UNL     1      -2.313  -2.260  -4.064  0.00  0.00    +0.018 A 
ATOM      7  C   UNL     1      -3.058  -1.811  -5.142  0.00  0.00    +0.048 A 
ATOM      8  C   UNL     1      -4.224  -1.093  -4.933  0.00  0.00    +0.141 A 
ATOM      9  C   UNL     1      -4.649  -0.822  -3.650  0.00  0.00    +0.047 A 
ATOM     10 BR   UNL     1      -2.482  -2.180  -6.904  0.00  0.00    -0.048 Br
BRANCH   8  11
ATOM     11  N   UNL     1      -5.015  -0.617  -6.090  0.00  0.00    +0.058 N 
ATOM     12  O   UNL     1      -6.041   0.013  -5.908  0.00  0.00    -0.126 OA
ATOM     13  O   UNL     1      -4.640  -0.857  -7.224  0.00  0.00    -0.126 OA
ENDBRANCH   8  11
ENDBRANCH   2   4
BRANCH   1  14
ATOM     14  C   UNL     1      -4.559  -1.597   1.167  0.00  0.00    +0.143 C 
BRANCH  14  18
ATOM     15  C   UNL     1      -2.226   1.322   3.237  0.00  0.00    +0.000 A 
ATOM     16  C   UNL     1      -3.223   1.723   2.367  0.00  0.00    +0.000 A 
ATOM     17  C   UNL     1      -3.978   0.779   1.697  0.00  0.00    +0.005 A 
ATOM     18  C   UNL     1      -3.736  -0.568   1.897  0.00  0.00    -0.030 A 
ATOM     19  C   UNL     1      -2.743  -0.969   2.771  0.00  0.00    +0.005 A 
ATOM     20  C   UNL     1      -1.984  -0.024   3.437  0.00  0.00    +0.000 A 
ENDBRANCH  14  18
ENDBRANCH   1  14
BRANCH   1  21
ATOM     21  C   UNL     1      -3.070  -2.908  -0.416  0.00  0.00    +0.182 C 
BRANCH  21  22
ATOM     22  C   UNL     1      -1.674  -2.473  -0.051  0.00  0.00    +0.128 A 
ATOM     23  N   UNL     1      -0.660  -3.363  -0.208  0.00  0.00    -0.309 N 
ATOM     24  H   UNL     1      -0.849  -4.252  -0.547  0.00  0.00    +0.170 HD
ATOM     25  C   UNL     1       0.612  -3.022   0.105  0.00  0.00    +0.259 A 
ATOM     26  O   UNL     1       1.530  -3.809  -0.031  0.00  0.00    -0.267 OA
ATOM     27  C   UNL     1       0.841  -1.661   0.615  0.00  0.00    +0.065 A 
ATOM     28  C   UNL     1       2.112  -1.211   0.966  0.00  0.00    +0.015 A 
ATOM     29  C   UNL     1       2.270   0.074   1.439  0.00  0.00    +0.001 A 
ATOM     30  C   UNL     1       1.175   0.918   1.567  0.00  0.00    +0.002 A 
ATOM     31  C   UNL     1      -0.089   0.492   1.226  0.00  0.00    +0.028 A 
ATOM     32  C   UNL     1      -0.275  -0.805   0.744  0.00  0.00    +0.078 A 
ATOM     33  N   UNL     1      -1.502  -1.266   0.396  0.00  0.00    -0.232 NA
ENDBRANCH  21  22
ENDBRANCH   1  21
TORSDOF 6
