REMARK  Name = ZINC38890068
REMARK  6 active torsions:
REMARK  status: ('A' for Active; 'I' for Inactive)
REMARK    1  A    between atoms: C_1  and  C_2
REMARK    2  A    between atoms: C_7  and  N_8
REMARK    3  A    between atoms: N_8  and  C_9
REMARK    4  A    between atoms: C_9  and  C_10
REMARK    5  A    between atoms: C_22  and  C_24
REMARK    6  A    between atoms: C_27  and  N_30
REMARK                            x       y       z     vdW  Elec       q    Type
REMARK                         _______ _______ _______ _____ _____    ______ ____
ROOT
ATOM      1  N   UNL     1      -0.335   0.217   2.720  0.00  0.00    -0.266 N 
ATOM      2  C   UNL     1      -1.367   0.420   3.564  0.00  0.00    +0.251 C 
ATOM      3  O   UNL     1      -1.159   0.814   4.695  0.00  0.00    -0.270 OA
ENDROOT
BRANCH   1  10
ATOM      4  C   UNL     1       0.762  -2.332   2.095  0.00  0.00    +0.045 C 
ATOM      5  C   UNL     1      -0.051  -1.548   1.098  0.00  0.00    -0.029 A 
ATOM      6  C   UNL     1      -0.287  -2.065  -0.161  0.00  0.00    +0.005 A 
ATOM      7  C   UNL     1      -1.032  -1.345  -1.077  0.00  0.00    +0.000 A 
ATOM      8  C   UNL     1      -1.544  -0.106  -0.736  0.00  0.00    +0.002 A 
ATOM      9  C   UNL     1      -1.311   0.416   0.520  0.00  0.00    +0.024 A 
ATOM     10  C   UNL     1      -0.568  -0.306   1.445  0.00  0.00    +0.039 A 
ENDBRANCH   1  10
BRANCH   2  11
ATOM     11  C   UNL     1      -2.751   0.165   3.113  0.00  0.00    +0.037 A 
ATOM     12  C   UNL     1      -3.041  -0.964   2.345  0.00  0.00    +0.015 A 
ATOM     13  C   UNL     1      -4.335  -1.197   1.927  0.00  0.00    +0.033 A 
ATOM     14  C   UNL     1      -5.345  -0.315   2.269  0.00  0.00    +0.126 A 
ATOM     15  C   UNL     1      -5.064   0.806   3.031  0.00  0.00    +0.033 A 
ATOM     16  C   UNL     1      -3.775   1.047   3.460  0.00  0.00    +0.015 A 
BRANCH  14  17
ATOM     17  N   UNL     1      -6.731  -0.571   1.818  0.00  0.00    +0.056 N 
ATOM     18  O   UNL     1      -6.979  -1.549   1.153  0.00  0.00    -0.126 OA
ATOM     19  O   UNL     1      -7.615   0.198   2.116  0.00  0.00    -0.126 OA
ENDBRANCH  14  17
ENDBRANCH   2  11
BRANCH   1  20
ATOM     20  C   UNL     1       1.030   0.546   3.140  0.00  0.00    +0.131 C 
BRANCH  20  21
ATOM     21  C   UNL     1       1.265   2.049   2.980  0.00  0.00    +0.116 C 
ATOM     22  C   UNL     1       2.475   2.422   3.813  0.00  0.00    -0.003 C 
ATOM     23  C   UNL     1       3.524   3.006   3.166  0.00  0.00    -0.007 A 
ATOM     24  C   UNL     1       4.731   3.398   3.894  0.00  0.00    +0.009 A 
ATOM     25  C   UNL     1       5.750   3.977   3.209  0.00  0.00    +0.001 A 
ATOM     26  C   UNL     1       5.666   4.202   1.834  0.00  0.00    +0.002 A 
ATOM     27  C   UNL     1       4.573   3.862   1.102  0.00  0.00    +0.024 A 
ATOM     28  C   UNL     1       3.462   3.255   1.716  0.00  0.00    +0.040 A 
ATOM     29  N   UNL     1       2.396   2.925   0.987  0.00  0.00    -0.284 N 
ATOM     30  C   UNL     1       1.320   2.354   1.500  0.00  0.00    +0.226 C 
ATOM     31  O   UNL     1       0.377   2.076   0.783  0.00  0.00    -0.275 OA
ATOM     32  H   UNL     1       2.411   3.112   0.035  0.00  0.00    +0.155 HD
ENDBRANCH  20  21
ENDBRANCH   1  20
TORSDOF 5
