REMARK  Name = ZINC00930935
REMARK  8 active torsions:
REMARK  status: ('A' for Active; 'I' for Inactive)
REMARK    1  A    between atoms: C_4  and  C_7
REMARK    2  A    between atoms: C_7  and  N_8
REMARK    3  A    between atoms: N_8  and  C_9
REMARK    4  A    between atoms: C_9  and  C_11
REMARK    5  A    between atoms: C_9  and  C_18
REMARK    6  A    between atoms: C_14  and  O_17
REMARK    7  A    between atoms: N_20  and  C_21
REMARK    8  A    between atoms: C_27  and  C_29
REMARK                            x       y       z     vdW  Elec       q    Type
REMARK                         _______ _______ _______ _____ _____    ______ ____
ROOT
ATOM      1  N   UNL     1       2.929   5.579   0.888  0.00  0.00    -0.278 N 
ATOM      2  C   UNL     1       3.542   4.528   0.307  0.00  0.00    +0.261 C 
ATOM      3  O   UNL     1       3.573   4.436  -0.901  0.00  0.00    -0.271 OA
ENDROOT
BRANCH   2   4
ATOM      4  C   UNL     1       4.189   3.468   1.161  0.00  0.00    +0.296 C 
ATOM      5  C   UNL     1       3.107   2.602   1.820  0.00  0.00    +0.283 C 
ATOM      6  O   UNL     1       3.754   1.599   2.609  0.00  0.00    -0.484 OA
ATOM      7  C   UNL     1       4.791   0.936   2.027  0.00  0.00    +0.162 A 
ATOM      8  C   UNL     1       5.225  -0.263   2.572  0.00  0.00    +0.049 A 
ATOM      9  C   UNL     1       6.279  -0.945   1.994  0.00  0.00    +0.004 A 
ATOM     10  C   UNL     1       6.905  -0.433   0.873  0.00  0.00    +0.004 A 
ATOM     11  C   UNL     1       6.477   0.761   0.325  0.00  0.00    +0.049 A 
ATOM     12  C   UNL     1       5.419   1.450   0.898  0.00  0.00    +0.163 A 
ATOM     13  O   UNL     1       5.004   2.621   0.343  0.00  0.00    -0.473 OA
ENDBRANCH   2   4
BRANCH   1  14
ATOM     14  C   UNL     1       2.922   5.708   2.347  0.00  0.00    +0.144 C 
BRANCH  14  18
ATOM     15  C   UNL     1       6.410   7.830   3.605  0.00  0.00    +0.000 A 
ATOM     16  C   UNL     1       5.164   8.216   4.062  0.00  0.00    +0.000 A 
ATOM     17  C   UNL     1       4.035   7.529   3.655  0.00  0.00    +0.005 A 
ATOM     18  C   UNL     1       4.153   6.457   2.791  0.00  0.00    -0.030 A 
ATOM     19  C   UNL     1       5.399   6.068   2.337  0.00  0.00    +0.005 A 
ATOM     20  C   UNL     1       6.528   6.758   2.740  0.00  0.00    +0.000 A 
ENDBRANCH  14  18
ENDBRANCH   1  14
BRANCH   1  21
ATOM     21  C   UNL     1       2.269   6.591   0.060  0.00  0.00    +0.193 C 
BRANCH  21  22
ATOM     22  C   UNL     1       3.309   7.493  -0.554  0.00  0.00    -0.018 A 
ATOM     23  C   UNL     1       4.466   7.787   0.143  0.00  0.00    +0.009 A 
ATOM     24  C   UNL     1       5.423   8.609  -0.420  0.00  0.00    +0.046 A 
ATOM     25  C   UNL     1       5.216   9.150  -1.681  0.00  0.00    +0.117 A 
ATOM     26  C   UNL     1       4.052   8.858  -2.376  0.00  0.00    +0.046 A 
ATOM     27  C   UNL     1       3.101   8.030  -1.811  0.00  0.00    +0.009 A 
BRANCH  25  28
ATOM     28  O   UNL     1       6.153   9.964  -2.234  0.00  0.00    -0.507 OA
ATOM     29  H   UNL     1       6.031  10.901  -2.029  0.00  0.00    +0.292 HD
ENDBRANCH  25  28
ENDBRANCH  21  22
BRANCH  21  30
ATOM     30  C   UNL     1       1.336   7.409   0.915  0.00  0.00    +0.238 C 
ATOM     31  O   UNL     1       1.753   7.961   1.911  0.00  0.00    -0.273 OA
ATOM     32  N   UNL     1       0.038   7.527   0.573  0.00  0.00    -0.311 N 
ATOM     33  H   UNL     1      -0.296   7.085  -0.224  0.00  0.00    +0.149 HD
BRANCH  32  34
ATOM     34  C   UNL     1      -0.870   8.322   1.404  0.00  0.00    +0.073 C 
ATOM     35  C   UNL     1      -1.402   7.458   2.549  0.00  0.00    +0.022 C 
ATOM     36  C   UNL     1      -2.349   8.288   3.417  0.00  0.00    +0.002 C 
ATOM     37  C   UNL     1      -3.520   8.783   2.565  0.00  0.00    +0.000 C 
ATOM     38  C   UNL     1      -2.988   9.647   1.420  0.00  0.00    +0.002 C 
ATOM     39  C   UNL     1      -2.040   8.817   0.552  0.00  0.00    +0.022 C 
ENDBRANCH  32  34
ENDBRANCH  21  30
ENDBRANCH   1  21
TORSDOF 8
