REMARK  Name = ZINC05547088
REMARK  7 active torsions:
REMARK  status: ('A' for Active; 'I' for Inactive)
REMARK    1  A    between atoms: C_1  and  C_2
REMARK    2  A    between atoms: C_5  and  O_9
REMARK    3  A    between atoms: C_7  and  C_8
REMARK    4  A    between atoms: O_9  and  C_10
REMARK    5  A    between atoms: C_10  and  C_11
REMARK    6  A    between atoms: N_13  and  N_14
REMARK    7  A    between atoms: N_22  and  C_25
REMARK                            x       y       z     vdW  Elec       q    Type
REMARK                         _______ _______ _______ _____ _____    ______ ____
ROOT
ATOM      1  C   UNL     1      -3.386  -1.134   0.028  0.00  0.00    +0.270 C 
ATOM      2  O   UNL     1      -3.211  -2.333   0.020  0.00  0.00    -0.270 OA
ATOM      3  N   UNL     1      -2.328  -0.298   0.022  0.00  0.00    -0.203 N 
ATOM      4  H   UNL     1      -2.468   0.661   0.028  0.00  0.00    +0.177 HD
ENDROOT
BRANCH   3   5
ATOM      5  N   UNL     1      -1.026  -0.816   0.007  0.00  0.00    -0.174 NA
ATOM      6  C   UNL     1       0.002  -0.004   0.002  0.00  0.00    +0.153 C 
ATOM      7  C   UNL     1       1.438  -0.367  -0.014  0.00  0.00    +0.029 A 
ATOM      8  C   UNL     1       2.113  -1.583  -0.026  0.00  0.00    +0.027 A 
ATOM      9  C   UNL     1       3.494  -1.600  -0.039  0.00  0.00    +0.019 A 
ATOM     10  C   UNL     1       4.202  -0.409  -0.040  0.00  0.00    +0.017 A 
ATOM     11  C   UNL     1       3.541   0.802  -0.027  0.00  0.00    +0.025 A 
ATOM     12  C   UNL     1       2.151   0.839  -0.014  0.00  0.00    +0.046 A 
ATOM     13  N   UNL     1       1.255   1.903   0.000  0.00  0.00    -0.269 N 
ATOM     14  C   UNL     1      -0.018   1.473   0.010  0.00  0.00    +0.271 C 
ATOM     15  O   UNL     1      -1.011   2.176   0.019  0.00  0.00    -0.268 OA
ATOM     16  C   UNL     1       1.650   3.314   0.004  0.00  0.00    +0.138 C 
ATOM     17 BR   UNL     1       4.418  -3.250  -0.056  0.00  0.00    -0.050 Br
ENDBRANCH   3   5
BRANCH   1  18
ATOM     18  C   UNL     1      -4.786  -0.577   0.044  0.00  0.00    +0.326 C 
BRANCH  18  19
ATOM     19  O   UNL     1      -5.727  -1.652   0.047  0.00  0.00    -0.483 OA
BRANCH  19  24
ATOM     20  C   UNL     1     -11.187  -0.273   0.106  0.00  0.00    +0.044 C 
ATOM     21  C   UNL     1      -9.726  -0.642   0.090  0.00  0.00    -0.047 A 
ATOM     22  C   UNL     1      -8.764   0.351   0.085  0.00  0.00    +0.007 A 
ATOM     23  C   UNL     1      -7.424   0.015   0.071  0.00  0.00    +0.046 A 
ATOM     24  C   UNL     1      -7.044  -1.319   0.061  0.00  0.00    +0.121 A 
ATOM     25  C   UNL     1      -8.012  -2.313   0.059  0.00  0.00    +0.049 A 
ATOM     26  C   UNL     1      -9.351  -1.972   0.079  0.00  0.00    -0.044 A 
ATOM     27  C   UNL     1     -10.402  -3.052   0.083  0.00  0.00    +0.044 C 
ENDBRANCH  19  24
ENDBRANCH  18  19
ENDBRANCH   1  18
TORSDOF 4
