REMARK  Name = ZINC36207293
REMARK  17 active torsions:
REMARK  status: ('A' for Active; 'I' for Inactive)
REMARK    1  A    between atoms: C_1  and  C_2
REMARK    2  A    between atoms: C_2  and  C_3
REMARK    3  A    between atoms: C_9  and  C_18
REMARK    4  A    between atoms: C_13  and  C_14
REMARK    5  A    between atoms: C_14  and  O_16
REMARK    6  A    between atoms: O_16  and  C_17
REMARK    7  A    between atoms: C_18  and  N_19
REMARK    8  A    between atoms: N_19  and  C_20
REMARK    9  A    between atoms: N_19  and  C_24
REMARK   10  A    between atoms: C_20  and  C_21
REMARK   11  A    between atoms: C_21  and  O_22
REMARK   12  A    between atoms: O_22  and  C_23
REMARK   13  A    between atoms: C_24  and  C_25
REMARK   14  A    between atoms: C_25  and  C_27
REMARK   15  A    between atoms: C_25  and  O_36
REMARK   16  A    between atoms: C_27  and  O_28
REMARK   17  A    between atoms: O_28  and  C_29
REMARK                            x       y       z     vdW  Elec       q    Type
REMARK                         _______ _______ _______ _____ _____    ______ ____
ROOT
ATOM      1  N   UNL     1      -5.798  -2.083   4.009  0.00  0.00    +0.388 N 
ATOM      2  H   UNL     1      -6.306  -1.541   3.325  0.00  0.00    -0.081 HD
ENDROOT
BRANCH   1   3
ATOM      3  C   UNL     1      -4.479  -1.476   4.234  0.00  0.00    -0.003 C 
BRANCH   3  10
ATOM      4  C   UNL     1      -1.965  -1.073  -0.811  0.00  0.00    -0.012 A 
ATOM      5  C   UNL     1      -2.463  -1.111   0.493  0.00  0.00    +0.076 A 
ATOM      6  C   UNL     1      -1.827  -0.659   1.751  0.00  0.00    +0.260 A 
ATOM      7  O   UNL     1      -0.710  -0.171   1.747  0.00  0.00    -0.267 OA
ATOM      8  N   UNL     1      -2.514  -0.801   2.901  0.00  0.00    -0.312 N 
ATOM      9  H   UNL     1      -2.112  -0.509   3.734  0.00  0.00    +0.170 HD
ATOM     10  C   UNL     1      -3.757  -1.341   2.917  0.00  0.00    +0.094 A 
ATOM     11  N   UNL     1      -4.347  -1.750   1.827  0.00  0.00    -0.229 NA
ATOM     12  C   UNL     1      -3.759  -1.656   0.641  0.00  0.00    +0.116 A 
ATOM     13  S   UNL     1      -4.214  -2.084  -1.020  0.00  0.00    -0.062 S 
ATOM     14  C   UNL     1      -2.726  -1.541  -1.843  0.00  0.00    +0.102 A 
BRANCH   4  16
ATOM     15  C   UNL     1      -0.700   0.993  -1.345  0.00  0.00    +0.009 C 
ATOM     16  C   UNL     1      -0.593  -0.510  -1.079  0.00  0.00    +0.034 C 
ENDBRANCH   4  16
BRANCH  14  17
ATOM     17  C   UNL     1      -2.402  -1.588  -3.270  0.00  0.00    +0.346 C 
ATOM     18  O   UNL     1      -1.328  -1.173  -3.664  0.00  0.00    -0.244 OA
BRANCH  17  19
ATOM     19  O   UNL     1      -3.293  -2.093  -4.148  0.00  0.00    -0.464 OA
ATOM     20  C   UNL     1      -2.910  -2.108  -5.525  0.00  0.00    +0.280 C 
ENDBRANCH  17  19
ENDBRANCH  14  17
ENDBRANCH   3  10
ENDBRANCH   1   3
BRANCH   1  21
ATOM     21  C   UNL     1      -5.628  -3.456   3.518  0.00  0.00    -0.050 C 
BRANCH  21  22
ATOM     22  C   UNL     1      -6.992  -4.034   3.136  0.00  0.00    +0.141 C 
BRANCH  22  23
ATOM     23  O   UNL     1      -7.545  -3.278   2.057  0.00  0.00    -0.385 OA
ATOM     24  C   UNL     1      -8.826  -3.737   1.621  0.00  0.00    +0.193 C 
ENDBRANCH  22  23
ENDBRANCH  21  22
ENDBRANCH   1  21
BRANCH   1  25
ATOM     25  C   UNL     1      -6.549  -2.104   5.272  0.00  0.00    -0.043 C 
BRANCH  25  26
ATOM     26  C   UNL     1      -6.850  -0.669   5.710  0.00  0.00    +0.135 C 
BRANCH  26  27
ATOM     27  O   UNL     1      -7.632  -0.019   4.706  0.00  0.00    -0.390 OA
ATOM     28  H   UNL     1      -8.511  -0.402   4.583  0.00  0.00    +0.210 HD
ENDBRANCH  26  27
BRANCH  26  29
ATOM     29  C   UNL     1      -7.628  -0.691   7.028  0.00  0.00    +0.258 C 
BRANCH  29  30
ATOM     30  O   UNL     1      -7.808   0.646   7.497  0.00  0.00    -0.489 OA
BRANCH  30  31
ATOM     31  C   UNL     1      -8.485   0.804   8.665  0.00  0.00    +0.121 A 
ATOM     32  C   UNL     1      -8.960  -0.305   9.348  0.00  0.00    +0.047 A 
ATOM     33  C   UNL     1      -9.647  -0.142  10.535  0.00  0.00    +0.023 A 
ATOM     34  C   UNL     1      -9.862   1.127  11.043  0.00  0.00    +0.041 A 
ATOM     35  C   UNL     1      -9.390   2.235  10.362  0.00  0.00    +0.023 A 
ATOM     36  C   UNL     1      -8.696   2.076   9.178  0.00  0.00    +0.047 A 
ATOM     37 CL   UNL     1     -10.727   1.329  12.534  0.00  0.00    -0.084 Cl
ENDBRANCH  30  31
ENDBRANCH  29  30
ENDBRANCH  26  29
ENDBRANCH  25  26
ENDBRANCH   1  25
TORSDOF 14
