REMARK  Name = ZINC54415763
REMARK  5 active torsions:
REMARK  status: ('A' for Active; 'I' for Inactive)
REMARK    1  A    between atoms: C_3  and  N_8
REMARK    2  A    between atoms: C_9  and  C_11
REMARK    3  A    between atoms: C_14  and  N_19
REMARK    4  A    between atoms: C_15  and  N_17
REMARK    5  A    between atoms: N_17  and  N_18
REMARK                            x       y       z     vdW  Elec       q    Type
REMARK                         _______ _______ _______ _____ _____    ______ ____
ROOT
ATOM      1  C   UNL     1       6.022   2.225   0.186  0.00  0.00    +0.039 A 
ATOM      2  C   UNL     1       6.006   3.620   0.122  0.00  0.00    +0.015 A 
ATOM      3  C   UNL     1       7.187   4.328   0.201  0.00  0.00    +0.035 A 
ATOM      4  C   UNL     1       8.390   3.662   0.344  0.00  0.00    +0.148 A 
ATOM      5  C   UNL     1       8.417   2.274   0.409  0.00  0.00    +0.072 A 
ATOM      6  C   UNL     1       7.235   1.553   0.336  0.00  0.00    +0.039 A 
ENDROOT
BRANCH   1   8
ATOM      7  N   UNL     1       3.587   2.115  -0.044  0.00  0.00    -0.281 N 
ATOM      8  C   UNL     1       4.758   1.464   0.101  0.00  0.00    +0.248 C 
ATOM      9  O   UNL     1       4.774   0.250   0.161  0.00  0.00    -0.270 OA
ATOM     10  H   UNL     1       3.580   3.078  -0.169  0.00  0.00    +0.155 HD
BRANCH   7  13
ATOM     11  C   UNL     1       1.066  -0.418   0.818  0.00  0.00    +0.003 A 
ATOM     12  C   UNL     1       2.257   0.281   0.791  0.00  0.00    +0.023 A 
ATOM     13  C   UNL     1       2.383   1.405  -0.015  0.00  0.00    +0.035 A 
ATOM     14  C   UNL     1       1.310   1.822  -0.793  0.00  0.00    +0.037 A 
ATOM     15  C   UNL     1       0.122   1.118  -0.761  0.00  0.00    +0.015 A 
ATOM     16  C   UNL     1       0.000  -0.001   0.044  0.00  0.00    +0.014 A 
ATOM     17  I   UNL     1      -1.498   1.746  -1.933  0.00  0.00    -0.044 I 
ENDBRANCH   7  13
ENDBRANCH   1   8
BRANCH   4  18
ATOM     18  N   UNL     1       9.653   4.429   0.427  0.00  0.00    +0.058 N 
ATOM     19  O   UNL     1       9.685   5.477   1.029  0.00  0.00    -0.126 OA
ATOM     20  O   UNL     1      10.653   4.008  -0.106  0.00  0.00    -0.126 OA
ENDBRANCH   4  18
BRANCH   5  21
ATOM     21  N   UNL     1       9.636   1.605   0.553  0.00  0.00    -0.281 N 
ATOM     22  H   UNL     1      10.467   2.104   0.545  0.00  0.00    +0.166 HD
BRANCH  21  23
ATOM     23  N   UNL     1       9.656   0.247   0.704  0.00  0.00    -0.256 NA
ATOM     24  H   UNL     1      10.601  -0.092   0.796  0.00  0.00    +0.140 HD
ATOM     25  H   UNL     1       9.091  -0.037   1.491  0.00  0.00    +0.140 HD
ENDBRANCH  21  23
ENDBRANCH   5  21
TORSDOF 5
