REMARK  Name = ZINC09404309
REMARK  4 active torsions:
REMARK  status: ('A' for Active; 'I' for Inactive)
REMARK    1  A    between atoms: N_9  and  S_10
REMARK    2  A    between atoms: S_10  and  C_13
REMARK    3  A    between atoms: C_16  and  C_19
REMARK    4  A    between atoms: C_24  and  C_27
REMARK                            x       y       z     vdW  Elec       q    Type
REMARK                         _______ _______ _______ _____ _____    ______ ____
ROOT
ATOM      1  C   UNL     1       0.040  -2.773  -0.014  0.00  0.00    +0.109 A 
ATOM      2  C   UNL     1      -1.170  -2.101   0.002  0.00  0.00    +0.029 A 
ATOM      3  C   UNL     1      -1.195  -0.722   0.010  0.00  0.00    +0.015 A 
ATOM      4  C   UNL     1       0.002  -0.004   0.002  0.00  0.00    +0.037 A 
ATOM      5  C   UNL     1       1.218  -0.689  -0.019  0.00  0.00    +0.015 A 
ATOM      6  C   UNL     1       1.230  -2.068  -0.022  0.00  0.00    +0.029 A 
ENDROOT
BRANCH   4   7
ATOM      7  C   UNL     1      -0.018   1.474   0.010  0.00  0.00    +0.250 C 
ATOM      8  O   UNL     1      -1.079   2.067   0.018  0.00  0.00    -0.270 OA
ATOM      9  N   UNL     1       1.140   2.163   0.003  0.00  0.00    -0.261 N 
ATOM     10  C   UNL     1       1.121   3.552   0.010  0.00  0.00    +0.165 A 
ATOM     11  N   UNL     1       2.132   4.401   0.005  0.00  0.00    -0.225 NA
ATOM     12  C   UNL     1       1.930   5.710   0.014  0.00  0.00    +0.080 A 
ATOM     13  C   UNL     1       0.651   6.192   0.029  0.00  0.00    +0.076 A 
ATOM     14  S   UNL     1      -0.278   4.664   0.022  0.00  0.00    -0.060 S 
ATOM     15  H   UNL     1       1.986   1.690  -0.008  0.00  0.00    +0.157 HD
BRANCH  12  16
ATOM     16  C   UNL     1       3.082   6.645   0.008  0.00  0.00    +0.005 A 
ATOM     17  C   UNL     1       2.868   8.017   0.122  0.00  0.00    +0.014 A 
ATOM     18  C   UNL     1       3.940   8.886   0.116  0.00  0.00    +0.050 A 
ATOM     19  C   UNL     1       5.232   8.398  -0.003  0.00  0.00    +0.166 A 
ATOM     20  C   UNL     1       5.452   7.027  -0.117  0.00  0.00    +0.167 A 
ATOM     21  C   UNL     1       4.380   6.152  -0.106  0.00  0.00    +0.059 A 
ATOM     22  O   UNL     1       6.796   6.808  -0.220  0.00  0.00    -0.453 OA
ATOM     23  C   UNL     1       7.420   8.020   0.243  0.00  0.00    +0.466 C 
ATOM     24  O   UNL     1       6.439   9.037  -0.034  0.00  0.00    -0.453 OA
ENDBRANCH  12  16
ENDBRANCH   4   7
BRANCH   1  25
ATOM     25  S   UNL     1       0.064  -4.535  -0.023  0.00  0.00    +0.075 S 
ATOM     26  O   UNL     1       1.319  -4.927   0.513  0.00  0.00    -0.150 OA
ATOM     27  O   UNL     1      -1.171  -4.961   0.537  0.00  0.00    -0.150 OA
BRANCH  25  36
ATOM     28  C   UNL     1      -3.109  -5.852  -4.182  0.00  0.00    +0.000 A 
ATOM     29  C   UNL     1      -3.432  -5.466  -2.893  0.00  0.00    +0.002 A 
ATOM     30  C   UNL     1      -2.435  -5.173  -1.987  0.00  0.00    +0.025 A 
ATOM     31  C   UNL     1      -1.093  -5.270  -2.361  0.00  0.00    +0.054 A 
ATOM     32  C   UNL     1      -0.781  -5.653  -3.656  0.00  0.00    -0.023 A 
ATOM     33  C   UNL     1      -1.783  -5.945  -4.561  0.00  0.00    +0.005 A 
ATOM     34  C   UNL     1       0.724  -5.672  -3.802  0.00  0.00    +0.058 C 
ATOM     35  C   UNL     1       1.252  -5.244  -2.423  0.00  0.00    +0.136 C 
ATOM     36  N   UNL     1       0.055  -5.016  -1.608  0.00  0.00    -0.202 N 
ENDBRANCH  25  36
ENDBRANCH   1  25
TORSDOF 4
