REMARK  Name = ZINC63829890
REMARK  14 active torsions:
REMARK  status: ('A' for Active; 'I' for Inactive)
REMARK    1  A    between atoms: C_1  and  O_2
REMARK    2  A    between atoms: O_2  and  C_3
REMARK    3  A    between atoms: C_7  and  C_11
REMARK    4  A    between atoms: C_8  and  O_9
REMARK    5  A    between atoms: O_9  and  C_10
REMARK    6  A    between atoms: C_11  and  C_13
REMARK    7  A    between atoms: C_11  and  C_28
REMARK    8  A    between atoms: C_13  and  N_14
REMARK    9  A    between atoms: N_14  and  S_15
REMARK   10  A    between atoms: S_15  and  C_18
REMARK   11  A    between atoms: C_21  and  O_26
REMARK   12  A    between atoms: C_22  and  O_24
REMARK   13  A    between atoms: O_24  and  C_25
REMARK   14  A    between atoms: O_26  and  C_27
REMARK                            x       y       z     vdW  Elec       q    Type
REMARK                         _______ _______ _______ _____ _____    ______ ____
ROOT
ATOM      1  C   UNL     1       1.394  -4.134   2.219  0.00  0.00    +0.066 C 
ENDROOT
BRANCH   1   2
ATOM      2  C   UNL     1       2.837  -4.570   2.229  0.00  0.00    -0.033 C 
ATOM      3  C   UNL     1       3.455  -5.356   1.318  0.00  0.00    -0.000 A 
ATOM      4  C   UNL     1       2.986  -6.016   0.093  0.00  0.00    +0.010 A 
ATOM      5  C   UNL     1       3.859  -6.756  -0.628  0.00  0.00    +0.001 A 
ATOM      6  C   UNL     1       5.196  -6.910  -0.235  0.00  0.00    +0.002 A 
ATOM      7  C   UNL     1       5.699  -6.335   0.877  0.00  0.00    +0.026 A 
ATOM      8  C   UNL     1       4.871  -5.533   1.710  0.00  0.00    +0.043 A 
ATOM      9  N   UNL     1       5.119  -4.882   2.821  0.00  0.00    -0.380 N 
ATOM     10  C   UNL     1       3.888  -4.212   3.255  0.00  0.00    +0.145 C 
ATOM     11  H   UNL     1       5.974  -4.846   3.276  0.00  0.00    +0.160 HD
ENDBRANCH   1   2
BRANCH   1  16
ATOM     12  C   UNL     1       0.626  -0.619   1.042  0.00  0.00    +0.162 A 
ATOM     13  C   UNL     1       1.202   0.137   2.051  0.00  0.00    +0.049 A 
ATOM     14  C   UNL     1       1.836  -0.490   3.108  0.00  0.00    +0.004 A 
ATOM     15  C   UNL     1       1.897  -1.870   3.161  0.00  0.00    +0.008 A 
ATOM     16  C   UNL     1       1.325  -2.630   2.158  0.00  0.00    +0.006 A 
ATOM     17  C   UNL     1       0.683  -2.008   1.099  0.00  0.00    +0.165 A 
BRANCH  12  19
ATOM     18  C   UNL     1      -0.017   1.425   0.010  0.00  0.00    +0.277 C 
ATOM     19  O   UNL     1       0.002  -0.004   0.002  0.00  0.00    -0.491 OA
ENDBRANCH  12  19
BRANCH  17  20
ATOM     20  O   UNL     1       0.115  -2.754   0.114  0.00  0.00    -0.491 OA
ATOM     21  C   UNL     1       0.940  -3.091  -1.003  0.00  0.00    +0.277 C 
ENDBRANCH  17  20
ENDBRANCH   1  16
BRANCH   1  22
ATOM     22  C   UNL     1       0.704  -4.625   3.493  0.00  0.00    +0.118 C 
BRANCH  22  23
ATOM     23  N   UNL     1       0.666  -6.089   3.495  0.00  0.00    -0.189 NA
ATOM     24  H   UNL     1       0.842  -6.580   2.677  0.00  0.00    +0.148 HD
BRANCH  23  25
ATOM     25  S   UNL     1       0.323  -6.907   4.893  0.00  0.00    +0.059 S 
ATOM     26  O   UNL     1       0.334  -8.290   4.568  0.00  0.00    -0.153 OA
ATOM     27  O   UNL     1       1.157  -6.355   5.902  0.00  0.00    -0.153 OA
BRANCH  25  28
ATOM     28  C   UNL     1      -1.335  -6.508   5.336  0.00  0.00    +0.109 A 
ATOM     29  C   UNL     1      -1.589  -5.417   6.147  0.00  0.00    +0.032 A 
ATOM     30  C   UNL     1      -2.888  -5.099   6.497  0.00  0.00    +0.051 A 
ATOM     31  C   UNL     1      -3.939  -5.875   6.035  0.00  0.00    +0.162 A 
ATOM     32  C   UNL     1      -3.684  -6.972   5.219  0.00  0.00    +0.163 A 
ATOM     33  C   UNL     1      -2.380  -7.282   4.868  0.00  0.00    +0.078 A 
BRANCH  32  34
ATOM     34  O   UNL     1      -4.713  -7.737   4.763  0.00  0.00    -0.491 OA
ATOM     35  C   UNL     1      -4.376  -8.847   3.930  0.00  0.00    +0.277 C 
ENDBRANCH  32  34
BRANCH  31  36
ATOM     36  O   UNL     1      -5.218  -5.564   6.380  0.00  0.00    -0.491 OA
ATOM     37  C   UNL     1      -5.404  -4.424   7.221  0.00  0.00    +0.277 C 
ENDBRANCH  31  36
ENDBRANCH  25  28
ENDBRANCH  23  25
ENDBRANCH  22  23
ENDBRANCH   1  22
TORSDOF 10
