REMARK  Name = ZINC21540581
REMARK  5 active torsions:
REMARK  status: ('A' for Active; 'I' for Inactive)
REMARK    1  A    between atoms: C_1  and  C_2
REMARK    2  A    between atoms: C_2  and  C_3
REMARK    3  A    between atoms: N_6  and  S_15
REMARK    4  A    between atoms: C_9  and  C_14
REMARK    5  A    between atoms: S_15  and  C_18
REMARK                            x       y       z     vdW  Elec       q    Type
REMARK                         _______ _______ _______ _____ _____    ______ ____
ROOT
ATOM      1  S   UNL     1      -1.367  -0.877  -0.324  0.00  0.00    +0.075 S 
ATOM      2  O   UNL     1      -2.266   0.007  -0.978  0.00  0.00    -0.150 OA
ATOM      3  O   UNL     1      -0.939  -2.099  -0.910  0.00  0.00    -0.150 OA
ENDROOT
BRANCH   1   4
ATOM      4  C   UNL     1      -2.102  -1.291   1.223  0.00  0.00    +0.111 A 
ATOM      5  C   UNL     1      -3.029  -0.441   1.798  0.00  0.00    +0.031 A 
ATOM      6  C   UNL     1      -3.602  -0.769   3.008  0.00  0.00    +0.027 A 
ATOM      7  C   UNL     1      -3.258  -1.953   3.664  0.00  0.00    +0.055 A 
ATOM      8  C   UNL     1      -2.329  -2.804   3.088  0.00  0.00    +0.057 A 
ATOM      9  C   UNL     1      -1.758  -2.464   1.859  0.00  0.00    +0.054 A 
ATOM     10  N   UNL     1      -1.919  -4.004   3.661  0.00  0.00    -0.284 N 
ATOM     11  C   UNL     1      -1.662  -4.198   4.952  0.00  0.00    +0.226 C 
ATOM     12  O   UNL     1      -1.272  -5.285   5.324  0.00  0.00    -0.275 OA
ATOM     13  C   UNL     1      -1.846  -3.094   5.960  0.00  0.00    +0.192 C 
ATOM     14  C   UNL     1      -3.301  -2.699   5.967  0.00  0.00    +0.226 C 
ATOM     15  O   UNL     1      -3.950  -2.837   6.983  0.00  0.00    -0.275 OA
ATOM     16  N   UNL     1      -3.886  -2.204   4.880  0.00  0.00    -0.284 N 
ATOM     17  H   UNL     1      -1.782  -4.896   3.031  0.00  0.00    +0.155 HD
ATOM     18  H   UNL     1      -4.958  -1.989   5.000  0.00  0.00    +0.155 HD
ENDBRANCH   1   4
BRANCH   1  21
ATOM     19  C   UNL     1       2.330   0.253  -0.637  0.00  0.00    +0.192 C 
ATOM     20  C   UNL     1       1.321  -0.655   0.080  0.00  0.00    +0.176 C 
ATOM     21  N   UNL     1       0.002  -0.004   0.002  0.00  0.00    -0.196 N 
ATOM     22  C   UNL     1      -0.055   1.383   0.214  0.00  0.00    +0.093 A 
ATOM     23  C   UNL     1      -1.275   2.003   0.428  0.00  0.00    +0.031 A 
ATOM     24  C   UNL     1      -1.326   3.369   0.639  0.00  0.00    -0.048 A 
ATOM     25  C   UNL     1      -0.162   4.115   0.626  0.00  0.00    +0.007 A 
ATOM     26  C   UNL     1       1.057   3.502   0.408  0.00  0.00    +0.048 A 
ATOM     27  C   UNL     1       1.119   2.132   0.202  0.00  0.00    +0.143 A 
ATOM     28  O   UNL     1       2.323   1.536  -0.007  0.00  0.00    -0.485 OA
ATOM     29  C   UNL     1      -2.651   4.045   0.878  0.00  0.00    +0.044 C 
BRANCH  19  31
ATOM     30  C   UNL     1       4.711   0.482  -1.359  0.00  0.00    +0.007 C 
ATOM     31  C   UNL     1       3.729  -0.358  -0.539  0.00  0.00    +0.043 C 
ENDBRANCH  19  31
ENDBRANCH   1  21
TORSDOF 3
