REMARK  Name = ZINC37277503
REMARK  6 active torsions:
REMARK  status: ('A' for Active; 'I' for Inactive)
REMARK    1  A    between atoms: C_10  and  N_12
REMARK    2  A    between atoms: C_13  and  C_15
REMARK    3  A    between atoms: C_20  and  N_21
REMARK    4  A    between atoms: C_24  and  N_27
REMARK    5  A    between atoms: N_27  and  S_28
REMARK    6  A    between atoms: S_28  and  C_31
REMARK                            x       y       z     vdW  Elec       q    Type
REMARK                         _______ _______ _______ _____ _____    ______ ____
ROOT
ATOM      1  C   UNL     1       6.248   1.799   1.357  0.00  0.00    +0.058 A 
ATOM      2  C   UNL     1       6.419   1.337   2.665  0.00  0.00    +0.015 A 
ATOM      3  C   UNL     1       7.278   1.994   3.519  0.00  0.00    +0.001 A 
ATOM      4  C   UNL     1       7.975   3.111   3.088  0.00  0.00    +0.002 A 
ATOM      5  C   UNL     1       7.818   3.580   1.800  0.00  0.00    +0.024 A 
ATOM      6  C   UNL     1       6.961   2.927   0.922  0.00  0.00    +0.042 A 
ENDROOT
BRANCH   6   7
ATOM      7  N   UNL     1       6.805   3.393  -0.377  0.00  0.00    -0.329 N 
ATOM      8  C   UNL     1       5.777   4.394  -0.695  0.00  0.00    +0.106 C 
ATOM      9  C   UNL     1       6.442   5.573  -1.412  0.00  0.00    +0.039 C 
ATOM     10  C   UNL     1       7.214   5.055  -2.628  0.00  0.00    +0.079 C 
ATOM     11  C   UNL     1       8.309   4.090  -2.168  0.00  0.00    +0.039 C 
ATOM     12  C   UNL     1       7.668   2.899  -1.458  0.00  0.00    +0.106 C 
BRANCH  10  13
ATOM     13  N   UNL     1       7.824   6.184  -3.336  0.00  0.00    -0.187 NA
ATOM     14  H   UNL     1       8.155   6.947  -2.837  0.00  0.00    +0.148 HD
BRANCH  13  15
ATOM     15  S   UNL     1       7.947   6.157  -4.987  0.00  0.00    +0.059 S 
ATOM     16  O   UNL     1       8.549   7.386  -5.369  0.00  0.00    -0.153 OA
ATOM     17  O   UNL     1       8.504   4.896  -5.332  0.00  0.00    -0.153 OA
BRANCH  15  18
ATOM     18  C   UNL     1       6.308   6.178  -5.632  0.00  0.00    +0.105 A 
ATOM     19  C   UNL     1       5.641   4.989  -5.862  0.00  0.00    +0.031 A 
ATOM     20  C   UNL     1       4.355   5.003  -6.368  0.00  0.00    +0.040 A 
ATOM     21  C   UNL     1       3.734   6.210  -6.644  0.00  0.00    +0.124 A 
ATOM     22  C   UNL     1       4.403   7.400  -6.414  0.00  0.00    +0.040 A 
ATOM     23  C   UNL     1       5.687   7.383  -5.903  0.00  0.00    +0.031 A 
ATOM     24  F   UNL     1       2.477   6.225  -7.139  0.00  0.00    -0.205 F 
ENDBRANCH  15  18
ENDBRANCH  13  15
ENDBRANCH  10  13
ENDBRANCH   6   7
BRANCH   1  26
ATOM     25  N   UNL     1       4.649   0.018   0.860  0.00  0.00    -0.304 N 
ATOM     26  C   UNL     1       5.330   1.101   0.438  0.00  0.00    +0.246 C 
ATOM     27  O   UNL     1       5.189   1.503  -0.701  0.00  0.00    -0.270 OA
ATOM     28  H   UNL     1       4.762  -0.302   1.769  0.00  0.00    +0.150 HD
BRANCH  25  38
ATOM     29  C   UNL     1      -0.017   1.375   0.010  0.00  0.00    +0.000 A 
ATOM     30  C   UNL     1       1.174   2.078   0.002  0.00  0.00    +0.000 A 
ATOM     31  C   UNL     1       2.372   1.395  -0.016  0.00  0.00    +0.006 A 
ATOM     32  C   UNL     1       2.393   0.006  -0.025  0.00  0.00    -0.024 A 
ATOM     33  C   UNL     1       1.208  -0.694  -0.013  0.00  0.00    -0.042 A 
ATOM     34  C   UNL     1       0.002  -0.004   0.002  0.00  0.00    +0.004 A 
ATOM     35  C   UNL     1       1.155  -2.199  -0.005  0.00  0.00    +0.035 C 
ATOM     36  C   UNL     1       2.493  -2.786  -0.452  0.00  0.00    +0.007 C 
ATOM     37  C   UNL     1       3.607  -2.135   0.376  0.00  0.00    +0.027 C 
ATOM     38  C   UNL     1       3.736  -0.675  -0.053  0.00  0.00    +0.104 C 
ENDBRANCH  25  38
ENDBRANCH   1  26
TORSDOF 6
