REMARK  Name = ZINC14877825
REMARK  5 active torsions:
REMARK  status: ('A' for Active; 'I' for Inactive)
REMARK    1  A    between atoms: C_1  and  C_2
REMARK    2  A    between atoms: C_3  and  C_16
REMARK    3  A    between atoms: C_4  and  C_10
REMARK    4  A    between atoms: N_18  and  C_19
REMARK    5  A    between atoms: C_23  and  N_25
REMARK                            x       y       z     vdW  Elec       q    Type
REMARK                         _______ _______ _______ _____ _____    ______ ____
ROOT
ATOM      1  C   UNL     1       0.595   0.799  -1.687  0.00  0.00    +0.061 C 
ATOM      2  C   UNL     1       0.270  -0.574  -1.159  0.00  0.00    +0.017 C 
ATOM      3  C   UNL     1      -0.925  -0.793  -0.571  0.00  0.00    +0.056 C 
ATOM      4  C   UNL     1      -1.211  -2.188  -0.053  0.00  0.00    +0.146 C 
ATOM      5  N   UNL     1      -0.154  -3.198  -0.236  0.00  0.00    -0.315 N 
ATOM      6  C   UNL     1       0.989  -2.826  -0.845  0.00  0.00    +0.135 C 
ATOM      7  S   UNL     1       2.226  -3.988  -1.065  0.00  0.00    -0.019 S 
ATOM      8  N   UNL     1       1.187  -1.578  -1.288  0.00  0.00    -0.300 N 
ATOM      9  H   UNL     1      -0.278  -4.108   0.074  0.00  0.00    +0.149 HD
ATOM     10  H   UNL     1       2.030  -1.374  -1.722  0.00  0.00    +0.154 HD
ENDROOT
BRANCH   4  11
ATOM     11  C   UNL     1      -2.456  -2.691  -0.738  0.00  0.00    +0.016 A 
ATOM     12  C   UNL     1      -2.623  -3.086  -2.024  0.00  0.00    +0.028 A 
ATOM     13  C   UNL     1      -3.871  -3.515  -2.437  0.00  0.00    +0.025 A 
ATOM     14  C   UNL     1      -4.890  -3.529  -1.543  0.00  0.00    +0.060 A 
ATOM     15  S   UNL     1      -4.092  -2.929  -0.063  0.00  0.00    -0.098 S 
ATOM     16 BR   UNL     1      -4.152  -4.074  -4.221  0.00  0.00    -0.050 Br
ENDBRANCH   4  11
BRANCH   3  17
ATOM     17  C   UNL     1      -1.879   0.246  -0.441  0.00  0.00    +0.248 C 
ATOM     18  O   UNL     1      -1.683   1.322  -0.975  0.00  0.00    -0.270 OA
ATOM     19  N   UNL     1      -3.003   0.043   0.274  0.00  0.00    -0.282 N 
ATOM     20  H   UNL     1      -3.140  -0.801   0.733  0.00  0.00    +0.155 HD
BRANCH  19  21
ATOM     21  C   UNL     1      -3.973   1.048   0.353  0.00  0.00    +0.036 A 
ATOM     22  C   UNL     1      -3.588   2.379   0.447  0.00  0.00    +0.023 A 
ATOM     23  C   UNL     1      -4.548   3.369   0.525  0.00  0.00    +0.004 A 
ATOM     24  C   UNL     1      -5.890   3.036   0.510  0.00  0.00    +0.033 A 
ATOM     25  C   UNL     1      -6.276   1.711   0.417  0.00  0.00    +0.128 A 
ATOM     26  C   UNL     1      -5.321   0.717   0.332  0.00  0.00    +0.056 A 
BRANCH  25  27
ATOM     27  N   UNL     1      -7.714   1.359   0.402  0.00  0.00    +0.056 N 
ATOM     28  O   UNL     1      -8.550   2.230   0.471  0.00  0.00    -0.126 OA
ATOM     29  O   UNL     1      -8.052   0.201   0.320  0.00  0.00    -0.126 OA
ENDBRANCH  25  27
ENDBRANCH  19  21
ENDBRANCH   3  17
TORSDOF 4
