REMARK  Name = ZINC59400682
REMARK  6 active torsions:
REMARK  status: ('A' for Active; 'I' for Inactive)
REMARK    1  A    between atoms: C_3  and  N_11
REMARK    2  A    between atoms: C_4  and  N_8
REMARK    3  A    between atoms: N_11  and  C_12
REMARK    4  A    between atoms: C_12  and  C_13
REMARK    5  A    between atoms: C_13  and  N_14
REMARK    6  A    between atoms: C_15  and  C_17
REMARK                            x       y       z     vdW  Elec       q    Type
REMARK                         _______ _______ _______ _____ _____    ______ ____
ROOT
ATOM      1  C   UNL     1       3.611   3.535  -0.284  0.00  0.00    +0.120 C 
ENDROOT
BRANCH   1   2
ATOM      2  N   UNL     1       3.606   2.079  -0.127  0.00  0.00    -0.341 N 
ATOM      3  H   UNL     1       4.444   1.594  -0.065  0.00  0.00    +0.146 HD
BRANCH   2   6
ATOM      4  C   UNL     1      -0.001   1.375  -0.215  0.00  0.00    +0.022 A 
ATOM      5  C   UNL     1       1.197   2.061  -0.276  0.00  0.00    +0.026 A 
ATOM      6  C   UNL     1       2.393   1.387  -0.066  0.00  0.00    +0.058 A 
ATOM      7  C   UNL     1       2.381   0.025   0.204  0.00  0.00    +0.148 A 
ATOM      8  C   UNL     1       1.181  -0.656   0.264  0.00  0.00    +0.054 A 
ATOM      9  C   UNL     1      -0.009   0.018   0.054  0.00  0.00    +0.043 A 
ATOM     10 CL   UNL     1      -1.516  -0.841   0.131  0.00  0.00    -0.083 Cl
BRANCH   7  11
ATOM     11  N   UNL     1       3.654  -0.697   0.428  0.00  0.00    +0.058 N 
ATOM     12  O   UNL     1       3.792  -1.823   0.010  0.00  0.00    -0.126 OA
ATOM     13  O   UNL     1       4.556  -0.160   1.029  0.00  0.00    -0.126 OA
ENDBRANCH   7  11
ENDBRANCH   2   6
ENDBRANCH   1   2
BRANCH   1  14
ATOM     14  C   UNL     1       5.056   4.038  -0.323  0.00  0.00    +0.123 C 
BRANCH  14  15
ATOM     15  N   UNL     1       5.062   5.495  -0.480  0.00  0.00    -0.310 N 
ATOM     16  C   UNL     1       6.231   6.161  -0.539  0.00  0.00    +0.246 C 
ATOM     17  O   UNL     1       7.282   5.554  -0.462  0.00  0.00    -0.270 OA
ATOM     18  H   UNL     1       4.224   5.979  -0.541  0.00  0.00    +0.149 HD
BRANCH  16  19
ATOM     19  C   UNL     1       6.237   7.630  -0.697  0.00  0.00    +0.056 A 
ATOM     20  C   UNL     1       5.033   8.332  -0.781  0.00  0.00    +0.029 A 
ATOM     21  C   UNL     1       5.045   9.703  -0.928  0.00  0.00    +0.014 A 
ATOM     22  C   UNL     1       6.249  10.385  -0.994  0.00  0.00    +0.016 A 
ATOM     23  C   UNL     1       7.446   9.698  -0.913  0.00  0.00    +0.022 A 
ATOM     24  C   UNL     1       7.448   8.325  -0.759  0.00  0.00    +0.053 A 
ATOM     25 CL   UNL     1       8.951   7.464  -0.649  0.00  0.00    -0.083 Cl
ATOM     26  I   UNL     1       3.239  10.757  -1.053  0.00  0.00    -0.044 I 
ENDBRANCH  16  19
ENDBRANCH  14  15
ENDBRANCH   1  14
TORSDOF 6
