REMARK  Name = ZINC06601519
REMARK  15 active torsions:
REMARK  status: ('A' for Active; 'I' for Inactive)
REMARK    1  A    between atoms: C_1  and  C_2
REMARK    2  A    between atoms: C_2  and  O_3
REMARK    3  A    between atoms: O_3  and  C_4
REMARK    4  A    between atoms: C_7  and  C_10
REMARK    5  A    between atoms: C_10  and  C_12
REMARK    6  A    between atoms: C_10  and  N_19
REMARK    7  A    between atoms: N_14  and  C_15
REMARK    8  A    between atoms: C_15  and  C_16
REMARK    9  A    between atoms: C_15  and  C_17
REMARK   10  A    between atoms: C_15  and  C_18
REMARK   11  A    between atoms: N_19  and  C_20
REMARK   12  A    between atoms: C_20  and  C_21
REMARK   13  A    between atoms: C_27  and  C_29
REMARK   14  A    between atoms: C_30  and  N_37
REMARK   15  A    between atoms: C_31  and  C_34
REMARK                            x       y       z     vdW  Elec       q    Type
REMARK                         _______ _______ _______ _____ _____    ______ ____
ROOT
ATOM      1  N   UNL     1       4.449  -0.654  -2.222  0.00  0.00    -0.277 N 
ATOM      2  C   UNL     1       4.808   0.343  -3.055  0.00  0.00    +0.258 C 
ATOM      3  O   UNL     1       4.416   0.345  -4.207  0.00  0.00    -0.269 OA
ENDROOT
BRANCH   2   4
ATOM      4  C   UNL     1       5.669   1.425  -2.573  0.00  0.00    +0.115 A 
ATOM      5  C   UNL     1       6.211   2.504  -3.274  0.00  0.00    +0.076 A 
ATOM      6  C   UNL     1       6.985   3.334  -2.462  0.00  0.00    +0.155 A 
ATOM      7  N   UNL     1       7.132   3.034  -1.191  0.00  0.00    -0.203 NA
ATOM      8  S   UNL     1       6.312   1.712  -0.937  0.00  0.00    +0.019 S 
BRANCH   6   9
ATOM      9  C   UNL     1       7.636   4.530  -3.026  0.00  0.00    +0.262 C 
ATOM     10  O   UNL     1       7.495   4.801  -4.204  0.00  0.00    -0.269 OA
ATOM     11  N   UNL     1       8.387   5.324  -2.237  0.00  0.00    -0.324 N 
ATOM     12  H   UNL     1       8.498   5.108  -1.298  0.00  0.00    +0.145 HD
ATOM     13  H   UNL     1       8.815   6.111  -2.608  0.00  0.00    +0.145 HD
ENDBRANCH   6   9
BRANCH   5  14
ATOM     14  N   UNL     1       6.000   2.728  -4.628  0.00  0.00    -0.355 N 
ATOM     15  H   UNL     1       5.449   2.116  -5.141  0.00  0.00    +0.142 HD
ATOM     16  H   UNL     1       6.404   3.496  -5.061  0.00  0.00    +0.142 HD
ENDBRANCH   5  14
ENDBRANCH   2   4
BRANCH   1  17
ATOM     17  C   UNL     1       3.692  -1.799  -2.734  0.00  0.00    +0.193 C 
BRANCH  17  21
ATOM     18  C   UNL     1      -0.430  -1.360  -1.693  0.00  0.00    +0.121 A 
ATOM     19  C   UNL     1      -0.077  -1.884  -2.929  0.00  0.00    +0.046 A 
ATOM     20  C   UNL     1       1.256  -2.025  -3.263  0.00  0.00    +0.009 A 
ATOM     21  C   UNL     1       2.238  -1.644  -2.367  0.00  0.00    -0.018 A 
ATOM     22  C   UNL     1       1.889  -1.127  -1.133  0.00  0.00    +0.009 A 
ATOM     23  C   UNL     1       0.557  -0.979  -0.797  0.00  0.00    +0.046 A 
BRANCH  18  24
ATOM     24  O   UNL     1      -1.741  -1.222  -1.362  0.00  0.00    -0.492 OA
BRANCH  24  26
ATOM     25  C   UNL     1      -3.546  -0.596   0.118  0.00  0.00    +0.048 C 
ATOM     26  C   UNL     1      -2.030  -0.675  -0.074  0.00  0.00    +0.225 C 
ENDBRANCH  24  26
ENDBRANCH  18  24
ENDBRANCH  17  21
BRANCH  17  27
ATOM     27  C   UNL     1       4.230  -3.069  -2.128  0.00  0.00    +0.239 C 
ATOM     28  O   UNL     1       4.829  -3.032  -1.074  0.00  0.00    -0.273 OA
ATOM     29  N   UNL     1       4.047  -4.247  -2.758  0.00  0.00    -0.309 N 
ATOM     30  H   UNL     1       3.594  -4.273  -3.615  0.00  0.00    +0.149 HD
BRANCH  29  31
ATOM     31  C   UNL     1       4.530  -5.487  -2.147  0.00  0.00    +0.026 C 
ATOM     32  C   UNL     1       3.878  -5.668  -0.775  0.00  0.00    +0.031 C 
ATOM     33  C   UNL     1       4.168  -6.673  -3.044  0.00  0.00    +0.031 C 
ATOM     34  C   UNL     1       6.050  -5.416  -1.984  0.00  0.00    +0.031 C 
ENDBRANCH  29  31
ENDBRANCH  17  27
ENDBRANCH   1  17
BRANCH   1  35
ATOM     35  C   UNL     1       4.816  -0.594  -0.805  0.00  0.00    +0.144 C 
BRANCH  35  36
ATOM     36  C   UNL     1       6.257  -1.005  -0.642  0.00  0.00    -0.030 A 
ATOM     37  C   UNL     1       7.115  -0.960  -1.724  0.00  0.00    +0.005 A 
ATOM     38  C   UNL     1       8.437  -1.337  -1.574  0.00  0.00    +0.000 A 
ATOM     39  C   UNL     1       8.900  -1.759  -0.342  0.00  0.00    +0.000 A 
ATOM     40  C   UNL     1       8.041  -1.803   0.741  0.00  0.00    +0.000 A 
ATOM     41  C   UNL     1       6.720  -1.426   0.591  0.00  0.00    +0.005 A 
ENDBRANCH  35  36
ENDBRANCH   1  35
TORSDOF 11
