REMARK  Name = ZINC04222863
REMARK  7 active torsions:
REMARK  status: ('A' for Active; 'I' for Inactive)
REMARK    1  A    between atoms: C_3  and  C_36
REMARK    2  A    between atoms: C_5  and  N_7
REMARK    3  A    between atoms: C_8  and  O_10
REMARK    4  A    between atoms: O_10  and  C_11
REMARK    5  A    between atoms: C_21  and  N_23
REMARK    6  A    between atoms: C_24  and  C_26
REMARK    7  A    between atoms: C_29  and  C_32
REMARK                            x       y       z     vdW  Elec       q    Type
REMARK                         _______ _______ _______ _____ _____    ______ ____
ROOT
ATOM      1  C   UNL     1       1.397   1.732  -0.002  0.00  0.00    +0.235 C 
ATOM      2  C   UNL     1       1.135   3.127  -0.605  0.00  0.00    +0.207 C 
ATOM      3  O   UNL     1      -0.086   3.051  -1.351  0.00  0.00    -0.368 OA
ATOM      4  C   UNL     1      -0.638   1.730  -1.276  0.00  0.00    +0.173 C 
ATOM      5  C   UNL     1      -0.017   1.098   0.010  0.00  0.00    +0.192 C 
ATOM      6  O   UNL     1      -0.772   1.667   1.095  0.00  0.00    -0.368 OA
ATOM      7  C   UNL     1      -2.145   1.762   0.643  0.00  0.00    +0.185 C 
ATOM      8  C   UNL     1      -2.132   1.838  -0.894  0.00  0.00    +0.130 C 
ENDROOT
BRANCH   8   9
ATOM      9  N   UNL     1      -2.889   0.723  -1.470  0.00  0.00    -0.304 N 
ATOM     10  C   UNL     1      -4.208   0.856  -1.708  0.00  0.00    +0.244 C 
ATOM     11  O   UNL     1      -4.771   1.901  -1.444  0.00  0.00    -0.270 OA
ATOM     12  H   UNL     1      -2.439  -0.111  -1.680  0.00  0.00    +0.149 HD
BRANCH  10  13
ATOM     13  C   UNL     1      -4.972  -0.269  -2.289  0.00  0.00    +0.037 A 
ATOM     14  C   UNL     1      -4.327  -1.468  -2.598  0.00  0.00    +0.013 A 
ATOM     15  C   UNL     1      -5.046  -2.516  -3.135  0.00  0.00    +0.013 A 
ATOM     16  C   UNL     1      -6.402  -2.376  -3.377  0.00  0.00    +0.055 A 
ATOM     17  C   UNL     1      -7.045  -1.189  -3.079  0.00  0.00    +0.013 A 
ATOM     18  C   UNL     1      -6.339  -0.135  -2.536  0.00  0.00    +0.013 A 
BRANCH  16  19
ATOM     19  C   UNL     1      -7.179  -3.523  -3.970  0.00  0.00    +0.417 C 
ATOM     20  F   UNL     1      -7.157  -3.430  -5.365  0.00  0.00    -0.166 F 
ATOM     21  F   UNL     1      -6.601  -4.733  -3.573  0.00  0.00    -0.166 F 
ATOM     22  F   UNL     1      -8.503  -3.470  -3.521  0.00  0.00    -0.166 F 
ENDBRANCH  16  19
ENDBRANCH  10  13
ENDBRANCH   8   9
BRANCH   1  23
ATOM     23  O   UNL     1       1.924   1.844   1.347  0.00  0.00    -0.442 OA
BRANCH  23  25
ATOM     24  N   UNL     1       3.814   1.866   2.714  0.00  0.00    -0.251 N 
ATOM     25  C   UNL     1       3.260   1.769   1.489  0.00  0.00    +0.405 C 
ATOM     26  O   UNL     1       3.968   1.615   0.514  0.00  0.00    -0.226 OA
ATOM     27  H   UNL     1       3.256   2.056   3.485  0.00  0.00    +0.158 HD
BRANCH  24  32
ATOM     28  C   UNL     1       7.430   1.957   2.052  0.00  0.00    +0.002 A 
ATOM     29  C   UNL     1       7.920   1.348   3.192  0.00  0.00    +0.012 A 
ATOM     30  C   UNL     1       7.051   0.911   4.175  0.00  0.00    +0.057 A 
ATOM     31  C   UNL     1       5.689   1.086   4.021  0.00  0.00    +0.035 A 
ATOM     32  C   UNL     1       5.193   1.692   2.875  0.00  0.00    +0.037 A 
ATOM     33  C   UNL     1       6.069   2.131   1.890  0.00  0.00    +0.023 A 
BRANCH  30  34
ATOM     34  C   UNL     1       7.589   0.247   5.416  0.00  0.00    +0.417 C 
ATOM     35  F   UNL     1       8.985   0.189   5.345  0.00  0.00    -0.166 F 
ATOM     36  F   UNL     1       7.210   0.987   6.542  0.00  0.00    -0.166 F 
ATOM     37  F   UNL     1       7.072  -1.049   5.513  0.00  0.00    -0.166 F 
ENDBRANCH  30  34
ENDBRANCH  24  32
ENDBRANCH  23  25
ENDBRANCH   1  23
TORSDOF 7
