REMARK  Name = ZINC09915642
REMARK  12 active torsions:
REMARK  status: ('A' for Active; 'I' for Inactive)
REMARK    1  A    between atoms: C_1  and  C_2
REMARK    2  A    between atoms: C_2  and  C_22
REMARK    3  A    between atoms: C_3  and  C_20
REMARK    4  A    between atoms: C_3  and  O_21
REMARK    5  A    between atoms: C_4  and  C_18
REMARK    6  A    between atoms: C_4  and  O_19
REMARK    7  A    between atoms: C_5  and  C_16
REMARK    8  A    between atoms: C_5  and  O_17
REMARK    9  A    between atoms: C_6  and  C_8
REMARK   10  A    between atoms: C_6  and  S_9
REMARK   11  A    between atoms: S_9  and  C_10
REMARK   12  A    between atoms: C_22  and  O_23
REMARK                            x       y       z     vdW  Elec       q    Type
REMARK                         _______ _______ _______ _____ _____    ______ ____
ROOT
ATOM      1  C   UNL     1       3.447   0.521  -1.685  0.00  0.00    +0.047 C 
ATOM      2  C   UNL     1       1.920   0.578  -1.823  0.00  0.00    +0.122 C 
ATOM      3  C   UNL     1       1.290   0.835  -0.458  0.00  0.00    +0.125 C 
ATOM      4  C   UNL     1       1.286   2.311  -0.088  0.00  0.00    +0.126 C 
ATOM      5  C   UNL     1       0.750   3.194  -1.205  0.00  0.00    +0.132 C 
ATOM      6  C   UNL     1       1.388   2.887  -2.556  0.00  0.00    +0.148 C 
ATOM      7  O   UNL     1       1.529   1.509  -2.800  0.00  0.00    -0.348 OA
ATOM      8  C   UNL     1       2.745   3.601  -2.651  0.00  0.00    +0.057 C 
ATOM      9  C   UNL     1      -0.773   3.050  -1.315  0.00  0.00    +0.048 C 
ATOM     10  C   UNL     1       0.387   2.497   1.151  0.00  0.00    +0.047 C 
ATOM     11  C   UNL     1       2.101   0.067   0.603  0.00  0.00    +0.047 C 
ENDROOT
BRANCH   5  12
ATOM     12  O   UNL     1       1.037   4.567  -0.876  0.00  0.00    -0.382 OA
ATOM     13  H   UNL     1       0.729   5.203  -1.536  0.00  0.00    +0.210 HD
ENDBRANCH   5  12
BRANCH   4  14
ATOM     14  O   UNL     1       2.609   2.728   0.274  0.00  0.00    -0.383 OA
ATOM     15  H   UNL     1       2.673   3.661   0.521  0.00  0.00    +0.210 HD
ENDBRANCH   4  14
BRANCH   3  16
ATOM     16  O   UNL     1      -0.046   0.317  -0.447  0.00  0.00    -0.383 OA
ATOM     17  H   UNL     1      -0.106  -0.620  -0.675  0.00  0.00    +0.210 HD
ENDBRANCH   3  16
BRANCH   6  18
ATOM     18  S   UNL     1       0.311   3.592  -3.854  0.00  0.00    -0.088 S 
BRANCH  18  19
ATOM     19  C   UNL     1       1.053   3.056  -5.360  0.00  0.00    +0.011 A 
ATOM     20  C   UNL     1       1.980   3.864  -6.007  0.00  0.00    +0.015 A 
ATOM     21  C   UNL     1       2.564   3.438  -7.183  0.00  0.00    +0.001 A 
ATOM     22  C   UNL     1       2.217   2.214  -7.725  0.00  0.00    +0.000 A 
ATOM     23  C   UNL     1       1.291   1.409  -7.088  0.00  0.00    +0.001 A 
ATOM     24  C   UNL     1       0.708   1.826  -5.907  0.00  0.00    +0.015 A 
ENDBRANCH  18  19
ENDBRANCH   6  18
BRANCH   2  25
ATOM     25  C   UNL     1       1.457  -0.824  -2.288  0.00  0.00    +0.193 C 
BRANCH  25  26
ATOM     26  O   UNL     1       2.114  -1.160  -3.511  0.00  0.00    -0.392 OA
ATOM     27  H   UNL     1       1.871  -2.028  -3.862  0.00  0.00    +0.210 HD
ENDBRANCH  25  26
ENDBRANCH   2  25
TORSDOF 7
