REMARK  Name = ZINC38650679
REMARK  15 active torsions:
REMARK  status: ('A' for Active; 'I' for Inactive)
REMARK    1  A    between atoms: C_1  and  C_2
REMARK    2  A    between atoms: C_2  and  C_3
REMARK    3  A    between atoms: C_3  and  O_4
REMARK    4  A    between atoms: O_4  and  C_5
REMARK    5  A    between atoms: C_8  and  C_11
REMARK    6  A    between atoms: C_16  and  O_25
REMARK    7  A    between atoms: C_20  and  N_24
REMARK    8  A    between atoms: C_21  and  C_22
REMARK    9  A    between atoms: O_25  and  C_26
REMARK   10  A    between atoms: C_26  and  C_28
REMARK   11  A    between atoms: C_31  and  O_34
REMARK   12  A    between atoms: O_34  and  C_35
REMARK   13  A    between atoms: C_35  and  C_36
REMARK   14  A    between atoms: C_36  and  C_37
REMARK   15  A    between atoms: C_36  and  C_38
REMARK                            x       y       z     vdW  Elec       q    Type
REMARK                         _______ _______ _______ _____ _____    ______ ____
ROOT
ATOM      1  C   UNL     1       3.198  -4.375  -5.649  0.00  0.00    +0.098 C 
ATOM      2  C   UNL     1       2.207  -5.247  -6.374  0.00  0.00    +0.008 A 
ATOM      3  C   UNL     1       1.207  -4.658  -7.128  0.00  0.00    +0.012 A 
ATOM      4  C   UNL     1       0.289  -5.441  -7.800  0.00  0.00    +0.047 A 
ATOM      5  C   UNL     1       0.368  -6.824  -7.720  0.00  0.00    +0.135 A 
ATOM      6  C   UNL     1       1.368  -7.417  -6.966  0.00  0.00    +0.093 A 
ATOM      7  C   UNL     1       2.290  -6.628  -6.291  0.00  0.00    +0.138 A 
ATOM      8  O   UNL     1       3.262  -7.223  -5.557  0.00  0.00    -0.441 OA
ATOM      9  C   UNL     1       4.367  -6.534  -5.224  0.00  0.00    +0.199 C 
ATOM     10  C   UNL     1       4.399  -5.184  -5.247  0.00  0.00    +0.098 C 
ENDROOT
BRANCH   1  14
ATOM     11  C   UNL     1       1.357  -2.740  -2.157  0.00  0.00    +0.121 A 
ATOM     12  C   UNL     1       1.842  -1.897  -3.146  0.00  0.00    +0.046 A 
ATOM     13  C   UNL     1       2.437  -2.428  -4.274  0.00  0.00    +0.008 A 
ATOM     14  C   UNL     1       2.549  -3.799  -4.418  0.00  0.00    -0.034 A 
ATOM     15  C   UNL     1       2.066  -4.641  -3.433  0.00  0.00    +0.008 A 
ATOM     16  C   UNL     1       1.476  -4.115  -2.301  0.00  0.00    +0.046 A 
BRANCH  11  17
ATOM     17  O   UNL     1       0.772  -2.220  -1.046  0.00  0.00    -0.492 OA
BRANCH  17  18
ATOM     18  C   UNL     1       0.683  -0.796  -0.965  0.00  0.00    +0.229 C 
BRANCH  18  20
ATOM     19  C   UNL     1      -0.094   1.123   0.432  0.00  0.00    +0.007 C 
ATOM     20  C   UNL     1       0.000  -0.401   0.345  0.00  0.00    +0.038 C 
ENDBRANCH  18  20
ENDBRANCH  17  18
ENDBRANCH  11  17
ENDBRANCH   1  14
BRANCH   9  21
ATOM     21  N   UNL     1       5.493  -7.223  -4.849  0.00  0.00    -0.328 N 
ATOM     22  H   UNL     1       5.484  -8.193  -4.827  0.00  0.00    +0.145 HD
ATOM     23  H   UNL     1       6.298  -6.740  -4.606  0.00  0.00    +0.145 HD
ENDBRANCH   9  21
BRANCH  10  24
ATOM     24  C   UNL     1       5.608  -4.510  -4.879  0.00  0.00    +0.101 C 
ATOM     25  N   UNL     1       6.567  -3.975  -4.588  0.00  0.00    -0.191 NA
ENDBRANCH  10  24
BRANCH   5  26
ATOM     26  O   UNL     1      -0.535  -7.597  -8.380  0.00  0.00    -0.422 OA
BRANCH  26  27
ATOM     27  C   UNL     1      -0.479  -7.624  -9.727  0.00  0.00    +0.344 C 
ATOM     28  O   UNL     1       0.423  -7.055 -10.309  0.00  0.00    -0.245 OA
BRANCH  27  29
ATOM     29  C   UNL     1      -1.513  -8.344 -10.493  0.00  0.00    +0.060 A 
ATOM     30  C   UNL     1      -2.555  -8.994  -9.825  0.00  0.00    +0.018 A 
ATOM     31  C   UNL     1      -3.519  -9.665 -10.544  0.00  0.00    +0.046 A 
ATOM     32  C   UNL     1      -3.457  -9.696 -11.932  0.00  0.00    +0.121 A 
ATOM     33  C   UNL     1      -2.422  -9.051 -12.601  0.00  0.00    +0.046 A 
ATOM     34  C   UNL     1      -1.458  -8.373 -11.889  0.00  0.00    +0.018 A 
BRANCH  32  35
ATOM     35  O   UNL     1      -4.409 -10.358 -12.637  0.00  0.00    -0.492 OA
BRANCH  35  36
ATOM     36  C   UNL     1      -4.285 -10.350 -14.061  0.00  0.00    +0.232 C 
BRANCH  36  37
ATOM     37  C   UNL     1      -5.439 -11.141 -14.678  0.00  0.00    +0.020 C 
ATOM     38  C   UNL     1      -5.378 -11.029 -16.203  0.00  0.00    +0.010 C 
ATOM     39  C   UNL     1      -5.326 -12.611 -14.270  0.00  0.00    +0.010 C 
ENDBRANCH  36  37
ENDBRANCH  35  36
ENDBRANCH  32  35
ENDBRANCH  27  29
ENDBRANCH  26  27
ENDBRANCH   5  26
TORSDOF 12
