REMARK  Name = ZINC13139197
REMARK  8 active torsions:
REMARK  status: ('A' for Active; 'I' for Inactive)
REMARK    1  A    between atoms: C_1  and  C_2
REMARK    2  A    between atoms: N_4  and  C_5
REMARK    3  A    between atoms: N_13  and  C_14
REMARK    4  A    between atoms: C_14  and  C_16
REMARK    5  A    between atoms: C_19  and  S_22
REMARK    6  A    between atoms: S_22  and  N_25
REMARK    7  A    between atoms: N_30  and  C_31
REMARK    8  A    between atoms: C_31  and  C_32
REMARK                            x       y       z     vdW  Elec       q    Type
REMARK                         _______ _______ _______ _____ _____    ______ ____
ROOT
ATOM      1  C   UNL     1      -0.165  -2.588   0.225  0.00  0.00    +0.035 A 
ATOM      2  C   UNL     1       0.775  -3.613   0.240  0.00  0.00    +0.025 A 
ATOM      3  C   UNL     1       0.419  -4.907  -0.055  0.00  0.00    +0.029 A 
ATOM      4  C   UNL     1      -0.907  -5.229  -0.380  0.00  0.00    +0.058 A 
ATOM      5  C   UNL     1      -1.836  -4.179  -0.388  0.00  0.00    +0.041 A 
ATOM      6  C   UNL     1      -1.486  -2.884  -0.088  0.00  0.00    +0.040 A 
ATOM      7  S   UNL     1      -3.352  -4.985  -0.834  0.00  0.00    -0.052 S 
ATOM      8  C   UNL     1      -2.776  -6.556  -0.987  0.00  0.00    +0.167 A 
ATOM      9  N   UNL     1      -3.461  -7.646  -1.315  0.00  0.00    -0.152 NA
ATOM     10  N   UNL     1      -1.452  -6.459  -0.702  0.00  0.00    -0.317 N 
ENDROOT
BRANCH   1  14
ATOM     11  C   UNL     1       1.796   0.623   0.390  0.00  0.00    +0.109 C 
ATOM     12  C   UNL     1       1.426  -0.819   0.154  0.00  0.00    +0.214 C 
ATOM     13  O   UNL     1       2.220  -1.570  -0.373  0.00  0.00    -0.276 OA
ATOM     14  N   UNL     1       0.214  -1.274   0.528  0.00  0.00    -0.286 N 
ATOM     15  H   UNL     1      -0.396  -0.692   1.008  0.00  0.00    +0.155 HD
ENDBRANCH   1  14
BRANCH   9  16
ATOM     16  C   UNL     1      -2.892  -8.851  -1.208  0.00  0.00    +0.269 C 
ATOM     17  O   UNL     1      -2.416  -9.390  -2.192  0.00  0.00    -0.268 OA
BRANCH  16  18
ATOM     18  C   UNL     1      -2.839  -9.531   0.107  0.00  0.00    +0.039 A 
ATOM     19  C   UNL     1      -3.388  -8.920   1.234  0.00  0.00    +0.015 A 
ATOM     20  C   UNL     1      -3.335  -9.558   2.456  0.00  0.00    +0.029 A 
ATOM     21  C   UNL     1      -2.739 -10.802   2.565  0.00  0.00    +0.106 A 
ATOM     22  C   UNL     1      -2.193 -11.413   1.451  0.00  0.00    +0.029 A 
ATOM     23  C   UNL     1      -2.245 -10.788   0.222  0.00  0.00    +0.015 A 
BRANCH  21  24
ATOM     24  S   UNL     1      -2.676 -11.611   4.129  0.00  0.00    +0.061 S 
ATOM     25  O   UNL     1      -1.585 -12.519   4.073  0.00  0.00    -0.153 OA
ATOM     26  O   UNL     1      -2.770 -10.593   5.117  0.00  0.00    -0.153 OA
BRANCH  24  27
ATOM     27  N   UNL     1      -4.048 -12.527   4.263  0.00  0.00    -0.177 NA
ATOM     28  C   UNL     1      -5.329 -12.076   4.826  0.00  0.00    +0.109 C 
ATOM     29  C   UNL     1      -6.303 -13.272   4.766  0.00  0.00    +0.018 C 
ATOM     30  C   UNL     1      -5.349 -14.493   4.693  0.00  0.00    +0.018 C 
ATOM     31  C   UNL     1      -4.190 -13.930   3.830  0.00  0.00    +0.109 C 
ENDBRANCH  24  27
ENDBRANCH  21  24
ENDBRANCH  16  18
ENDBRANCH   9  16
BRANCH  10  32
ATOM     32  C   UNL     1      -0.604  -7.653  -0.736  0.00  0.00    +0.151 C 
BRANCH  32  33
ATOM     33  C   UNL     1      -0.161  -7.915  -2.152  0.00  0.00    -0.013 C 
ATOM     34  C   UNL     1       1.115  -7.970  -2.440  0.00  0.00    +0.005 C 
ENDBRANCH  32  33
ENDBRANCH  10  32
TORSDOF 7
