REMARK  Name = ZINC33936799
REMARK  10 active torsions:
REMARK  status: ('A' for Active; 'I' for Inactive)
REMARK    1  A    between atoms: C_1  and  C_2
REMARK    2  A    between atoms: C_9  and  C_14
REMARK    3  A    between atoms: C_14  and  C_16
REMARK    4  A    between atoms: C_14  and  N_28
REMARK    5  A    between atoms: N_20  and  C_21
REMARK    6  A    between atoms: C_21  and  C_22
REMARK    7  A    between atoms: N_28  and  C_29
REMARK    8  A    between atoms: N_28  and  C_35
REMARK    9  A    between atoms: C_29  and  C_30
REMARK   10  A    between atoms: C_35  and  C_36
REMARK                            x       y       z     vdW  Elec       q    Type
REMARK                         _______ _______ _______ _____ _____    ______ ____
ROOT
ATOM      1  C   UNL     1       0.736  -5.395   3.227  0.00  0.00    +0.163 C 
ENDROOT
BRANCH   1  10
ATOM      2  C   UNL     1       3.395  -1.910  -2.807  0.00  0.00    +0.044 C 
ATOM      3  C   UNL     1       2.959  -3.168  -2.101  0.00  0.00    -0.050 A 
ATOM      4  C   UNL     1       3.017  -4.385  -2.767  0.00  0.00    +0.005 A 
ATOM      5  C   UNL     1       2.623  -5.548  -2.141  0.00  0.00    +0.026 A 
ATOM      6  C   UNL     1       2.163  -5.504  -0.829  0.00  0.00    +0.049 A 
ATOM      7  C   UNL     1       2.106  -4.269  -0.158  0.00  0.00    -0.001 A 
ATOM      8  C   UNL     1       2.515  -3.102  -0.811  0.00  0.00    +0.013 A 
ATOM      9  C   UNL     1       1.620  -4.233   1.223  0.00  0.00    +0.021 A 
ATOM     10  C   UNL     1       1.241  -5.396   1.807  0.00  0.00    +0.042 A 
ATOM     11  C   UNL     1       1.318  -6.610   1.089  0.00  0.00    +0.254 A 
ATOM     12  O   UNL     1       0.972  -7.644   1.633  0.00  0.00    -0.268 OA
ATOM     13  N   UNL     1       1.763  -6.652  -0.179  0.00  0.00    -0.322 N 
ATOM     14  H   UNL     1       1.802  -7.503  -0.643  0.00  0.00    +0.169 HD
ENDBRANCH   1  10
BRANCH   1  15
ATOM     15  C   UNL     1      -0.725  -5.763   3.241  0.00  0.00    +0.173 A 
ATOM     16  N   UNL     1      -1.277  -6.800   2.657  0.00  0.00    -0.111 NA
ATOM     17  N   UNL     1      -2.541  -6.767   2.901  0.00  0.00    -0.023 NA
ATOM     18  N   UNL     1      -2.811  -5.737   3.624  0.00  0.00    -0.044 NA
ATOM     19  N   UNL     1      -1.717  -5.096   3.860  0.00  0.00    -0.225 N 
BRANCH  19  20
ATOM     20  C   UNL     1      -1.579  -3.869   4.649  0.00  0.00    +0.179 C 
BRANCH  20  21
ATOM     21  C   UNL     1      -1.742  -2.653   3.735  0.00  0.00    +0.140 C 
ATOM     22  C   UNL     1      -1.691  -1.346   4.565  0.00  0.00    +0.035 C 
ATOM     23  C   UNL     1      -1.225  -0.330   3.487  0.00  0.00    +0.031 C 
ATOM     24  C   UNL     1      -0.290  -1.190   2.609  0.00  0.00    +0.160 C 
ATOM     25  O   UNL     1      -0.637  -2.564   2.822  0.00  0.00    -0.375 OA
ENDBRANCH  20  21
ENDBRANCH  19  20
ENDBRANCH   1  15
BRANCH   1  26
ATOM     26  N   UNL     1       1.495  -6.372   4.018  0.00  0.00    -0.282 NA
BRANCH  26  27
ATOM     27  C   UNL     1       2.875  -5.917   4.234  0.00  0.00    +0.128 C 
BRANCH  27  28
ATOM     28  C   UNL     1       3.687  -6.166   2.989  0.00  0.00    +0.004 A 
ATOM     29  C   UNL     1       4.195  -5.270   2.107  0.00  0.00    +0.012 A 
ATOM     30  C   UNL     1       4.918  -5.732   1.024  0.00  0.00    +0.008 A 
ATOM     31  C   UNL     1       5.097  -7.067   0.874  0.00  0.00    +0.045 A 
ATOM     32  S   UNL     1       4.236  -7.717   2.296  0.00  0.00    -0.100 S 
ENDBRANCH  27  28
ENDBRANCH  26  27
BRANCH  26  33
ATOM     33  C   UNL     1       0.826  -6.649   5.296  0.00  0.00    +0.117 C 
BRANCH  33  34
ATOM     34  C   UNL     1      -0.088  -7.866   5.140  0.00  0.00    +0.132 C 
ATOM     35  C   UNL     1      -0.722  -8.223   6.501  0.00  0.00    +0.035 C 
ATOM     36  C   UNL     1      -0.693  -9.775   6.482  0.00  0.00    +0.031 C 
ATOM     37  C   UNL     1       0.620 -10.035   5.701  0.00  0.00    +0.160 C 
ATOM     38  O   UNL     1       0.677  -8.997   4.707  0.00  0.00    -0.375 OA
ENDBRANCH  33  34
ENDBRANCH  26  33
ENDBRANCH   1  26
TORSDOF 9
