REMARK  Name = ZINC04250953
REMARK  7 active torsions:
REMARK  status: ('A' for Active; 'I' for Inactive)
REMARK    1  A    between atoms: C_1  and  C_2
REMARK    2  A    between atoms: C_2  and  C_3
REMARK    3  A    between atoms: C_3  and  N_4
REMARK    4  A    between atoms: C_5  and  C_21
REMARK    5  A    between atoms: N_14  and  C_19
REMARK    6  A    between atoms: N_17  and  C_18
REMARK    7  A    between atoms: C_19  and  C_20
REMARK                            x       y       z     vdW  Elec       q    Type
REMARK                         _______ _______ _______ _____ _____    ______ ____
ROOT
ATOM      1  N   UNL     1       3.248   4.778  -0.002  0.00  0.00    -0.314 N 
ATOM      2  C   UNL     1       2.086   5.525   0.013  0.00  0.00    +0.035 A 
ATOM      3  C   UNL     1       1.054   4.687   0.018  0.00  0.00    +0.116 A 
ATOM      4  N   UNL     1       1.544   3.393   0.006  0.00  0.00    -0.277 N 
ATOM      5  C   UNL     1       2.896   3.454  -0.006  0.00  0.00    +0.218 A 
ATOM      6  N   UNL     1       3.389   2.224  -0.018  0.00  0.00    -0.193 NA
ATOM      7  C   UNL     1       2.397   1.337  -0.013  0.00  0.00    +0.170 A 
ATOM      8  C   UNL     1       1.199   2.050   0.002  0.00  0.00    +0.157 A 
ATOM      9  C   UNL     1      -0.016   1.345   0.009  0.00  0.00    +0.283 A 
ATOM     10  O   UNL     1      -1.077   1.946   0.018  0.00  0.00    -0.265 OA
ATOM     11  N   UNL     1       0.002  -0.004   0.002  0.00  0.00    -0.259 N 
ATOM     12  C   UNL     1       1.162  -0.682  -0.013  0.00  0.00    +0.333 A 
ATOM     13  O   UNL     1       1.139  -1.898  -0.019  0.00  0.00    -0.246 OA
ATOM     14  N   UNL     1       2.350  -0.049  -0.021  0.00  0.00    -0.279 N 
ATOM     15  C   UNL     1       3.594  -0.823  -0.037  0.00  0.00    +0.155 C 
ATOM     16  C   UNL     1       2.003   7.030   0.022  0.00  0.00    +0.065 C 
ENDROOT
BRANCH  11  17
ATOM     17  C   UNL     1      -1.264  -0.742   0.010  0.00  0.00    +0.126 C 
ATOM     18  C   UNL     1      -1.717  -0.991  -1.430  0.00  0.00    +0.027 C 
ENDBRANCH  11  17
BRANCH   1  19
ATOM     19  C   UNL     1       4.614   5.307  -0.013  0.00  0.00    +0.125 C 
BRANCH  19  21
ATOM     20  C   UNL     1       6.503   6.052  -1.469  0.00  0.00    +0.005 C 
ATOM     21  C   UNL     1       5.076   5.499  -1.458  0.00  0.00    +0.018 C 
ENDBRANCH  19  21
ENDBRANCH   1  19
TORSDOF 3
