REMARK  Name = ZINC39664160
REMARK  13 active torsions:
REMARK  status: ('A' for Active; 'I' for Inactive)
REMARK    1  A    between atoms: C_1  and  C_2
REMARK    2  A    between atoms: C_2  and  C_3
REMARK    3  A    between atoms: C_3  and  C_4
REMARK    4  A    between atoms: C_4  and  C_5
REMARK    5  A    between atoms: C_5  and  C_7
REMARK    6  A    between atoms: C_5  and  C_8
REMARK    7  A    between atoms: C_12  and  C_21
REMARK    8  A    between atoms: N_23  and  C_24
REMARK    9  A    between atoms: C_24  and  C_25
REMARK   10  A    between atoms: C_25  and  C_27
REMARK   11  A    between atoms: C_25  and  N_35
REMARK   12  A    between atoms: C_30  and  O_33
REMARK   13  A    between atoms: O_33  and  C_34
REMARK                            x       y       z     vdW  Elec       q    Type
REMARK                         _______ _______ _______ _____ _____    ______ ____
ROOT
ATOM      1  C   UNL     1       1.434  -4.993   2.376  0.00  0.00    +0.218 C 
ATOM      2  O   UNL     1       0.822  -5.708   1.611  0.00  0.00    -0.275 OA
ATOM      3  N   UNL     1       2.009  -5.519   3.476  0.00  0.00    -0.300 N 
ATOM      4  C   UNL     1       2.784  -4.811   4.522  0.00  0.00    +0.121 C 
ATOM      5  C   UNL     1       2.346  -5.472   5.848  0.00  0.00    +0.100 C 
ATOM      6  C   UNL     1       1.839  -6.866   5.442  0.00  0.00    -0.004 C 
ATOM      7  C   UNL     1       2.002  -6.934   3.917  0.00  0.00    +0.115 C 
ATOM      8  C   UNL     1       0.369  -7.023   5.817  0.00  0.00    -0.010 C 
ATOM      9  C   UNL     1      -0.097  -8.437   5.456  0.00  0.00    -0.082 C 
ATOM     10  N   UNL     1       0.720  -9.422   6.175  0.00  0.00    +0.379 N 
ATOM     11  C   UNL     1       2.119  -9.325   5.740  0.00  0.00    -0.082 C 
ATOM     12  C   UNL     1       2.678  -7.949   6.113  0.00  0.00    -0.010 C 
ATOM     13  H   UNL     1       0.665  -9.243   7.167  0.00  0.00    -0.086 HD
ATOM     14  H   UNL     1       0.373 -10.349   5.983  0.00  0.00    -0.086 HD
ENDROOT
BRANCH   5  15
ATOM     15  C   UNL     1       3.518  -5.590   6.788  0.00  0.00    +0.218 C 
ATOM     16  O   UNL     1       4.638  -5.736   6.345  0.00  0.00    -0.275 OA
ATOM     17  N   UNL     1       3.322  -5.534   8.120  0.00  0.00    -0.316 N 
ATOM     18  H   UNL     1       2.426  -5.418   8.474  0.00  0.00    +0.149 HD
BRANCH  17  19
ATOM     19  C   UNL     1       4.461  -5.649   9.033  0.00  0.00    +0.093 C 
BRANCH  19  20
ATOM     20  C   UNL     1       3.955  -5.691  10.477  0.00  0.00    -0.020 C 
BRANCH  20  21
ATOM     21  C   UNL     1       3.154  -6.949  10.692  0.00  0.00    -0.059 A 
ATOM     22  C   UNL     1       3.801  -8.148  10.925  0.00  0.00    +0.005 A 
ATOM     23  C   UNL     1       3.069  -9.303  11.122  0.00  0.00    +0.046 A 
ATOM     24  C   UNL     1       1.683  -9.258  11.085  0.00  0.00    +0.120 A 
ATOM     25  C   UNL     1       1.036  -8.054  10.852  0.00  0.00    +0.046 A 
ATOM     26  C   UNL     1       1.772  -6.901  10.661  0.00  0.00    +0.005 A 
BRANCH  24  27
ATOM     27  O   UNL     1       0.960 -10.393  11.278  0.00  0.00    -0.495 OA
ATOM     28  C   UNL     1      -0.463 -10.272  11.227  0.00  0.00    +0.277 C 
ENDBRANCH  24  27
ENDBRANCH  20  21
BRANCH  20  29
ATOM     29  N   UNL     1       5.100  -5.677  11.398  0.00  0.00    +0.385 N 
ATOM     30  C   UNL     1       5.861  -4.410  11.249  0.00  0.00    -0.078 C 
ATOM     31  C   UNL     1       6.623  -4.294  12.593  0.00  0.00    -0.020 C 
ATOM     32  C   UNL     1       5.599  -4.832  13.618  0.00  0.00    -0.020 C 
ATOM     33  C   UNL     1       4.628  -5.701  12.799  0.00  0.00    -0.078 C 
ATOM     34  H   UNL     1       5.701  -6.467  11.219  0.00  0.00    -0.081 HD
ENDBRANCH  20  29
ENDBRANCH  19  20
ENDBRANCH  17  19
ENDBRANCH   5  15
BRANCH   1  35
ATOM     35  C   UNL     1       1.552  -3.517   2.096  0.00  0.00    +0.072 C 
ATOM     36  C   UNL     1       3.028  -3.140   1.958  0.00  0.00    +0.017 C 
BRANCH  35  37
ATOM     37  C   UNL     1       0.816  -3.184   0.796  0.00  0.00    +0.012 C 
BRANCH  37  38
ATOM     38  C   UNL     1       0.829  -1.670   0.577  0.00  0.00    +0.000 C 
BRANCH  38  40
ATOM     39  C   UNL     1       0.106   0.177  -0.942  0.00  0.00    +0.004 C 
ATOM     40  C   UNL     1       0.093  -1.337  -0.723  0.00  0.00    -0.003 C 
ENDBRANCH  38  40
ENDBRANCH  37  38
ENDBRANCH  35  37
ENDBRANCH   1  35
TORSDOF 10
