REMARK  Name = ZINC36631470
REMARK  6 active torsions:
REMARK  status: ('A' for Active; 'I' for Inactive)
REMARK    1  A    between atoms: C_1  and  C_2
REMARK    2  A    between atoms: C_2  and  C_25
REMARK    3  A    between atoms: N_5  and  N_6
REMARK    4  A    between atoms: C_7  and  C_9
REMARK    5  A    between atoms: C_21  and  C_23
REMARK    6  A    between atoms: C_21  and  C_24
REMARK                            x       y       z     vdW  Elec       q    Type
REMARK                         _______ _______ _______ _____ _____    ______ ____
ROOT
ATOM      1  N   UNL     1       3.494  -0.203  -3.132  0.00  0.00    -0.204 N 
ATOM      2  C   UNL     1       3.978   0.393  -4.240  0.00  0.00    +0.276 C 
ATOM      3  O   UNL     1       3.225   0.973  -4.994  0.00  0.00    -0.270 OA
ATOM      4  H   UNL     1       4.096  -0.667  -2.529  0.00  0.00    +0.177 HD
ENDROOT
BRANCH   1   9
ATOM      5  C   UNL     1      -0.115   1.504  -0.392  0.00  0.00    -0.010 C 
ATOM      6  C   UNL     1      -0.090  -0.008  -0.149  0.00  0.00    -0.068 C 
ATOM      7  C   UNL     1       0.195  -0.732  -1.467  0.00  0.00    +0.039 C 
ATOM      8  C   UNL     1       1.678  -0.633  -1.755  0.00  0.00    +0.034 C 
ATOM      9  N   UNL     1       2.123  -0.154  -2.852  0.00  0.00    -0.189 NA
ATOM     10  C   UNL     1       2.601  -1.137  -0.667  0.00  0.00    +0.039 C 
ATOM     11  C   UNL     1       2.260  -0.408   0.634  0.00  0.00    -0.068 C 
ATOM     12  N   UNL     1       0.836  -0.366   0.910  0.00  0.00    +0.386 N 
ATOM     13  C   UNL     1       2.873   0.996   0.608  0.00  0.00    -0.010 C 
ATOM     14  C   UNL     1       2.942  -1.181   1.787  0.00  0.00    -0.010 C 
ATOM     15  C   UNL     1      -1.509  -0.420   0.305  0.00  0.00    -0.010 C 
ATOM     16  H   UNL     1       0.684   0.277   1.695  0.00  0.00    -0.084 HD
ATOM     17  H   UNL     1       0.558  -1.283   1.277  0.00  0.00    -0.084 HD
ENDBRANCH   1   9
BRANCH   2  18
ATOM     18  C   UNL     1       5.453   0.340  -4.541  0.00  0.00    +0.297 C 
ATOM     19  C   UNL     1       5.872  -1.109  -4.825  0.00  0.00    +0.283 C 
ATOM     20  O   UNL     1       7.272  -1.121  -5.121  0.00  0.00    -0.484 OA
ATOM     21  C   UNL     1       7.721  -0.178  -5.993  0.00  0.00    +0.162 A 
ATOM     22  C   UNL     1       8.958  -0.345  -6.599  0.00  0.00    +0.049 A 
ATOM     23  C   UNL     1       9.429   0.606  -7.484  0.00  0.00    +0.004 A 
ATOM     24  C   UNL     1       8.669   1.726  -7.769  0.00  0.00    +0.004 A 
ATOM     25  C   UNL     1       7.436   1.897  -7.170  0.00  0.00    +0.049 A 
ATOM     26  C   UNL     1       6.957   0.946  -6.281  0.00  0.00    +0.163 A 
ATOM     27  O   UNL     1       5.737   1.126  -5.704  0.00  0.00    -0.472 OA
ENDBRANCH   2  18
TORSDOF 2
