REMARK  Name = ZINC31937184
REMARK  8 active torsions:
REMARK  status: ('A' for Active; 'I' for Inactive)
REMARK    1  A    between atoms: C_1  and  C_2
REMARK    2  A    between atoms: C_14  and  C_37
REMARK    3  A    between atoms: N_16  and  C_17
REMARK    4  A    between atoms: C_17  and  C_19
REMARK    5  A    between atoms: C_22  and  C_28
REMARK    6  A    between atoms: C_23  and  N_25
REMARK    7  A    between atoms: N_29  and  C_30
REMARK    8  A    between atoms: C_30  and  C_31
REMARK                            x       y       z     vdW  Elec       q    Type
REMARK                         _______ _______ _______ _____ _____    ______ ____
ROOT
ATOM      1  C   UNL     1      -0.172   1.626   0.385  0.00  0.00    +0.047 C 
ATOM      2  C   UNL     1      -0.537   0.164   0.406  0.00  0.00    -0.007 A 
ATOM      3  C   UNL     1      -0.746  -0.506  -0.762  0.00  0.00    +0.008 A 
ATOM      4  C   UNL     1      -1.085  -1.866  -0.730  0.00  0.00    +0.019 A 
ATOM      5  C   UNL     1      -1.201  -2.505   0.456  0.00  0.00    +0.096 A 
ATOM      6  N   UNL     1      -0.994  -1.844   1.629  0.00  0.00    -0.267 N 
ATOM      7  C   UNL     1      -0.656  -0.519   1.631  0.00  0.00    +0.145 A 
ATOM      8  N   UNL     1      -0.441   0.155   2.761  0.00  0.00    -0.211 NA
ATOM      9  C   UNL     1      -0.534  -0.414   3.953  0.00  0.00    +0.150 A 
ATOM     10  C   UNL     1      -0.873  -1.786   4.039  0.00  0.00    +0.084 A 
ATOM     11  C   UNL     1      -1.120  -2.518   2.796  0.00  0.00    +0.268 A 
ATOM     12  O   UNL     1      -1.415  -3.700   2.810  0.00  0.00    -0.267 OA
ATOM     13  C   UNL     1      -0.978  -2.409   5.286  0.00  0.00    +0.039 A 
ATOM     14  C   UNL     1      -0.745  -1.660   6.438  0.00  0.00    +0.093 A 
ATOM     15  C   UNL     1      -0.407  -0.289   6.325  0.00  0.00    +0.146 A 
ATOM     16  N   UNL     1      -0.183   0.427   7.425  0.00  0.00    -0.158 NA
ATOM     17  N   UNL     1      -0.306   0.306   5.098  0.00  0.00    -0.308 N 
ENDROOT
BRANCH  16  18
ATOM     18  C   UNL     1      -0.128  -0.177   8.616  0.00  0.00    +0.269 C 
ATOM     19  O   UNL     1      -1.139  -0.298   9.285  0.00  0.00    -0.268 OA
BRANCH  18  20
ATOM     20  C   UNL     1       1.162  -0.700   9.122  0.00  0.00    +0.041 A 
ATOM     21  C   UNL     1       2.323  -0.558   8.361  0.00  0.00    +0.013 A 
ATOM     22  C   UNL     1       3.521  -1.046   8.838  0.00  0.00    +0.006 A 
ATOM     23  C   UNL     1       3.574  -1.676  10.069  0.00  0.00    -0.020 A 
ATOM     24  C   UNL     1       2.427  -1.820  10.828  0.00  0.00    +0.130 A 
ATOM     25  C   UNL     1       1.223  -1.331  10.364  0.00  0.00    +0.046 A 
ATOM     26  C   UNL     1       4.887  -2.209  10.584  0.00  0.00    +0.046 C 
BRANCH  24  27
ATOM     27  N   UNL     1       2.492  -2.495  12.144  0.00  0.00    +0.057 N 
ATOM     28  O   UNL     1       1.547  -3.135  12.542  0.00  0.00    -0.126 OA
ATOM     29  O   UNL     1       3.490  -2.406  12.820  0.00  0.00    -0.126 OA
ENDBRANCH  24  27
ENDBRANCH  18  20
ENDBRANCH  16  18
BRANCH  14  30
ATOM     30  C   UNL     1      -0.846  -2.273   7.728  0.00  0.00    +0.103 C 
ATOM     31  N   UNL     1      -0.926  -2.760   8.751  0.00  0.00    -0.191 NA
ENDBRANCH  14  30
BRANCH  17  32
ATOM     32  C   UNL     1       0.045   1.725   5.005  0.00  0.00    +0.156 C 
BRANCH  32  33
ATOM     33  C   UNL     1      -1.231   2.569   5.031  0.00  0.00    +0.138 C 
ATOM     34  C   UNL     1      -0.884   4.073   4.899  0.00  0.00    +0.035 C 
ATOM     35  C   UNL     1      -2.208   4.631   4.310  0.00  0.00    +0.031 C 
ATOM     36  C   UNL     1      -2.687   3.464   3.419  0.00  0.00    +0.160 C 
ATOM     37  O   UNL     1      -2.050   2.269   3.890  0.00  0.00    -0.375 OA
ENDBRANCH  32  33
ENDBRANCH  17  32
TORSDOF 6
