REMARK  Name = ZINC35354355
REMARK  4 active torsions:
REMARK  status: ('A' for Active; 'I' for Inactive)
REMARK    1  A    between atoms: C_4  and  C_7
REMARK    2  A    between atoms: C_7  and  C_8
REMARK    3  A    between atoms: C_16  and  C_19
REMARK    4  A    between atoms: C_24  and  N_27
REMARK                            x       y       z     vdW  Elec       q    Type
REMARK                         _______ _______ _______ _____ _____    ______ ____
ROOT
ATOM      1  C   UNL     1       9.890   1.327   5.631  0.00  0.00    +0.219 C 
ATOM      2  O   UNL     1      10.651   0.980   4.753  0.00  0.00    -0.275 OA
ATOM      3  N   UNL     1      10.375   1.731   6.822  0.00  0.00    -0.301 N 
ATOM      4  C   UNL     1       9.467   2.036   7.936  0.00  0.00    +0.110 C 
ATOM      5  C   UNL     1       9.897   1.221   9.160  0.00  0.00    +0.044 C 
ATOM      6  C   UNL     1      11.373   1.496   9.459  0.00  0.00    +0.095 C 
ATOM      7  C   UNL     1      12.226   1.062   8.265  0.00  0.00    +0.044 C 
ATOM      8  C   UNL     1      11.823   1.869   7.033  0.00  0.00    +0.110 C 
ENDROOT
BRANCH   1  17
ATOM      9  C   UNL     1       4.158  -0.952   1.382  0.00  0.00    +0.145 A 
ATOM     10  N   UNL     1       4.912  -0.078   2.011  0.00  0.00    -0.208 NA
ATOM     11  C   UNL     1       5.269  -0.357   3.255  0.00  0.00    +0.181 A 
ATOM     12  S   UNL     1       4.535  -1.846   3.517  0.00  0.00    +0.049 S 
ATOM     13  N   UNL     1       3.802  -2.038   2.022  0.00  0.00    -0.192 NA
ATOM     14  N   UNL     1       6.049   0.388   4.120  0.00  0.00    -0.308 N 
ATOM     15  C   UNL     1       6.602   1.684   3.702  0.00  0.00    +0.108 C 
ATOM     16  C   UNL     1       8.116   1.671   3.933  0.00  0.00    +0.032 C 
ATOM     17  C   UNL     1       8.402   1.307   5.392  0.00  0.00    +0.078 C 
ATOM     18  C   UNL     1       7.857  -0.093   5.686  0.00  0.00    +0.032 C 
ATOM     19  C   UNL     1       6.336  -0.098   5.477  0.00  0.00    +0.108 C 
BRANCH   9  20
ATOM     20  C   UNL     1       3.709  -0.707  -0.036  0.00  0.00    +0.112 C 
BRANCH  20  24
ATOM     21  C   UNL     1      -0.004   1.405  -0.013  0.00  0.00    +0.000 A 
ATOM     22  C   UNL     1       1.189   2.104  -0.023  0.00  0.00    +0.000 A 
ATOM     23  C   UNL     1       2.390   1.421  -0.030  0.00  0.00    +0.004 A 
ATOM     24  C   UNL     1       2.399   0.038  -0.027  0.00  0.00    -0.040 A 
ATOM     25  C   UNL     1       1.207  -0.661  -0.015  0.00  0.00    +0.004 A 
ATOM     26  C   UNL     1       0.005   0.023  -0.010  0.00  0.00    +0.000 A 
ENDBRANCH  20  24
ENDBRANCH   9  20
ENDBRANCH   1  17
BRANCH   6  27
ATOM     27  N   UNL     1      11.779   0.744  10.648  0.00  0.00    -0.289 N 
ATOM     28  C   UNL     1      12.266   1.292  11.832  0.00  0.00    +0.070 A 
ATOM     29  C   UNL     1      12.509   2.592  12.250  0.00  0.00    +0.028 A 
ATOM     30  C   UNL     1      13.008   2.825  13.516  0.00  0.00    +0.002 A 
ATOM     31  C   UNL     1      13.266   1.767  14.371  0.00  0.00    +0.002 A 
ATOM     32  C   UNL     1      13.028   0.469  13.964  0.00  0.00    +0.028 A 
ATOM     33  C   UNL     1      12.526   0.225  12.694  0.00  0.00    +0.067 A 
ATOM     34  N   UNL     1      12.189  -0.939  12.007  0.00  0.00    -0.306 N 
ATOM     35  H   UNL     1      12.262  -1.843  12.351  0.00  0.00    +0.170 HD
ATOM     36  C   UNL     1      11.739  -0.595  10.786  0.00  0.00    +0.328 A 
ATOM     37  O   UNL     1      11.357  -1.375   9.934  0.00  0.00    -0.247 OA
ENDBRANCH   6  27
TORSDOF 4
