REMARK  Name = ZINC59104556
REMARK  9 active torsions:
REMARK  status: ('A' for Active; 'I' for Inactive)
REMARK    1  A    between atoms: C_1  and  C_2
REMARK    2  A    between atoms: C_4  and  C_15
REMARK    3  A    between atoms: C_5  and  C_14
REMARK    4  A    between atoms: N_6  and  C_7
REMARK    5  A    between atoms: C_16  and  C_17
REMARK    6  A    between atoms: C_16  and  C_19
REMARK    7  A    between atoms: N_21  and  C_22
REMARK    8  A    between atoms: C_22  and  C_23
REMARK    9  A    between atoms: C_23  and  C_24
REMARK                            x       y       z     vdW  Elec       q    Type
REMARK                         _______ _______ _______ _____ _____    ______ ____
ROOT
ATOM      1  C   UNL     1       0.286  -3.357  -1.470  0.00  0.00    +0.033 C 
ATOM      2  C   UNL     1      -0.069  -3.240  -2.799  0.00  0.00    +0.114 C 
ENDROOT
BRANCH   1   6
ATOM      3  C   UNL     1       3.216   0.610  -0.374  0.00  0.00    +0.064 C 
ATOM      4  C   UNL     1       2.185  -0.488  -0.316  0.00  0.00    +0.022 A 
ATOM      5  C   UNL     1       1.954  -1.390  -1.283  0.00  0.00    +0.031 A 
ATOM      6  C   UNL     1       0.873  -2.257  -0.793  0.00  0.00    -0.003 A 
ATOM      7  C   UNL     1       0.544  -1.779   0.465  0.00  0.00    +0.028 A 
ATOM      8  N   UNL     1       1.341  -0.727   0.734  0.00  0.00    -0.317 N 
ATOM      9  C   UNL     1      -0.517  -2.342   1.376  0.00  0.00    +0.064 C 
BRANCH   8  10
ATOM     10  C   UNL     1       1.308   0.019   1.920  0.00  0.00    +0.048 A 
ATOM     11  C   UNL     1       1.663  -0.574   3.124  0.00  0.00    +0.026 A 
ATOM     12  C   UNL     1       1.630   0.164   4.292  0.00  0.00    +0.003 A 
ATOM     13  C   UNL     1       1.244   1.491   4.262  0.00  0.00    +0.015 A 
ATOM     14  C   UNL     1       0.890   2.085   3.064  0.00  0.00    +0.020 A 
ATOM     15  C   UNL     1       0.927   1.354   1.891  0.00  0.00    +0.041 A 
ATOM     16 BR   UNL     1       0.363   3.901   3.028  0.00  0.00    -0.050 Br
ENDBRANCH   8  10
ENDBRANCH   1   6
BRANCH   2  17
ATOM     17  C   UNL     1      -0.090  -1.919  -3.441  0.00  0.00    +0.254 C 
ATOM     18  O   UNL     1       0.082  -0.916  -2.774  0.00  0.00    -0.269 OA
ATOM     19  N   UNL     1      -0.299  -1.817  -4.768  0.00  0.00    -0.310 N 
ATOM     20  H   UNL     1      -0.436  -2.617  -5.300  0.00  0.00    +0.149 HD
BRANCH  19  21
ATOM     21  C   UNL     1      -0.321  -0.499  -5.408  0.00  0.00    +0.109 C 
BRANCH  21  22
ATOM     22  C   UNL     1      -0.575  -0.664  -6.908  0.00  0.00    +0.056 C 
BRANCH  22  23
ATOM     23  C   UNL     1      -0.597   0.691  -7.566  0.00  0.00    -0.021 A 
ATOM     24  C   UNL     1      -1.683   1.438  -7.820  0.00  0.00    +0.087 A 
ATOM     25  N   UNL     1      -1.313   2.607  -8.427  0.00  0.00    -0.360 N 
ATOM     26  H   UNL     1      -1.924   3.308  -8.706  0.00  0.00    +0.165 HD
ATOM     27  C   UNL     1       0.054   2.643  -8.582  0.00  0.00    +0.047 A 
ATOM     28  C   UNL     1       0.564   1.447  -8.043  0.00  0.00    +0.003 A 
ATOM     29  C   UNL     1       1.939   1.207  -8.057  0.00  0.00    +0.010 A 
ATOM     30  C   UNL     1       2.785   2.138  -8.591  0.00  0.00    +0.001 A 
ATOM     31  C   UNL     1       2.288   3.321  -9.119  0.00  0.00    +0.002 A 
ATOM     32  C   UNL     1       0.933   3.574  -9.124  0.00  0.00    +0.026 A 
ENDBRANCH  22  23
ENDBRANCH  21  22
ENDBRANCH  19  21
ENDBRANCH   2  17
BRANCH   2  33
ATOM     33  C   UNL     1      -0.416  -4.408  -3.553  0.00  0.00    +0.104 C 
ATOM     34  N   UNL     1      -0.692  -5.334  -4.150  0.00  0.00    -0.191 NA
ENDBRANCH   2  33
TORSDOF 7
