REMARK  Name = ZINC20558586
REMARK  9 active torsions:
REMARK  status: ('A' for Active; 'I' for Inactive)
REMARK    1  A    between atoms: C_1  and  C_2
REMARK    2  A    between atoms: C_5  and  C_8
REMARK    3  A    between atoms: C_8  and  N_9
REMARK    4  A    between atoms: C_21  and  C_29
REMARK    5  A    between atoms: C_23  and  C_27
REMARK    6  A    between atoms: C_24  and  N_26
REMARK    7  A    between atoms: C_32  and  C_35
REMARK    8  A    between atoms: C_35  and  O_37
REMARK    9  A    between atoms: O_37  and  C_38
REMARK                            x       y       z     vdW  Elec       q    Type
REMARK                         _______ _______ _______ _____ _____    ______ ____
ROOT
ATOM      1  N   UNL     1       2.857   4.194  -1.385  0.00  0.00    -0.198 N 
ATOM      2  C   UNL     1       3.589   3.253  -2.120  0.00  0.00    +0.062 A 
ATOM      3  C   UNL     1       4.457   2.406  -1.446  0.00  0.00    +0.025 A 
ATOM      4  C   UNL     1       5.195   1.470  -2.144  0.00  0.00    +0.002 A 
ATOM      5  C   UNL     1       5.068   1.372  -3.519  0.00  0.00    +0.001 A 
ATOM      6  C   UNL     1       4.203   2.201  -4.199  0.00  0.00    +0.013 A 
ATOM      7  C   UNL     1       3.445   3.153  -3.506  0.00  0.00    +0.042 A 
ATOM      8  C   UNL     1       2.525   4.010  -4.292  0.00  0.00    +0.162 C 
ATOM      9  C   UNL     1       2.027   5.139  -3.796  0.00  0.00    +0.141 C 
ATOM     10  S   UNL     1       2.475   5.621  -2.153  0.00  0.00    +0.076 S 
ATOM     11  O   UNL     1       1.301   6.125  -1.533  0.00  0.00    -0.150 OA
ATOM     12  O   UNL     1       3.676   6.373  -2.253  0.00  0.00    -0.150 OA
ATOM     13  C   UNL     1       1.096   6.011  -4.592  0.00  0.00    +0.118 C 
ATOM     14  C   UNL     1       1.185   5.667  -6.053  0.00  0.00    +0.099 C 
ATOM     15  C   UNL     1       1.732   4.488  -6.446  0.00  0.00    +0.199 C 
ATOM     16  O   UNL     1       2.200   3.606  -5.549  0.00  0.00    -0.439 OA
ENDROOT
BRANCH  13  17
ATOM     17  C   UNL     1      -0.318   5.799  -4.115  0.00  0.00    -0.033 A 
ATOM     18  C   UNL     1      -0.890   4.542  -4.194  0.00  0.00    +0.005 A 
ATOM     19  C   UNL     1      -2.182   4.340  -3.753  0.00  0.00    +0.015 A 
ATOM     20  C   UNL     1      -2.915   5.410  -3.238  0.00  0.00    +0.059 A 
ATOM     21  C   UNL     1      -2.333   6.677  -3.166  0.00  0.00    +0.015 A 
ATOM     22  C   UNL     1      -1.039   6.864  -3.605  0.00  0.00    +0.005 A 
BRANCH  20  23
ATOM     23  C   UNL     1      -4.301   5.202  -2.771  0.00  0.00    +0.339 C 
ATOM     24  O   UNL     1      -4.938   6.136  -2.323  0.00  0.00    -0.245 OA
BRANCH  23  25
ATOM     25  O   UNL     1      -4.860   3.979  -2.841  0.00  0.00    -0.464 OA
ATOM     26  C   UNL     1      -6.225   3.849  -2.364  0.00  0.00    +0.280 C 
ENDBRANCH  23  25
ENDBRANCH  20  23
ENDBRANCH  13  17
BRANCH  15  27
ATOM     27  N   UNL     1       1.807   4.193  -7.784  0.00  0.00    -0.328 N 
ATOM     28  H   UNL     1       2.248   3.240  -8.113  0.00  0.00    +0.145 HD
ATOM     29  H   UNL     1       1.426   4.909  -8.527  0.00  0.00    +0.145 HD
ENDBRANCH  15  27
BRANCH  14  30
ATOM     30  C   UNL     1       0.692   6.586  -7.034  0.00  0.00    +0.101 C 
ATOM     31  N   UNL     1       0.300   7.315  -7.813  0.00  0.00    -0.191 NA
ENDBRANCH  14  30
BRANCH   1  32
ATOM     32  C   UNL     1       2.451   3.937  -0.001  0.00  0.00    +0.166 C 
BRANCH  32  37
ATOM     33  C   UNL     1      -2.514   0.980   0.019  0.00  0.00    +0.044 C 
ATOM     34  C   UNL     1      -1.219   1.751   0.017  0.00  0.00    -0.050 A 
ATOM     35  C   UNL     1      -0.013   1.076   0.008  0.00  0.00    +0.003 A 
ATOM     36  C   UNL     1       1.175   1.783   0.000  0.00  0.00    +0.005 A 
ATOM     37  C   UNL     1       1.156   3.165   0.008  0.00  0.00    -0.028 A 
ATOM     38  C   UNL     1      -0.050   3.840   0.022  0.00  0.00    +0.005 A 
ATOM     39  C   UNL     1      -1.238   3.133   0.030  0.00  0.00    +0.003 A 
ENDBRANCH  32  37
ENDBRANCH   1  32
TORSDOF 7
