REMARK  Name = ZINC39855518
REMARK  7 active torsions:
REMARK  status: ('A' for Active; 'I' for Inactive)
REMARK    1  A    between atoms: C_1  and  C_2
REMARK    2  A    between atoms: C_6  and  C_7
REMARK    3  A    between atoms: N_9  and  C_10
REMARK    4  A    between atoms: C_15  and  N_16
REMARK    5  A    between atoms: C_20  and  C_25
REMARK    6  A    between atoms: C_20  and  C_26
REMARK    7  A    between atoms: C_22  and  O_24
REMARK                            x       y       z     vdW  Elec       q    Type
REMARK                         _______ _______ _______ _____ _____    ______ ____
ROOT
ATOM      1  C   UNL     1      -1.551   0.631   0.215  0.00  0.00    +0.048 C 
ATOM      2  C   UNL     1      -1.307  -0.855   0.239  0.00  0.00    +0.006 A 
ATOM      3  C   UNL     1      -1.395  -1.733  -0.844  0.00  0.00    +0.025 A 
ATOM      4  C   UNL     1      -1.097  -2.974  -0.385  0.00  0.00    +0.112 A 
ATOM      5  O   UNL     1      -0.836  -2.894   0.921  0.00  0.00    -0.454 OA
ATOM      6  C   UNL     1      -0.951  -1.609   1.323  0.00  0.00    +0.193 A 
ATOM      7  C   UNL     1      -1.078  -4.208  -1.255  0.00  0.00    +0.081 C 
ATOM      8  C   UNL     1      -1.024  -3.767  -2.722  0.00  0.00    -0.025 C 
ATOM      9  C   UNL     1      -2.115  -2.724  -2.984  0.00  0.00    +0.043 C 
ATOM     10  C   UNL     1      -1.750  -1.415  -2.273  0.00  0.00    +0.149 C 
ATOM     11  C   UNL     1      -1.250  -4.979  -3.628  0.00  0.00    +0.011 C 
ATOM     12  C   UNL     1       0.346  -3.156  -3.020  0.00  0.00    +0.011 C 
ENDROOT
BRANCH   6  13
ATOM     13  C   UNL     1      -0.734  -1.110   2.685  0.00  0.00    +0.284 C 
ATOM     14  O   UNL     1      -0.870   0.075   2.928  0.00  0.00    -0.266 OA
ATOM     15  N   UNL     1      -0.383  -1.963   3.667  0.00  0.00    -0.277 N 
ATOM     16  H   UNL     1      -0.200  -2.893   3.460  0.00  0.00    +0.155 HD
BRANCH  15  17
ATOM     17  C   UNL     1      -0.284  -1.509   4.986  0.00  0.00    +0.064 A 
ATOM     18  C   UNL     1      -1.069  -0.447   5.417  0.00  0.00    +0.025 A 
ATOM     19  C   UNL     1      -0.970  -0.000   6.720  0.00  0.00    +0.002 A 
ATOM     20  C   UNL     1      -0.089  -0.609   7.595  0.00  0.00    +0.002 A 
ATOM     21  C   UNL     1       0.694  -1.666   7.170  0.00  0.00    +0.034 A 
ATOM     22  C   UNL     1       0.595  -2.122   5.869  0.00  0.00    +0.147 A 
BRANCH  22  23
ATOM     23  N   UNL     1       1.429  -3.257   5.416  0.00  0.00    +0.058 N 
ATOM     24  O   UNL     1       2.118  -3.855   6.209  0.00  0.00    -0.126 OA
ATOM     25  O   UNL     1       1.421  -3.587   4.253  0.00  0.00    -0.126 OA
ENDBRANCH  22  23
ENDBRANCH  15  17
ENDBRANCH   6  13
BRANCH  10  26
ATOM     26  O   UNL     1      -2.866  -0.523  -2.305  0.00  0.00    -0.387 OA
ATOM     27  H   UNL     1      -2.663   0.372  -2.000  0.00  0.00    +0.210 HD
ENDBRANCH  10  26
TORSDOF 4
