REMARK  Name = ZINC20665193
REMARK  7 active torsions:
REMARK  status: ('A' for Active; 'I' for Inactive)
REMARK    1  A    between atoms: C_1  and  N_2
REMARK    2  A    between atoms: N_2  and  C_3
REMARK    3  A    between atoms: N_2  and  C_4
REMARK    4  A    between atoms: C_4  and  C_10
REMARK    5  A    between atoms: C_10  and  N_11
REMARK    6  A    between atoms: N_11  and  C_12
REMARK    7  A    between atoms: N_22  and  C_25
REMARK                            x       y       z     vdW  Elec       q    Type
REMARK                         _______ _______ _______ _____ _____    ______ ____
ROOT
ATOM      1  C   UNL     1      -3.923   5.085   1.042  0.00  0.00    +0.081 C 
ATOM      2  C   UNL     1      -4.811   5.564   1.979  0.00  0.00    +0.059 C 
ATOM      3  C   UNL     1      -4.916   4.943   3.316  0.00  0.00    +0.000 A 
ATOM      4  C   UNL     1      -4.128   3.858   3.683  0.00  0.00    +0.009 A 
ATOM      5  C   UNL     1      -4.263   3.314   4.944  0.00  0.00    +0.001 A 
ATOM      6  C   UNL     1      -5.176   3.841   5.846  0.00  0.00    +0.001 A 
ATOM      7  C   UNL     1      -5.965   4.917   5.500  0.00  0.00    +0.014 A 
ATOM      8  C   UNL     1      -5.845   5.482   4.230  0.00  0.00    +0.046 A 
ATOM      9  C   UNL     1      -6.666   6.630   3.823  0.00  0.00    +0.258 C 
ATOM     10  O   UNL     1      -7.469   7.099   4.606  0.00  0.00    -0.269 OA
ATOM     11  N   UNL     1      -6.545   7.170   2.599  0.00  0.00    -0.202 N 
ATOM     12  C   UNL     1      -5.677   6.710   1.682  0.00  0.00    +0.259 C 
ATOM     13  O   UNL     1      -5.612   7.248   0.592  0.00  0.00    -0.269 OA
ENDROOT
BRANCH  11  14
ATOM     14  C   UNL     1      -7.354   8.263   2.266  0.00  0.00    +0.045 A 
ATOM     15  C   UNL     1      -7.145   9.494   2.874  0.00  0.00    +0.024 A 
ATOM     16  C   UNL     1      -7.941  10.572   2.541  0.00  0.00    +0.002 A 
ATOM     17  C   UNL     1      -8.954  10.424   1.610  0.00  0.00    +0.000 A 
ATOM     18  C   UNL     1      -9.168   9.198   1.007  0.00  0.00    +0.002 A 
ATOM     19  C   UNL     1      -8.371   8.118   1.332  0.00  0.00    +0.024 A 
ENDBRANCH  11  14
BRANCH   1  20
ATOM     20  N   UNL     1      -3.565   3.774   1.053  0.00  0.00    -0.350 N 
ATOM     21  H   UNL     1      -4.090   3.066   1.712  0.00  0.00    +0.145 HD
BRANCH  20  22
ATOM     22  C   UNL     1      -2.481   3.303   0.188  0.00  0.00    +0.089 C 
BRANCH  22  23
ATOM     23  C   UNL     1      -2.398   1.777   0.259  0.00  0.00    -0.051 C 
ATOM     24  C   UNL     1      -1.160   1.297  -0.501  0.00  0.00    -0.010 C 
ATOM     25  C   UNL     1       0.093   1.905   0.132  0.00  0.00    -0.001 C 
ATOM     26  C   UNL     1       0.191   1.467   1.594  0.00  0.00    -0.000 C 
ATOM     27  C   UNL     1      -1.048   1.946   2.354  0.00  0.00    -0.001 C 
ATOM     28  C   UNL     1      -2.301   1.338   1.721  0.00  0.00    -0.010 C 
BRANCH  23  30
ATOM     29  C   UNL     1      -4.799   1.516   0.439  0.00  0.00    -0.096 C 
ATOM     30  N   UNL     1      -3.602   1.193  -0.349  0.00  0.00    +0.381 N 
ATOM     31  C   UNL     1      -3.755   1.633  -1.742  0.00  0.00    -0.096 C 
ATOM     32  H   UNL     1      -3.483   0.099  -0.351  0.00  0.00    -0.082 HD
ENDBRANCH  23  30
ENDBRANCH  22  23
ENDBRANCH  20  22
ENDBRANCH   1  20
TORSDOF 5
