REMARK  Name = ZINC06006858
REMARK  9 active torsions:
REMARK  status: ('A' for Active; 'I' for Inactive)
REMARK    1  A    between atoms: C_1  and  C_2
REMARK    2  A    between atoms: C_2  and  C_3
REMARK    3  A    between atoms: C_3  and  C_4
REMARK    4  A    between atoms: C_4  and  C_5
REMARK    5  A    between atoms: C_5  and  C_6
REMARK    6  A    between atoms: C_6  and  C_7
REMARK    7  A    between atoms: C_11  and  C_19
REMARK    8  A    between atoms: C_17  and  O_18
REMARK    9  A    between atoms: C_24  and  C_27
REMARK                            x       y       z     vdW  Elec       q    Type
REMARK                         _______ _______ _______ _____ _____    ______ ____
ROOT
ATOM      1  C   UNL     1       1.395   2.047  -0.000  0.00  0.00    -0.005 A 
ATOM      2  C   UNL     1       1.950   2.475  -1.169  0.00  0.00    +0.018 A 
ATOM      3  C   UNL     1       3.266   2.967  -1.182  0.00  0.00    +0.019 A 
ATOM      4  C   UNL     1       3.844   3.418  -2.392  0.00  0.00    +0.031 A 
ATOM      5  C   UNL     1       5.146   3.893  -2.372  0.00  0.00    +0.122 A 
ATOM      6  C   UNL     1       5.874   3.909  -1.099  0.00  0.00    +0.350 A 
ATOM      7  O   UNL     1       7.018   4.321  -1.059  0.00  0.00    -0.244 OA
ATOM      8  O   UNL     1       5.280   3.470   0.023  0.00  0.00    -0.422 OA
ATOM      9  C   UNL     1       4.011   3.006   0.013  0.00  0.00    +0.143 A 
ATOM     10  C   UNL     1       3.430   2.560   1.191  0.00  0.00    +0.092 A 
ATOM     11  C   UNL     1       2.129   2.084   1.185  0.00  0.00    +0.124 A 
ENDROOT
BRANCH   5  12
ATOM     12  C   UNL     1       5.787   4.372  -3.607  0.00  0.00    +0.257 C 
ATOM     13  O   UNL     1       6.931   4.786  -3.578  0.00  0.00    -0.270 OA
ATOM     14  N   UNL     1       5.108   4.351  -4.771  0.00  0.00    -0.260 N 
ATOM     15  C   UNL     1       5.713   4.803  -5.936  0.00  0.00    +0.165 A 
ATOM     16  N   UNL     1       5.218   4.862  -7.158  0.00  0.00    -0.229 NA
ATOM     17  C   UNL     1       5.935   5.324  -8.163  0.00  0.00    +0.057 A 
ATOM     18  C   UNL     1       7.201   5.740  -7.917  0.00  0.00    +0.072 A 
ATOM     19  S   UNL     1       7.312   5.443  -6.158  0.00  0.00    -0.060 S 
ATOM     20  H   UNL     1       4.196   4.021  -4.794  0.00  0.00    +0.157 HD
BRANCH  17  21
ATOM     21  C   UNL     1       5.361   5.386  -9.555  0.00  0.00    +0.014 C 
ATOM     22  C   UNL     1       6.389   4.856 -10.556  0.00  0.00    +0.016 C 
ATOM     23  C   UNL     1       5.806   4.920 -11.969  0.00  0.00    -0.010 C 
ATOM     24  C   UNL     1       4.540   4.063 -12.037  0.00  0.00    +0.007 C 
ATOM     25  C   UNL     1       3.511   4.594 -11.036  0.00  0.00    -0.010 C 
ATOM     26  C   UNL     1       4.095   4.530  -9.623  0.00  0.00    +0.016 C 
ATOM     27  C   UNL     1       3.165   6.044 -11.380  0.00  0.00    +0.007 C 
ATOM     28  C   UNL     1       4.432   6.900 -11.312  0.00  0.00    -0.010 C 
ATOM     29  C   UNL     1       5.460   6.370 -12.313  0.00  0.00    +0.007 C 
ATOM     30  C   UNL     1       5.015   6.836  -9.899  0.00  0.00    +0.016 C 
ENDBRANCH  17  21
ENDBRANCH   5  12
BRANCH  11  31
ATOM     31  O   UNL     1       1.566   1.649   2.340  0.00  0.00    -0.506 OA
ATOM     32  H   UNL     1       1.702   0.707   2.514  0.00  0.00    +0.292 HD
ENDBRANCH  11  31
BRANCH   1  33
ATOM     33  C   UNL     1      -0.019   1.526   0.010  0.00  0.00    +0.039 C 
BRANCH  33  34
ATOM     34  C   UNL     1       0.002  -0.004   0.002  0.00  0.00    +0.005 C 
BRANCH  34  35
ATOM     35  C   UNL     1      -1.433  -0.534   0.013  0.00  0.00    +0.000 C 
BRANCH  35  36
ATOM     36  C   UNL     1      -1.413  -2.063   0.004  0.00  0.00    -0.000 C 
BRANCH  36  38
ATOM     37  C   UNL     1      -2.827  -4.123   0.007  0.00  0.00    +0.004 C 
ATOM     38  C   UNL     1      -2.848  -2.593   0.015  0.00  0.00    -0.003 C 
ENDBRANCH  36  38
ENDBRANCH  35  36
ENDBRANCH  34  35
ENDBRANCH  33  34
ENDBRANCH   1  33
TORSDOF 8
