REMARK  Name = ZINC34974956
REMARK  11 active torsions:
REMARK  status: ('A' for Active; 'I' for Inactive)
REMARK    1  A    between atoms: C_1  and  C_2
REMARK    2  A    between atoms: C_9  and  C_11
REMARK    3  A    between atoms: C_17  and  C_19
REMARK    4  A    between atoms: C_19  and  C_21
REMARK    5  A    between atoms: C_19  and  N_24
REMARK    6  A    between atoms: C_21  and  C_22
REMARK    7  A    between atoms: C_21  and  C_23
REMARK    8  A    between atoms: N_27  and  C_28
REMARK    9  A    between atoms: C_28  and  C_29
REMARK   10  A    between atoms: C_28  and  C_30
REMARK   11  A    between atoms: C_28  and  C_31
REMARK                            x       y       z     vdW  Elec       q    Type
REMARK                         _______ _______ _______ _____ _____    ______ ____
ROOT
ATOM      1  C   UNL     1      -1.124   1.454  -1.050  0.00  0.00    +0.029 C 
ATOM      2  C   UNL     1      -0.819  -0.018  -1.335  0.00  0.00    +0.090 C 
ATOM      3  C   UNL     1       0.534  -0.135  -2.047  0.00  0.00    +0.130 C 
ATOM      4  N   UNL     1       0.929  -1.550  -2.078  0.00  0.00    -0.297 N 
ATOM      5  C   UNL     1       0.999  -2.294  -0.812  0.00  0.00    +0.127 C 
ATOM      6  C   UNL     1      -0.354  -2.177  -0.099  0.00  0.00    +0.127 C 
ATOM      7  N   UNL     1      -0.752  -0.762  -0.069  0.00  0.00    -0.295 N 
ATOM      8  C   UNL     1      -1.047  -0.157   1.099  0.00  0.00    +0.219 C 
ATOM      9  O   UNL     1      -1.497   0.969   1.101  0.00  0.00    -0.275 OA
ATOM     10  C   UNL     1       1.221  -2.156  -3.246  0.00  0.00    +0.236 C 
ATOM     11  O   UNL     1       1.203  -1.522  -4.279  0.00  0.00    -0.274 OA
ENDROOT
BRANCH   8  12
ATOM     12  C   UNL     1      -0.816  -0.879   2.401  0.00  0.00    +0.075 C 
ATOM     13  C   UNL     1      -1.978  -1.839   2.664  0.00  0.00    +0.013 C 
ATOM     14  C   UNL     1      -1.744  -2.572   3.987  0.00  0.00    +0.001 C 
ATOM     15  C   UNL     1      -1.655  -1.555   5.126  0.00  0.00    +0.000 C 
ATOM     16  C   UNL     1      -0.493  -0.595   4.862  0.00  0.00    +0.001 C 
ATOM     17  C   UNL     1      -0.727   0.139   3.540  0.00  0.00    +0.013 C 
ENDBRANCH   8  12
BRANCH  10  18
ATOM     18  C   UNL     1       1.570  -3.622  -3.268  0.00  0.00    +0.163 C 
BRANCH  18  19
ATOM     19  N   UNL     1       2.583  -3.868  -4.297  0.00  0.00    -0.288 N 
ATOM     20  C   UNL     1       3.406  -4.929  -4.193  0.00  0.00    +0.301 C 
ATOM     21  O   UNL     1       3.309  -5.683  -3.244  0.00  0.00    -0.253 OA
ATOM     22  N   UNL     1       4.338  -5.155  -5.140  0.00  0.00    -0.295 N 
ATOM     23  H   UNL     1       2.660  -3.266  -5.054  0.00  0.00    +0.151 HD
ATOM     24  H   UNL     1       4.416  -4.553  -5.897  0.00  0.00    +0.151 HD
BRANCH  22  25
ATOM     25  C   UNL     1       5.233  -6.309  -5.027  0.00  0.00    +0.028 C 
ATOM     26  C   UNL     1       4.406  -7.596  -5.008  0.00  0.00    +0.031 C 
ATOM     27  C   UNL     1       6.188  -6.334  -6.222  0.00  0.00    +0.031 C 
ATOM     28  C   UNL     1       6.041  -6.203  -3.732  0.00  0.00    +0.031 C 
ENDBRANCH  22  25
ENDBRANCH  18  19
BRANCH  18  29
ATOM     29  C   UNL     1       0.316  -4.440  -3.581  0.00  0.00    +0.012 C 
ATOM     30  C   UNL     1       0.657  -5.931  -3.546  0.00  0.00    +0.009 C 
ATOM     31  C   UNL     1      -0.763  -4.139  -2.539  0.00  0.00    +0.009 C 
ENDBRANCH  18  29
ENDBRANCH  10  18
TORSDOF 5
