REMARK  Name = ZINC15487473
REMARK  7 active torsions:
REMARK  status: ('A' for Active; 'I' for Inactive)
REMARK    1  A    between atoms: C_1  and  C_2
REMARK    2  A    between atoms: C_2  and  O_3
REMARK    3  A    between atoms: O_3  and  C_4
REMARK    4  A    between atoms: C_4  and  C_6
REMARK    5  A    between atoms: N_9  and  C_12
REMARK    6  A    between atoms: C_12  and  C_13
REMARK    7  A    between atoms: C_26  and  C_28
REMARK                            x       y       z     vdW  Elec       q    Type
REMARK                         _______ _______ _______ _____ _____    ______ ____
ROOT
ATOM      1  C   UNL     1       4.530  -6.111   4.402  0.00  0.00    +0.204 C 
ATOM      2  O   UNL     1       3.986  -6.611   3.441  0.00  0.00    -0.277 OA
ATOM      3  N   UNL     1       5.198  -6.887   5.278  0.00  0.00    -0.268 N 
ATOM      4  C   UNL     1       5.827  -6.322   6.397  0.00  0.00    +0.058 A 
ATOM      5  C   UNL     1       5.079  -5.841   7.459  0.00  0.00    +0.025 A 
ATOM      6  C   UNL     1       5.718  -5.308   8.564  0.00  0.00    +0.002 A 
ATOM      7  C   UNL     1       7.099  -5.256   8.614  0.00  0.00    +0.002 A 
ATOM      8  C   UNL     1       7.852  -5.726   7.553  0.00  0.00    +0.025 A 
ATOM      9  C   UNL     1       7.220  -6.251   6.438  0.00  0.00    +0.055 A 
ATOM     10  N   UNL     1       7.959  -6.681   5.330  0.00  0.00    -0.284 N 
ATOM     11  C   UNL     1       7.708  -7.882   4.764  0.00  0.00    +0.219 C 
ATOM     12  O   UNL     1       8.298  -8.207   3.755  0.00  0.00    -0.275 OA
ATOM     13  C   UNL     1       6.701  -8.819   5.377  0.00  0.00    +0.118 C 
ATOM     14  C   UNL     1       5.276  -8.335   5.082  0.00  0.00    +0.087 C 
ATOM     15  C   UNL     1       4.293  -9.030   6.026  0.00  0.00    +0.029 C 
ATOM     16  H   UNL     1       8.656  -6.114   4.966  0.00  0.00    +0.155 HD
ENDROOT
BRANCH   1  17
ATOM     17  C   UNL     1       4.458  -4.621   4.618  0.00  0.00    +0.019 C 
BRANCH  17  21
ATOM     18  C   UNL     1       1.516  -2.381   2.500  0.00  0.00    +0.094 C 
ATOM     19  C   UNL     1       2.969  -1.898   2.507  0.00  0.00    -0.004 C 
ATOM     20  C   UNL     1       3.711  -2.546   3.678  0.00  0.00    -0.077 C 
ATOM     21  N   UNL     1       3.679  -4.006   3.534  0.00  0.00    +0.385 N 
ATOM     22  C   UNL     1       2.293  -4.484   3.598  0.00  0.00    -0.077 C 
ATOM     23  C   UNL     1       1.497  -3.910   2.424  0.00  0.00    -0.004 C 
ATOM     24  H   UNL     1       4.082  -4.264   2.646  0.00  0.00    -0.081 HD
BRANCH  18  25
ATOM     25  C   UNL     1       0.801  -1.808   1.304  0.00  0.00    +0.310 C 
ATOM     26  O   UNL     1       0.324  -2.546   0.475  0.00  0.00    -0.251 OA
BRANCH  25  27
ATOM     27  O   UNL     1       0.693  -0.477   1.160  0.00  0.00    -0.465 OA
BRANCH  27  29
ATOM     28  C   UNL     1      -0.019   1.526   0.010  0.00  0.00    +0.048 C 
ATOM     29  C   UNL     1       0.002  -0.004   0.002  0.00  0.00    +0.229 C 
ENDBRANCH  27  29
ENDBRANCH  25  27
ENDBRANCH  18  25
ENDBRANCH  17  21
ENDBRANCH   1  17
TORSDOF 5
