REMARK  Name = ZINC21663938
REMARK  1 active torsions:
REMARK  status: ('A' for Active; 'I' for Inactive)
REMARK    1  A    between atoms: C_13  and  C_15
REMARK                            x       y       z     vdW  Elec       q    Type
REMARK                         _______ _______ _______ _____ _____    ______ ____
ROOT
ATOM      1  C   UNL     1      -1.928   1.236  -3.316  0.00  0.00    +0.092 C 
ATOM      2  C   UNL     1      -2.305   0.062  -4.223  0.00  0.00    +0.016 C 
ATOM      3  C   UNL     1      -3.202   0.571  -5.356  0.00  0.00    +0.020 C 
ATOM      4  C   UNL     1      -4.439   1.244  -4.758  0.00  0.00    +0.107 C 
ATOM      5  N   UNL     1      -4.024   2.360  -3.899  0.00  0.00    -0.307 N 
ATOM      6  C   UNL     1      -3.202   1.890  -2.777  0.00  0.00    +0.119 C 
ATOM      7  C   UNL     1      -5.121   3.072  -3.446  0.00  0.00    +0.184 A 
ATOM      8  N   UNL     1      -5.501   4.282  -3.757  0.00  0.00    -0.139 NA
ATOM      9  N   UNL     1      -6.643   4.850  -3.201  0.00  0.00    -0.169 N 
ATOM     10  C   UNL     1      -7.145   6.096  -3.437  0.00  0.00    +0.279 A 
ATOM     11  O   UNL     1      -6.573   6.844  -4.215  0.00  0.00    -0.265 OA
ATOM     12  C   UNL     1      -8.313   6.523  -2.791  0.00  0.00    +0.040 A 
ATOM     13  C   UNL     1      -8.951   5.672  -1.924  0.00  0.00    +0.053 A 
ATOM     14  N   UNL     1      -8.431   4.460  -1.714  0.00  0.00    -0.226 NA
ATOM     15  C   UNL     1      -7.339   4.072  -2.319  0.00  0.00    +0.201 A 
ATOM     16  S   UNL     1      -6.387   2.569  -2.291  0.00  0.00    -0.013 S 
ATOM     17  C   UNL     1     -10.217   6.041  -1.201  0.00  0.00    +0.056 C 
ATOM     18  C   UNL     1     -10.419   7.555  -1.212  0.00  0.00    +0.006 C 
ATOM     19  C   UNL     1     -10.278   8.051  -2.656  0.00  0.00    +0.005 C 
ATOM     20  C   UNL     1      -8.816   7.913  -3.075  0.00  0.00    +0.042 C 
ENDROOT
BRANCH   1  33
ATOM     21  C   UNL     1       5.000   5.083  -1.074  0.00  0.00    +0.005 A 
ATOM     22  C   UNL     1       5.977   4.131  -0.817  0.00  0.00    +0.018 A 
ATOM     23  C   UNL     1       5.601   2.828  -0.563  0.00  0.00    +0.084 A 
ATOM     24  N   UNL     1       4.328   2.479  -0.562  0.00  0.00    -0.350 N 
ATOM     25  C   UNL     1       3.367   3.357  -0.802  0.00  0.00    +0.099 A 
ATOM     26  C   UNL     1       3.675   4.687  -1.072  0.00  0.00    +0.042 A 
ATOM     27  N   UNL     1       2.039   2.946  -0.791  0.00  0.00    -0.314 N 
ATOM     28  C   UNL     1       1.374   3.281  -2.058  0.00  0.00    +0.125 C 
ATOM     29  C   UNL     1      -0.123   2.974  -1.941  0.00  0.00    +0.126 C 
ATOM     30  N   UNL     1      -0.285   1.581  -1.499  0.00  0.00    -0.298 N 
ATOM     31  C   UNL     1       0.460   1.137  -0.311  0.00  0.00    +0.126 C 
ATOM     32  C   UNL     1       1.935   1.511  -0.493  0.00  0.00    +0.125 C 
ATOM     33  C   UNL     1      -1.095   0.734  -2.164  0.00  0.00    +0.220 C 
ATOM     34  O   UNL     1      -1.153  -0.432  -1.837  0.00  0.00    -0.275 OA
ATOM     35  H   UNL     1       4.044   1.436  -0.357  0.00  0.00    +0.166 HD
ENDBRANCH   1  33
TORSDOF 1
