REMARK  Name = ZINC36016719
REMARK  8 active torsions:
REMARK  status: ('A' for Active; 'I' for Inactive)
REMARK    1  A    between atoms: C_1  and  C_2
REMARK    2  A    between atoms: C_6  and  C_17
REMARK    3  A    between atoms: N_9  and  C_11
REMARK    4  A    between atoms: N_20  and  C_21
REMARK    5  A    between atoms: C_21  and  C_22
REMARK    6  A    between atoms: C_22  and  N_23
REMARK    7  A    between atoms: N_23  and  S_24
REMARK    8  A    between atoms: S_24  and  C_27
REMARK                            x       y       z     vdW  Elec       q    Type
REMARK                         _______ _______ _______ _____ _____    ______ ____
ROOT
ATOM      1  C   UNL     1      -0.035   1.502   0.012  0.00  0.00    +0.068 C 
ATOM      2  C   UNL     1      -0.012  -0.004   0.003  0.00  0.00    +0.073 A 
ATOM      3  C   UNL     1      -0.099  -0.824  -1.143  0.00  0.00    +0.082 A 
ATOM      4  C   UNL     1      -0.222  -0.584  -2.525  0.00  0.00    +0.133 A 
ATOM      5  N   UNL     1      -0.276  -1.628  -3.345  0.00  0.00    -0.216 NA
ATOM      6  C   UNL     1      -0.216  -2.865  -2.883  0.00  0.00    +0.137 A 
ATOM      7  N   UNL     1      -0.100  -3.138  -1.602  0.00  0.00    -0.212 NA
ATOM      8  C   UNL     1      -0.038  -2.160  -0.701  0.00  0.00    +0.169 A 
ATOM      9  N   UNL     1       0.080  -2.114   0.659  0.00  0.00    -0.214 N 
ATOM     10  N   UNL     1       0.097  -0.770   1.052  0.00  0.00    -0.169 NA
ATOM     11  N   UNL     1      -0.287   0.705  -3.017  0.00  0.00    -0.327 N 
ATOM     12  H   UNL     1      -0.169   1.459  -2.417  0.00  0.00    +0.148 HD
ENDROOT
BRANCH   9  13
ATOM     13  C   UNL     1       0.172  -3.220   1.513  0.00  0.00    +0.068 A 
ATOM     14  C   UNL     1      -0.523  -4.386   1.219  0.00  0.00    +0.028 A 
ATOM     15  C   UNL     1      -0.429  -5.476   2.062  0.00  0.00    +0.002 A 
ATOM     16  C   UNL     1       0.354  -5.406   3.200  0.00  0.00    +0.000 A 
ATOM     17  C   UNL     1       1.046  -4.246   3.496  0.00  0.00    +0.002 A 
ATOM     18  C   UNL     1       0.962  -3.155   2.653  0.00  0.00    +0.028 A 
ENDBRANCH   9  13
BRANCH   6  19
ATOM     19  C   UNL     1      -0.283  -4.007  -3.864  0.00  0.00    +0.057 C 
ATOM     20  C   UNL     1      -0.214  -3.664  -5.353  0.00  0.00    +0.012 C 
ATOM     21  C   UNL     1      -1.537  -4.119  -4.733  0.00  0.00    +0.012 C 
ENDBRANCH   6  19
BRANCH  11  22
ATOM     22  C   UNL     1      -0.532   0.934  -4.443  0.00  0.00    +0.120 C 
BRANCH  22  23
ATOM     23  C   UNL     1      -0.555   2.439  -4.721  0.00  0.00    +0.124 C 
BRANCH  23  24
ATOM     24  N   UNL     1      -0.801   2.668  -6.147  0.00  0.00    -0.188 NA
ATOM     25  H   UNL     1      -0.703   1.939  -6.779  0.00  0.00    +0.148 HD
BRANCH  24  26
ATOM     26  S   UNL     1      -1.246   4.171  -6.679  0.00  0.00    +0.058 S 
ATOM     27  O   UNL     1      -1.381   4.079  -8.091  0.00  0.00    -0.153 OA
ATOM     28  O   UNL     1      -2.307   4.602  -5.839  0.00  0.00    -0.153 OA
BRANCH  26  29
ATOM     29  C   UNL     1       0.110   5.255  -6.373  0.00  0.00    +0.105 A 
ATOM     30  C   UNL     1       0.199   5.926  -5.168  0.00  0.00    +0.030 A 
ATOM     31  C   UNL     1       1.263   6.776  -4.928  0.00  0.00    +0.022 A 
ATOM     32  C   UNL     1       2.238   6.954  -5.893  0.00  0.00    +0.041 A 
ATOM     33  C   UNL     1       2.148   6.281  -7.099  0.00  0.00    +0.022 A 
ATOM     34  C   UNL     1       1.087   5.428  -7.336  0.00  0.00    +0.030 A 
ATOM     35 CL   UNL     1       3.573   8.022  -5.592  0.00  0.00    -0.084 Cl
ENDBRANCH  26  29
ENDBRANCH  24  26
ENDBRANCH  23  24
ENDBRANCH  22  23
ENDBRANCH  11  22
TORSDOF 7
