REMARK  Name = ZINC12413815
REMARK  9 active torsions:
REMARK  status: ('A' for Active; 'I' for Inactive)
REMARK    1  A    between atoms: C_1  and  C_2
REMARK    2  A    between atoms: C_2  and  O_3
REMARK    3  A    between atoms: O_3  and  C_4
REMARK    4  A    between atoms: C_4  and  C_6
REMARK    5  A    between atoms: C_7  and  C_35
REMARK    6  A    between atoms: C_12  and  N_34
REMARK    7  A    between atoms: C_13  and  C_32
REMARK    8  A    between atoms: N_21  and  C_24
REMARK    9  A    between atoms: C_24  and  C_25
REMARK                            x       y       z     vdW  Elec       q    Type
REMARK                         _______ _______ _______ _____ _____    ______ ____
ROOT
ATOM      1  C   UNL     1      -2.405   5.079   0.636  0.00  0.00    +0.111 A 
ATOM      2  C   UNL     1      -3.652   5.608   0.905  0.00  0.00    +0.005 A 
ATOM      3  S   UNL     1      -4.710   4.244   0.739  0.00  0.00    -0.092 S 
ATOM      4  C   UNL     1      -3.517   3.009   0.324  0.00  0.00    +0.058 A 
ATOM      5  C   UNL     1      -2.327   3.667   0.318  0.00  0.00    +0.156 A 
ATOM      6  O   UNL     1      -1.174   2.978   0.029  0.00  0.00    -0.440 OA
ATOM      7  C   UNL     1      -1.209   1.636   0.017  0.00  0.00    +0.199 C 
ATOM      8  C   UNL     1      -2.345   0.897   0.018  0.00  0.00    +0.111 C 
ATOM      9  C   UNL     1      -3.700   1.558   0.033  0.00  0.00    +0.148 C 
ATOM     10  C   UNL     1      -4.421   1.333  -1.258  0.00  0.00    -0.001 A 
ATOM     11  C   UNL     1      -4.112   1.691  -2.552  0.00  0.00    +0.007 A 
ATOM     12  C   UNL     1      -5.017   1.321  -3.542  0.00  0.00    +0.000 A 
ATOM     13  C   UNL     1      -6.170   0.627  -3.238  0.00  0.00    +0.002 A 
ATOM     14  C   UNL     1      -6.487   0.262  -1.939  0.00  0.00    +0.024 A 
ATOM     15  C   UNL     1      -5.587   0.627  -0.936  0.00  0.00    +0.042 A 
ATOM     16  N   UNL     1      -5.649   0.396   0.427  0.00  0.00    -0.265 N 
ATOM     17  C   UNL     1      -4.582   0.906   1.076  0.00  0.00    +0.241 C 
ATOM     18  O   UNL     1      -4.369   0.852   2.269  0.00  0.00    -0.273 OA
ATOM     19  C   UNL     1      -4.008   7.029   1.257  0.00  0.00    +0.052 C 
ENDROOT
BRANCH   7  20
ATOM     20  N   UNL     1      -0.011   0.966   0.007  0.00  0.00    -0.328 N 
ATOM     21  H   UNL     1       0.002  -0.004   0.002  0.00  0.00    +0.145 HD
ATOM     22  H   UNL     1       0.822   1.462   0.002  0.00  0.00    +0.145 HD
ENDBRANCH   7  20
BRANCH   1  23
ATOM     23  C   UNL     1      -1.200   5.918   0.670  0.00  0.00    +0.344 C 
ATOM     24  O   UNL     1      -0.827   6.488  -0.337  0.00  0.00    -0.245 OA
BRANCH  23  25
ATOM     25  O   UNL     1      -0.507   6.057   1.818  0.00  0.00    -0.461 OA
BRANCH  25  27
ATOM     26  C   UNL     1       1.323   6.936   3.163  0.00  0.00    +0.048 C 
ATOM     27  C   UNL     1       0.674   6.901   1.778  0.00  0.00    +0.229 C 
ENDBRANCH  25  27
ENDBRANCH  23  25
ENDBRANCH   1  23
BRANCH   8  28
ATOM     28  C   UNL     1      -2.257  -0.532   0.006  0.00  0.00    +0.102 C 
ATOM     29  N   UNL     1      -2.187  -1.666  -0.004  0.00  0.00    -0.191 NA
ENDBRANCH   8  28
BRANCH  16  30
ATOM     30  C   UNL     1      -6.745  -0.318   1.087  0.00  0.00    +0.151 C 
BRANCH  30  31
ATOM     31  C   UNL     1      -7.814   0.665   1.489  0.00  0.00    +0.005 A 
ATOM     32  C   UNL     1      -8.993   0.737   0.771  0.00  0.00    +0.008 A 
ATOM     33  C   UNL     1      -9.974   1.638   1.140  0.00  0.00    +0.000 A 
ATOM     34  C   UNL     1      -9.778   2.467   2.228  0.00  0.00    +0.003 A 
ATOM     35  C   UNL     1      -8.601   2.398   2.948  0.00  0.00    +0.038 A 
ATOM     36  C   UNL     1      -7.619   1.492   2.582  0.00  0.00    +0.128 A 
ATOM     37  F   UNL     1      -6.470   1.419   3.289  0.00  0.00    -0.205 F 
ENDBRANCH  30  31
ENDBRANCH  16  30
TORSDOF 7
