REMARK  Name = ZINC05122482
REMARK  7 active torsions:
REMARK  status: ('A' for Active; 'I' for Inactive)
REMARK    1  A    between atoms: C_1  and  N_51
REMARK    2  A    between atoms: C_2  and  N_51
REMARK    3  A    between atoms: C_3  and  C_4
REMARK    4  A    between atoms: C_3  and  N_51
REMARK    5  A    between atoms: C_4  and  C_5
REMARK    6  A    between atoms: C_5  and  N_6
REMARK    7  A    between atoms: C_20  and  C_22
REMARK                            x       y       z     vdW  Elec       q    Type
REMARK                         _______ _______ _______ _____ _____    ______ ____
ROOT
ATOM      1  N   UNL     1      -0.563   1.302   3.159  0.00  0.00    -0.244 N 
ATOM      2  C   UNL     1       0.468   2.075   3.664  0.00  0.00    +0.168 A 
ATOM      3  N   UNL     1       1.678   1.707   4.014  0.00  0.00    -0.224 NA
ATOM      4  C   UNL     1       2.592   2.579   4.497  0.00  0.00    +0.084 A 
ATOM      5  C   UNL     1       3.918   2.312   4.908  0.00  0.00    +0.078 A 
ATOM      6  C   UNL     1       4.730   3.318   5.383  0.00  0.00    +0.164 A 
ATOM      7  C   UNL     1       4.266   4.631   5.469  0.00  0.00    +0.163 A 
ATOM      8  C   UNL     1       2.970   4.923   5.074  0.00  0.00    +0.066 A 
ATOM      9  C   UNL     1       2.161   3.920   4.603  0.00  0.00    +0.044 A 
ATOM     10  S   UNL     1       0.492   3.831   3.999  0.00  0.00    -0.052 S 
ATOM     11  O   UNL     1       5.066   5.630   5.931  0.00  0.00    -0.485 OA
ATOM     12  C   UNL     1       6.231   5.234   6.664  0.00  0.00    +0.270 C 
ATOM     13  C   UNL     1       6.920   4.101   5.892  0.00  0.00    +0.270 C 
ATOM     14  O   UNL     1       6.000   3.011   5.775  0.00  0.00    -0.485 OA
ATOM     15  C   UNL     1      -0.426  -0.037   3.081  0.00  0.00    +0.290 C 
ATOM     16  O   UNL     1       0.585  -0.570   3.500  0.00  0.00    -0.266 OA
ENDROOT
BRANCH  15  17
ATOM     17  C   UNL     1      -1.492  -0.849   2.493  0.00  0.00    +0.217 C 
ATOM     18  C   UNL     1      -2.119  -0.408   1.393  0.00  0.00    +0.238 C 
ATOM     19  O   UNL     1      -3.114  -1.113   0.814  0.00  0.00    -0.492 OA
ATOM     20  C   UNL     1      -3.220  -2.495   1.175  0.00  0.00    +0.269 C 
ATOM     21  C   UNL     1      -3.085  -2.601   2.701  0.00  0.00    +0.270 C 
ATOM     22  O   UNL     1      -1.819  -2.037   3.071  0.00  0.00    -0.481 OA
ENDBRANCH  15  17
BRANCH   1  23
ATOM     23  C   UNL     1      -1.804   1.938   2.708  0.00  0.00    +0.114 C 
BRANCH  23  24
ATOM     24  C   UNL     1      -1.483   2.971   1.626  0.00  0.00    +0.001 C 
BRANCH  24  25
ATOM     25  C   UNL     1      -2.779   3.635   1.156  0.00  0.00    -0.078 C 
BRANCH  25  28
ATOM     26  C   UNL     1      -1.952   3.977  -1.095  0.00  0.00    -0.097 C 
ATOM     27  C   UNL     1      -3.648   5.450  -0.191  0.00  0.00    -0.097 C 
ATOM     28  N   UNL     1      -2.450   4.644   0.127  0.00  0.00    +0.376 N 
ATOM     29  H   UNL     1      -1.718   5.265   0.490  0.00  0.00    -0.083 HD
ENDBRANCH  25  28
ENDBRANCH  24  25
ENDBRANCH  23  24
ENDBRANCH   1  23
TORSDOF 5
