REMARK  Name = ZINC22824506
REMARK  11 active torsions:
REMARK  status: ('A' for Active; 'I' for Inactive)
REMARK    1  A    between atoms: C_1  and  C_2
REMARK    2  A    between atoms: C_2  and  O_3
REMARK    3  A    between atoms: O_3  and  C_4
REMARK    4  A    between atoms: C_4  and  C_6
REMARK    5  A    between atoms: C_7  and  N_29
REMARK    6  A    between atoms: C_10  and  C_11
REMARK    7  A    between atoms: N_13  and  C_20
REMARK    8  A    between atoms: C_20  and  C_21
REMARK    9  A    between atoms: N_23  and  C_24
REMARK   10  A    between atoms: N_29  and  C_30
REMARK   11  A    between atoms: C_33  and  C_36
REMARK                            x       y       z     vdW  Elec       q    Type
REMARK                         _______ _______ _______ _____ _____    ______ ____
ROOT
ATOM      1  C   UNL     1      -1.372   7.096   5.361  0.00  0.00    +0.134 C 
ATOM      2  C   UNL     1      -1.376   5.712   5.539  0.00  0.00    +0.088 C 
ATOM      3  S   UNL     1      -0.837   5.059   4.032  0.00  0.00    -0.069 S 
ATOM      4  C   UNL     1      -0.586   6.560   3.107  0.00  0.00    +0.062 C 
ATOM      5  C   UNL     1      -0.156   6.707   1.823  0.00  0.00    +0.029 C 
ATOM      6  C   UNL     1      -0.950   7.602   4.076  0.00  0.00    +0.209 C 
ATOM      7  O   UNL     1      -0.904   8.794   3.817  0.00  0.00    -0.286 OA
ENDROOT
BRANCH   5   8
ATOM      8  C   UNL     1       0.056   5.528   0.985  0.00  0.00    +0.001 A 
ATOM      9  C   UNL     1       0.104   4.225   1.399  0.00  0.00    +0.095 A 
ATOM     10  N   UNL     1       0.322   3.414   0.334  0.00  0.00    -0.337 N 
ATOM     11  C   UNL     1       0.416   4.157  -0.826  0.00  0.00    +0.050 A 
ATOM     12  C   UNL     1       0.256   5.508  -0.477  0.00  0.00    +0.007 A 
ATOM     13  C   UNL     1       0.305   6.493  -1.459  0.00  0.00    +0.010 A 
ATOM     14  C   UNL     1       0.512   6.135  -2.774  0.00  0.00    +0.001 A 
ATOM     15  C   UNL     1       0.672   4.802  -3.120  0.00  0.00    +0.002 A 
ATOM     16  C   UNL     1       0.625   3.816  -2.158  0.00  0.00    +0.026 A 
BRANCH  10  17
ATOM     17  C   UNL     1       0.436   1.956   0.404  0.00  0.00    +0.217 C 
BRANCH  17  18
ATOM     18  C   UNL     1       1.889   1.569   0.494  0.00  0.00    +0.233 C 
ATOM     19  O   UNL     1       2.747   2.427   0.494  0.00  0.00    -0.274 OA
ATOM     20  N   UNL     1       2.237   0.269   0.569  0.00  0.00    -0.311 N 
ATOM     21  H   UNL     1       1.460  -0.510   0.569  0.00  0.00    +0.149 HD
BRANCH  20  22
ATOM     22  C   UNL     1       3.651  -0.108   0.650  0.00  0.00    +0.073 C 
ATOM     23  C   UNL     1       4.121  -1.278  -0.216  0.00  0.00    +0.024 C 
ATOM     24  C   UNL     1       3.988  -1.452   1.299  0.00  0.00    +0.024 C 
ENDBRANCH  20  22
ENDBRANCH  17  18
ENDBRANCH  10  17
ENDBRANCH   5   8
BRANCH   1  25
ATOM     25  C   UNL     1      -1.762   7.973   6.405  0.00  0.00    +0.345 C 
ATOM     26  O   UNL     1      -2.108   7.522   7.481  0.00  0.00    -0.245 OA
BRANCH  25  27
ATOM     27  O   UNL     1      -1.749   9.307   6.205  0.00  0.00    -0.461 OA
BRANCH  27  29
ATOM     28  C   UNL     1      -2.074  11.603   6.888  0.00  0.00    +0.048 C 
ATOM     29  C   UNL     1      -2.154  10.131   7.300  0.00  0.00    +0.229 C 
ENDBRANCH  27  29
ENDBRANCH  25  27
ENDBRANCH   1  25
BRANCH   2  30
ATOM     30  N   UNL     1      -1.730   5.019   6.667  0.00  0.00    -0.308 N 
ATOM     31  H   UNL     1      -1.952   5.561   7.598  0.00  0.00    +0.153 HD
BRANCH  30  32
ATOM     32  C   UNL     1      -1.810   3.624   6.634  0.00  0.00    +0.032 A 
ATOM     33  C   UNL     1      -2.322   2.982   5.514  0.00  0.00    +0.023 A 
ATOM     34  C   UNL     1      -2.395   1.604   5.483  0.00  0.00    +0.005 A 
ATOM     35  C   UNL     1      -1.967   0.862   6.569  0.00  0.00    -0.050 A 
ATOM     36  C   UNL     1      -1.461   1.498   7.688  0.00  0.00    +0.005 A 
ATOM     37  C   UNL     1      -1.381   2.877   7.724  0.00  0.00    +0.023 A 
ATOM     38  C   UNL     1      -2.053  -0.642   6.534  0.00  0.00    +0.044 C 
ENDBRANCH  30  32
ENDBRANCH   2  30
TORSDOF 9
