REMARK  Name = ZINC13065479
REMARK  11 active torsions:
REMARK  status: ('A' for Active; 'I' for Inactive)
REMARK    1  A    between atoms: C_1  and  C_2
REMARK    2  A    between atoms: C_5  and  C_8
REMARK    3  A    between atoms: C_8  and  N_63
REMARK    4  A    between atoms: C_9  and  C_10
REMARK    5  A    between atoms: C_9  and  N_63
REMARK    6  A    between atoms: C_14  and  C_23
REMARK    7  A    between atoms: C_16  and  C_22
REMARK    8  A    between atoms: C_24  and  C_25
REMARK    9  A    between atoms: C_24  and  N_63
REMARK   10  A    between atoms: N_29  and  C_30
REMARK   11  A    between atoms: C_30  and  C_31
REMARK                            x       y       z     vdW  Elec       q    Type
REMARK                         _______ _______ _______ _____ _____    ______ ____
ROOT
ATOM      1  N   UNL     1      -0.828   8.028  -1.790  0.00  0.00    +0.390 N 
ATOM      2  H   UNL     1      -0.191   7.487  -2.387  0.00  0.00    -0.080 HD
ENDROOT
BRANCH   1   3
ATOM      3  C   UNL     1      -2.218   7.798  -2.238  0.00  0.00    -0.042 C 
BRANCH   3   8
ATOM      4  C   UNL     1      -2.581   8.974  -7.884  0.00  0.00    +0.044 C 
ATOM      5  C   UNL     1      -2.486   8.667  -6.412  0.00  0.00    -0.050 A 
ATOM      6  C   UNL     1      -2.029   7.432  -5.991  0.00  0.00    +0.003 A 
ATOM      7  C   UNL     1      -1.942   7.151  -4.640  0.00  0.00    +0.002 A 
ATOM      8  C   UNL     1      -2.312   8.104  -3.710  0.00  0.00    -0.064 A 
ATOM      9  C   UNL     1      -2.774   9.338  -4.131  0.00  0.00    +0.002 A 
ATOM     10  C   UNL     1      -2.856   9.620  -5.482  0.00  0.00    +0.003 A 
ENDBRANCH   3   8
ENDBRANCH   1   3
BRANCH   1  11
ATOM     11  C   UNL     1      -0.668   7.583  -0.390  0.00  0.00    -0.036 C 
BRANCH  11  12
ATOM     12  C   UNL     1      -0.800   6.083  -0.339  0.00  0.00    +0.001 A 
ATOM     13  C   UNL     1       0.308   5.304  -0.399  0.00  0.00    +0.017 A 
ATOM     14  C   UNL     1       0.145   3.850  -0.346  0.00  0.00    -0.001 A 
ATOM     15  C   UNL     1       1.251   2.996  -0.403  0.00  0.00    +0.013 A 
ATOM     16  C   UNL     1       1.065   1.643  -0.352  0.00  0.00    -0.050 A 
ATOM     17  C   UNL     1      -0.212   1.109  -0.243  0.00  0.00    +0.008 A 
ATOM     18  C   UNL     1      -1.316   1.932  -0.191  0.00  0.00    -0.026 A 
ATOM     19  C   UNL     1      -1.151   3.313  -0.236  0.00  0.00    +0.052 A 
ATOM     20  N   UNL     1      -2.237   4.159  -0.179  0.00  0.00    -0.322 N 
ATOM     21  H   UNL     1      -3.130   3.787  -0.103  0.00  0.00    +0.169 HD
ATOM     22  C   UNL     1      -2.078   5.493  -0.228  0.00  0.00    +0.251 A 
ATOM     23  O   UNL     1      -3.061   6.212  -0.176  0.00  0.00    -0.268 OA
ATOM     24  C   UNL     1      -2.697   1.339  -0.079  0.00  0.00    +0.046 C 
ATOM     25  C   UNL     1       2.257   0.723  -0.413  0.00  0.00    +0.044 C 
ENDBRANCH  11  12
ENDBRANCH   1  11
BRANCH   1  26
ATOM     26  C   UNL     1      -0.491   9.463  -1.906  0.00  0.00    +0.001 C 
BRANCH  26  27
ATOM     27  C   UNL     1       1.001   9.623  -1.772  0.00  0.00    +0.136 A 
ATOM     28  N   UNL     1       1.662   9.918  -0.679  0.00  0.00    -0.115 NA
ATOM     29  N   UNL     1       2.916   9.962  -0.972  0.00  0.00    -0.023 NA
ATOM     30  N   UNL     1       3.071   9.710  -2.225  0.00  0.00    -0.044 NA
ATOM     31  N   UNL     1       1.914   9.495  -2.753  0.00  0.00    -0.224 N 
BRANCH  31  32
ATOM     32  C   UNL     1       1.644   9.173  -4.156  0.00  0.00    +0.221 C 
BRANCH  32  33
ATOM     33  C   UNL     1       1.565  10.447  -4.958  0.00  0.00    +0.126 A 
ATOM     34  C   UNL     1       2.596  11.060  -5.565  0.00  0.00    +0.046 A 
ATOM     35  C   UNL     1       2.073  12.211  -6.199  0.00  0.00    +0.041 A 
ATOM     36  C   UNL     1       0.755  12.236  -5.934  0.00  0.00    +0.195 A 
ATOM     37  O   UNL     1       0.452  11.165  -5.182  0.00  0.00    -0.466 OA
ENDBRANCH  32  33
ENDBRANCH  31  32
ENDBRANCH  26  27
ENDBRANCH   1  26
TORSDOF 8
