REMARK  Name = ZINC06672944
REMARK  3 active torsions:
REMARK  status: ('A' for Active; 'I' for Inactive)
REMARK    1  A    between atoms: C_6  and  N_7
REMARK    2  A    between atoms: C_21  and  C_26
REMARK    3  A    between atoms: C_23  and  O_25
REMARK                            x       y       z     vdW  Elec       q    Type
REMARK                         _______ _______ _______ _____ _____    ______ ____
ROOT
ATOM      1  N   UNL     1      -1.530  -0.189  -2.214  0.00  0.00    -0.327 N 
ATOM      2  C   UNL     1      -1.652  -1.452  -2.954  0.00  0.00    +0.124 C 
ATOM      3  C   UNL     1      -2.113  -2.546  -1.984  0.00  0.00    +0.127 C 
ATOM      4  N   UNL     1      -3.276  -2.050  -1.234  0.00  0.00    -0.300 N 
ATOM      5  C   UNL     1      -3.154  -0.787  -0.493  0.00  0.00    +0.127 C 
ATOM      6  C   UNL     1      -2.691   0.305  -1.459  0.00  0.00    +0.124 C 
ATOM      7  C   UNL     1      -4.460  -2.757  -1.226  0.00  0.00    +0.172 C 
ATOM      8  N   UNL     1      -4.419  -4.058  -1.223  0.00  0.00    -0.352 N 
ATOM      9  C   UNL     1      -5.652  -4.848  -1.259  0.00  0.00    +0.065 C 
ATOM     10  C   UNL     1      -6.095  -5.040  -2.711  0.00  0.00    +0.030 C 
ATOM     11  C   UNL     1      -5.000  -5.778  -3.485  0.00  0.00    +0.002 C 
ATOM     12  C   UNL     1      -4.754  -7.144  -2.842  0.00  0.00    +0.000 C 
ATOM     13  C   UNL     1      -4.309  -6.951  -1.390  0.00  0.00    +0.002 C 
ATOM     14  C   UNL     1      -5.403  -6.214  -0.616  0.00  0.00    +0.030 C 
ATOM     15  C   UNL     1      -6.748  -4.112  -0.485  0.00  0.00    +0.200 C 
ATOM     16  C   UNL     1      -6.750  -2.660  -0.898  0.00  0.00    +0.187 C 
ATOM     17  N   UNL     1      -5.632  -2.077  -1.216  0.00  0.00    -0.303 N 
ATOM     18  H   UNL     1      -3.561  -4.510  -1.197  0.00  0.00    +0.163 HD
ATOM     19  H   UNL     1      -5.639  -1.137  -1.455  0.00  0.00    +0.171 HD
ENDROOT
BRANCH   1  25
ATOM     20  C   UNL     1      -0.261   1.775  -1.615  0.00  0.00    +0.024 A 
ATOM     21  C   UNL     1       0.926   2.481  -1.624  0.00  0.00    +0.022 A 
ATOM     22  C   UNL     1       2.046   1.946  -2.237  0.00  0.00    +0.041 A 
ATOM     23  C   UNL     1       1.979   0.704  -2.843  0.00  0.00    +0.022 A 
ATOM     24  C   UNL     1       0.795  -0.006  -2.837  0.00  0.00    +0.024 A 
ATOM     25  C   UNL     1      -0.331   0.528  -2.222  0.00  0.00    +0.030 A 
ATOM     26 CL   UNL     1       3.536   2.836  -2.247  0.00  0.00    -0.084 Cl
ENDBRANCH   1  25
BRANCH  16  27
ATOM     27  O   UNL     1      -7.904  -1.971  -0.932  0.00  0.00    -0.496 OA
ATOM     28  H   UNL     1      -7.804  -1.050  -1.209  0.00  0.00    +0.293 HD
ENDBRANCH  16  27
BRANCH  15  29
ATOM     29  C   UNL     1      -6.486  -4.214   0.960  0.00  0.00    +0.078 C 
ATOM     30  N   UNL     1      -6.283  -4.293   2.075  0.00  0.00    -0.196 NA
ENDBRANCH  15  29
TORSDOF 3
