REMARK  Name = ZINC03457001
REMARK  11 active torsions:
REMARK  status: ('A' for Active; 'I' for Inactive)
REMARK    1  A    between atoms: C_1  and  C_2
REMARK    2  A    between atoms: C_2  and  C_3
REMARK    3  A    between atoms: C_2  and  C_4
REMARK    4  A    between atoms: C_2  and  C_5
REMARK    5  A    between atoms: C_8  and  C_11
REMARK    6  A    between atoms: C_14  and  S_23
REMARK    7  A    between atoms: N_15  and  C_16
REMARK    8  A    between atoms: S_23  and  C_24
REMARK    9  A    between atoms: C_24  and  C_25
REMARK   10  A    between atoms: C_25  and  C_26
REMARK   11  A    between atoms: C_32  and  N_65
REMARK                            x       y       z     vdW  Elec       q    Type
REMARK                         _______ _______ _______ _____ _____    ______ ____
ROOT
ATOM      1  C   UNL     1       4.068  -0.296  -5.612  0.00  0.00    +0.169 A 
ATOM      2  N   UNL     1       5.324  -0.582  -5.868  0.00  0.00    -0.128 NA
ATOM      3  N   UNL     1       5.394  -1.471  -6.793  0.00  0.00    -0.122 NA
ATOM      4  C   UNL     1       4.186  -1.810  -7.186  0.00  0.00    +0.196 A 
ATOM      5  N   UNL     1       3.299  -1.079  -6.445  0.00  0.00    -0.270 N 
ENDROOT
BRANCH   5   6
ATOM      6  C   UNL     1       1.899  -1.117  -6.519  0.00  0.00    +0.051 A 
ATOM      7  C   UNL     1       1.161  -1.635  -5.464  0.00  0.00    +0.027 A 
ATOM      8  C   UNL     1      -0.218  -1.665  -5.537  0.00  0.00    +0.017 A 
ATOM      9  C   UNL     1      -0.863  -1.190  -6.666  0.00  0.00    +0.018 A 
ATOM     10  C   UNL     1      -0.129  -0.679  -7.721  0.00  0.00    +0.017 A 
ATOM     11  C   UNL     1       1.250  -0.641  -7.650  0.00  0.00    +0.027 A 
ATOM     12 BR   UNL     1      -2.750  -1.242  -6.766  0.00  0.00    -0.050 Br
ENDBRANCH   5   6
BRANCH   1  16
ATOM     13  C   UNL     1       2.647   2.498  -2.747  0.00  0.00    -0.042 A 
ATOM     14  C   UNL     1       3.954   2.050  -2.682  0.00  0.00    +0.005 A 
ATOM     15  C   UNL     1       4.420   1.138  -3.606  0.00  0.00    +0.012 A 
ATOM     16  C   UNL     1       3.574   0.676  -4.615  0.00  0.00    +0.020 A 
ATOM     17  C   UNL     1       2.257   1.136  -4.678  0.00  0.00    +0.012 A 
ATOM     18  C   UNL     1       1.802   2.044  -3.744  0.00  0.00    +0.005 A 
BRANCH  13  20
ATOM     19  C   UNL     1       0.961   2.883  -0.969  0.00  0.00    +0.015 C 
ATOM     20  C   UNL     1       2.142   3.489  -1.730  0.00  0.00    -0.013 C 
ATOM     21  C   UNL     1       1.689   4.765  -2.443  0.00  0.00    +0.015 C 
ATOM     22  C   UNL     1       3.264   3.826  -0.745  0.00  0.00    +0.015 C 
ENDBRANCH  13  20
ENDBRANCH   1  16
BRANCH   4  23
ATOM     23  S   UNL     1       3.786  -2.990  -8.432  0.00  0.00    -0.086 S 
BRANCH  23  24
ATOM     24  C   UNL     1       5.450  -3.510  -8.919  0.00  0.00    +0.076 C 
BRANCH  24  25
ATOM     25  C   UNL     1       5.352  -4.564 -10.023  0.00  0.00    -0.004 C 
BRANCH  25  26
ATOM     26  C   UNL     1       6.757  -5.022 -10.418  0.00  0.00    -0.068 C 
ATOM     27  C   UNL     1       7.422  -5.712  -9.224  0.00  0.00    -0.015 C 
ATOM     28  C   UNL     1       8.821  -6.186  -9.629  0.00  0.00    -0.003 C 
ATOM     29  C   UNL     1       8.704  -7.127 -10.832  0.00  0.00    -0.019 C 
ATOM     30  C   UNL     1       8.002  -6.396 -11.979  0.00  0.00    -0.079 C 
ATOM     31  C   UNL     1       5.912  -5.381 -12.657  0.00  0.00    -0.096 C 
ATOM     32  N   UNL     1       6.653  -5.988 -11.533  0.00  0.00    +0.380 N 
ATOM     33  H   UNL     1       6.144  -6.818 -11.207  0.00  0.00    -0.082 HD
ENDBRANCH  25  26
ENDBRANCH  24  25
ENDBRANCH  23  24
ENDBRANCH   4  23
TORSDOF 7
