REMARK  Name = ZINC35113234
REMARK  12 active torsions:
REMARK  status: ('A' for Active; 'I' for Inactive)
REMARK    1  A    between atoms: C_1  and  C_2
REMARK    2  A    between atoms: C_2  and  C_3
REMARK    3  A    between atoms: C_3  and  C_4
REMARK    4  A    between atoms: C_4  and  C_5
REMARK    5  A    between atoms: C_5  and  C_6
REMARK    6  A    between atoms: C_9  and  C_41
REMARK    7  A    between atoms: C_11  and  C_33
REMARK    8  A    between atoms: C_13  and  C_25
REMARK    9  A    between atoms: C_25  and  C_27
REMARK   10  A    between atoms: C_38  and  O_39
REMARK   11  A    between atoms: O_39  and  C_40
REMARK   12  A    between atoms: C_41  and  C_42
REMARK                            x       y       z     vdW  Elec       q    Type
REMARK                         _______ _______ _______ _____ _____    ______ ____
ROOT
ATOM      1  C   UNL     1       1.025  -4.155  -3.007  0.00  0.00    +0.217 C 
ATOM      2  O   UNL     1       0.646  -4.814  -2.062  0.00  0.00    -0.276 OA
ATOM      3  N   UNL     1       1.815  -4.714  -3.945  0.00  0.00    -0.279 N 
ATOM      4  C   UNL     1       2.453  -4.004  -5.072  0.00  0.00    +0.085 C 
ATOM      5  C   UNL     1       2.698  -5.097  -6.142  0.00  0.00    +0.056 C 
ATOM      6  C   UNL     1       3.072  -6.321  -5.261  0.00  0.00    +0.107 C 
ATOM      7  C   UNL     1       2.192  -6.126  -4.016  0.00  0.00    +0.151 C 
ATOM      8  C   UNL     1       2.916  -6.564  -2.772  0.00  0.00    +0.007 A 
ATOM      9  C   UNL     1       4.078  -6.150  -2.160  0.00  0.00    +0.008 A 
ATOM     10  C   UNL     1       4.503  -6.763  -0.994  0.00  0.00    +0.000 A 
ATOM     11  C   UNL     1       3.757  -7.791  -0.446  0.00  0.00    +0.002 A 
ATOM     12  C   UNL     1       2.592  -8.208  -1.056  0.00  0.00    +0.023 A 
ATOM     13  C   UNL     1       2.158  -7.596  -2.229  0.00  0.00    +0.039 A 
ATOM     14  N   UNL     1       1.031  -7.833  -3.019  0.00  0.00    -0.283 N 
ATOM     15  C   UNL     1       0.975  -7.013  -4.085  0.00  0.00    +0.246 C 
ATOM     16  O   UNL     1       0.112  -6.992  -4.937  0.00  0.00    -0.273 OA
ATOM     17  H   UNL     1       0.365  -8.511  -2.823  0.00  0.00    +0.155 HD
ENDROOT
BRANCH   5  18
ATOM     18  C   UNL     1       3.839  -4.717  -7.050  0.00  0.00    -0.000 A 
ATOM     19  C   UNL     1       5.130  -4.673  -6.558  0.00  0.00    +0.007 A 
ATOM     20  C   UNL     1       6.176  -4.324  -7.391  0.00  0.00    +0.001 A 
ATOM     21  C   UNL     1       5.935  -4.017  -8.718  0.00  0.00    +0.004 A 
ATOM     22  C   UNL     1       4.647  -4.060  -9.214  0.00  0.00    +0.046 A 
ATOM     23  C   UNL     1       3.595  -4.415  -8.382  0.00  0.00    +0.124 A 
BRANCH  23  24
ATOM     24  O   UNL     1       2.328  -4.464  -8.870  0.00  0.00    -0.495 OA
ATOM     25  C   UNL     1       2.151  -4.141 -10.251  0.00  0.00    +0.277 C 
ENDBRANCH  23  24
ENDBRANCH   5  18
BRANCH   6  26
ATOM     26  C   UNL     1       2.735  -7.609  -5.966  0.00  0.00    +0.170 C 
ATOM     27  O   UNL     1       1.870  -7.628  -6.815  0.00  0.00    -0.292 OA
BRANCH  26  28
ATOM     28  C   UNL     1       3.457  -8.845  -5.624  0.00  0.00    +0.018 A 
ATOM     29  C   UNL     1       4.452  -8.829  -4.641  0.00  0.00    +0.011 A 
ATOM     30  C   UNL     1       5.123  -9.992  -4.326  0.00  0.00    +0.001 A 
ATOM     31  C   UNL     1       4.814 -11.172  -4.980  0.00  0.00    +0.000 A 
ATOM     32  C   UNL     1       3.832 -11.196  -5.954  0.00  0.00    +0.001 A 
ATOM     33  C   UNL     1       3.147 -10.043  -6.276  0.00  0.00    +0.011 A 
ENDBRANCH  26  28
ENDBRANCH   6  26
BRANCH   4  34
ATOM     34  C   UNL     1       3.778  -3.383  -4.628  0.00  0.00    +0.020 C 
ATOM     35  C   UNL     1       3.508  -2.289  -3.592  0.00  0.00    +0.006 C 
ENDBRANCH   4  34
BRANCH   1  36
ATOM     36  C   UNL     1       0.611  -2.711  -3.133  0.00  0.00    +0.096 C 
BRANCH  36  37
ATOM     37  C   UNL     1      -0.423  -2.381  -2.055  0.00  0.00    +0.009 C 
BRANCH  37  38
ATOM     38  C   UNL     1      -0.842  -0.915  -2.183  0.00  0.00    +0.000 C 
BRANCH  38  40
ATOM     39  C   UNL     1      -2.296   0.881  -1.232  0.00  0.00    +0.004 C 
ATOM     40  C   UNL     1      -1.876  -0.585  -1.104  0.00  0.00    -0.003 C 
ENDBRANCH  38  40
ENDBRANCH  37  38
ENDBRANCH  36  37
ENDBRANCH   1  36
TORSDOF 9
