REMARK  Name = ZINC58145367
REMARK  11 active torsions:
REMARK  status: ('A' for Active; 'I' for Inactive)
REMARK    1  A    between atoms: C_1  and  N_2
REMARK    2  A    between atoms: N_2  and  C_3
REMARK    3  A    between atoms: N_2  and  C_4
REMARK    4  A    between atoms: C_4  and  C_5
REMARK    5  A    between atoms: C_5  and  C_7
REMARK    6  A    between atoms: C_5  and  C_22
REMARK    7  A    between atoms: C_7  and  N_8
REMARK    8  A    between atoms: N_11  and  C_12
REMARK    9  A    between atoms: C_15  and  N_19
REMARK   10  A    between atoms: C_22  and  C_24
REMARK   11  A    between atoms: C_22  and  O_30
REMARK                            x       y       z     vdW  Elec       q    Type
REMARK                         _______ _______ _______ _____ _____    ______ ____
ROOT
ATOM      1  C   UNL     1      -1.584  -0.548  -2.566  0.00  0.00    +0.110 C 
ENDROOT
BRANCH   1   2
ATOM      2  N   UNL     1      -0.141  -0.313  -2.648  0.00  0.00    -0.299 N 
ATOM      3  C   UNL     1       0.586  -0.914  -3.611  0.00  0.00    +0.304 C 
ATOM      4  O   UNL     1       0.044  -1.650  -4.412  0.00  0.00    -0.253 OA
ATOM      5  N   UNL     1       1.915  -0.698  -3.686  0.00  0.00    -0.268 N 
ATOM      6  H   UNL     1       0.292   0.274  -2.009  0.00  0.00    +0.150 HD
ATOM      7  H   UNL     1       2.361  -0.180  -2.998  0.00  0.00    +0.156 HD
BRANCH   5   8
ATOM      8  C   UNL     1       2.650  -1.222  -4.756  0.00  0.00    +0.053 A 
ATOM      9  C   UNL     1       2.054  -1.373  -6.001  0.00  0.00    +0.027 A 
ATOM     10  C   UNL     1       2.782  -1.890  -7.055  0.00  0.00    +0.034 A 
ATOM     11  C   UNL     1       4.102  -2.257  -6.872  0.00  0.00    +0.128 A 
ATOM     12  C   UNL     1       4.699  -2.109  -5.634  0.00  0.00    +0.054 A 
ATOM     13  C   UNL     1       3.978  -1.587  -4.576  0.00  0.00    +0.064 A 
ATOM     14 CL   UNL     1       4.730  -1.394  -3.023  0.00  0.00    -0.082 Cl
BRANCH  11  15
ATOM     15  N   UNL     1       4.878  -2.812  -8.004  0.00  0.00    +0.056 N 
ATOM     16  O   UNL     1       4.358  -2.942  -9.087  0.00  0.00    -0.126 OA
ATOM     17  O   UNL     1       6.033  -3.134  -7.845  0.00  0.00    -0.126 OA
ENDBRANCH  11  15
ENDBRANCH   5   8
ENDBRANCH   1   2
BRANCH   1  18
ATOM     18  C   UNL     1      -2.134   0.096  -1.292  0.00  0.00    +0.023 C 
BRANCH  18  19
ATOM     19  C   UNL     1      -1.639  -0.684  -0.072  0.00  0.00    -0.072 C 
BRANCH  19  21
ATOM     20  C   UNL     1       0.166   0.857   0.277  0.00  0.00    -0.097 C 
ATOM     21  N   UNL     1      -0.180  -0.550   0.035  0.00  0.00    +0.376 N 
ATOM     22  C   UNL     1       0.306  -1.373   1.151  0.00  0.00    -0.097 C 
ATOM     23  H   UNL     1       0.250  -0.860  -0.823  0.00  0.00    -0.083 HD
ENDBRANCH  19  21
ENDBRANCH  18  19
BRANCH  18  24
ATOM     24  C   UNL     1      -3.664   0.070  -1.327  0.00  0.00    +0.147 C 
BRANCH  24  25
ATOM     25  C   UNL     1      -4.205   0.704  -0.071  0.00  0.00    -0.019 A 
ATOM     26  C   UNL     1      -4.367   2.075  -0.004  0.00  0.00    +0.006 A 
ATOM     27  C   UNL     1      -4.864   2.657   1.148  0.00  0.00    +0.000 A 
ATOM     28  C   UNL     1      -5.200   1.867   2.232  0.00  0.00    +0.000 A 
ATOM     29  C   UNL     1      -5.039   0.495   2.163  0.00  0.00    +0.000 A 
ATOM     30  C   UNL     1      -4.546  -0.086   1.010  0.00  0.00    +0.006 A 
ENDBRANCH  24  25
BRANCH  24  31
ATOM     31  O   UNL     1      -4.126   0.799  -2.466  0.00  0.00    -0.387 OA
ATOM     32  H   UNL     1      -3.856   1.727  -2.475  0.00  0.00    +0.210 HD
ENDBRANCH  24  31
ENDBRANCH  18  24
ENDBRANCH   1  18
TORSDOF 9
