REMARK  Name = ZINC00795293
REMARK  7 active torsions:
REMARK  status: ('A' for Active; 'I' for Inactive)
REMARK    1  A    between atoms: C_1  and  C_2
REMARK    2  A    between atoms: C_4  and  C_21
REMARK    3  A    between atoms: C_5  and  S_9
REMARK    4  A    between atoms: C_7  and  C_8
REMARK    5  A    between atoms: S_9  and  N_12
REMARK    6  A    between atoms: C_13  and  C_20
REMARK    7  A    between atoms: C_16  and  N_17
REMARK                            x       y       z     vdW  Elec       q    Type
REMARK                         _______ _______ _______ _____ _____    ______ ____
ROOT
ATOM      1  S   UNL     1       0.069  -4.530  -0.118  0.00  0.00    +0.087 S 
ATOM      2  O   UNL     1       1.166  -5.126  -0.798  0.00  0.00    -0.148 OA
ATOM      3  O   UNL     1      -0.160  -4.720   1.271  0.00  0.00    -0.148 OA
ENDROOT
BRANCH   1   8
ATOM      4  C   UNL     1       0.521   1.422  -0.995  0.00  0.00    +0.044 C 
ATOM      5  C   UNL     1       0.408  -0.065  -0.776  0.00  0.00    -0.047 A 
ATOM      6  C   UNL     1       0.499  -0.931  -1.850  0.00  0.00    +0.009 A 
ATOM      7  C   UNL     1       0.396  -2.294  -1.649  0.00  0.00    -0.023 A 
ATOM      8  C   UNL     1       0.202  -2.792  -0.374  0.00  0.00    +0.114 A 
ATOM      9  C   UNL     1       0.111  -1.927   0.700  0.00  0.00    +0.033 A 
ATOM     10  C   UNL     1       0.219  -0.563   0.499  0.00  0.00    -0.046 A 
ATOM     11  C   UNL     1       0.126   0.381   1.671  0.00  0.00    +0.044 C 
ATOM     12  C   UNL     1       0.495  -3.238  -2.820  0.00  0.00    +0.046 C 
ENDBRANCH   1   8
BRANCH   1  13
ATOM     13  N   UNL     1      -1.302  -5.037  -0.897  0.00  0.00    -0.174 N 
ATOM     14  C   UNL     1      -1.364  -5.919  -1.917  0.00  0.00    +0.130 A 
ATOM     15  N   UNL     1      -2.613  -6.067  -2.267  0.00  0.00    -0.237 NA
ATOM     16  C   UNL     1      -3.384  -5.291  -1.491  0.00  0.00    +0.166 A 
ATOM     17  C   UNL     1      -2.584  -4.643  -0.623  0.00  0.00    +0.236 A 
ATOM     18  C   UNL     1      -0.187  -6.618  -2.547  0.00  0.00    +0.088 C 
BRANCH  17  19
ATOM     19  N   UNL     1      -3.009  -3.686   0.424  0.00  0.00    +0.077 N 
ATOM     20  O   UNL     1      -2.199  -3.250   1.208  0.00  0.00    -0.125 OA
ATOM     21  O   UNL     1      -4.165  -3.341   0.494  0.00  0.00    -0.125 OA
ENDBRANCH  17  19
ENDBRANCH   1  13
TORSDOF 3
