REMARK  Name = ZINC39939350
REMARK  6 active torsions:
REMARK  status: ('A' for Active; 'I' for Inactive)
REMARK    1  A    between atoms: C_5  and  C_7
REMARK    2  A    between atoms: C_9  and  S_13
REMARK    3  A    between atoms: S_13  and  C_14
REMARK    4  A    between atoms: C_14  and  C_15
REMARK    5  A    between atoms: N_17  and  C_18
REMARK    6  A    between atoms: C_20  and  C_29
REMARK                            x       y       z     vdW  Elec       q    Type
REMARK                         _______ _______ _______ _____ _____    ______ ____
ROOT
ATOM      1  C   UNL     1      -3.287  -5.951  -0.525  0.00  0.00    +0.224 C 
ATOM      2  O   UNL     1      -3.003  -7.036  -0.986  0.00  0.00    -0.275 OA
ATOM      3  N   UNL     1      -4.515  -5.737  -0.012  0.00  0.00    -0.302 N 
ATOM      4  H   UNL     1      -4.742  -4.869   0.357  0.00  0.00    +0.150 HD
ENDROOT
BRANCH   3   5
ATOM      5  C   UNL     1      -5.507  -6.815  -0.012  0.00  0.00    +0.151 C 
ATOM      6  C   UNL     1      -6.498  -6.674   1.168  0.00  0.00    +0.132 C 
ATOM      7  C   UNL     1      -6.862  -8.016   1.752  0.00  0.00    -0.046 C 
ATOM      8  C   UNL     1      -6.057  -9.039   1.490  0.00  0.00    -0.013 C 
ATOM      9  S   UNL     1      -4.750  -8.430   0.448  0.00  0.00    -0.106 S 
ATOM     10  C   UNL     1      -6.209 -10.455   1.971  0.00  0.00    +0.042 C 
ATOM     11  C   UNL     1      -7.231 -10.482   3.114  0.00  0.00    +0.005 C 
ATOM     12  C   UNL     1      -8.463  -9.680   2.682  0.00  0.00    +0.005 C 
ATOM     13  C   UNL     1      -8.108  -8.195   2.617  0.00  0.00    +0.032 C 
BRANCH   6  14
ATOM     14  C   UNL     1      -5.868  -5.826   2.242  0.00  0.00    +0.220 C 
ATOM     15  O   UNL     1      -5.135  -6.335   3.064  0.00  0.00    -0.275 OA
ATOM     16  N   UNL     1      -6.118  -4.503   2.291  0.00  0.00    -0.329 N 
ATOM     17  H   UNL     1      -6.760  -4.108   1.679  0.00  0.00    +0.145 HD
ATOM     18  H   UNL     1      -5.657  -3.945   2.937  0.00  0.00    +0.145 HD
ENDBRANCH   6  14
ENDBRANCH   3   5
BRANCH   1  19
ATOM     19  C   UNL     1      -2.266  -4.842  -0.525  0.00  0.00    +0.173 C 
BRANCH  19  20
ATOM     20  S   UNL     1      -0.727  -5.438  -1.277  0.00  0.00    -0.077 S 
BRANCH  20  23
ATOM     21  C   UNL     1       1.112  -2.049  -0.817  0.00  0.00    +0.183 A 
ATOM     22  N   UNL     1       0.053  -2.864  -0.705  0.00  0.00    -0.201 NA
ATOM     23  C   UNL     1       0.350  -4.045  -1.203  0.00  0.00    +0.185 A 
ATOM     24  N   UNL     1       1.626  -4.003  -1.648  0.00  0.00    -0.253 N 
ATOM     25  H   UNL     1       2.119  -4.726  -2.066  0.00  0.00    +0.191 HD
ATOM     26  N   UNL     1       2.095  -2.704  -1.393  0.00  0.00    -0.152 NA
BRANCH  21  31
ATOM     27  C   UNL     1       0.104   1.264   0.647  0.00  0.00    +0.001 A 
ATOM     28  C   UNL     1       1.260   2.002   0.470  0.00  0.00    +0.001 A 
ATOM     29  C   UNL     1       2.369   1.428  -0.125  0.00  0.00    +0.016 A 
ATOM     30  C   UNL     1       2.327   0.112  -0.545  0.00  0.00    +0.029 A 
ATOM     31  C   UNL     1       1.164  -0.636  -0.367  0.00  0.00    +0.035 A 
ATOM     32  C   UNL     1       0.050  -0.051   0.232  0.00  0.00    +0.013 A 
ATOM     33 BR   UNL     1       3.843  -0.671  -1.358  0.00  0.00    -0.050 Br
ENDBRANCH  21  31
ENDBRANCH  20  23
ENDBRANCH  19  20
ENDBRANCH   1  19
TORSDOF 6
