REMARK  Name = ZINC39671257
REMARK  10 active torsions:
REMARK  status: ('A' for Active; 'I' for Inactive)
REMARK    1  A    between atoms: C_1  and  C_2
REMARK    2  A    between atoms: C_2  and  C_3
REMARK    3  A    between atoms: C_3  and  C_4
REMARK    4  A    between atoms: C_4  and  C_5
REMARK    5  A    between atoms: C_5  and  C_6
REMARK    6  A    between atoms: C_6  and  C_7
REMARK    7  A    between atoms: C_11  and  C_20
REMARK    8  A    between atoms: N_22  and  C_23
REMARK    9  A    between atoms: C_23  and  C_24
REMARK   10  A    between atoms: C_27  and  C_29
REMARK                            x       y       z     vdW  Elec       q    Type
REMARK                         _______ _______ _______ _____ _____    ______ ____
ROOT
ATOM      1  C   UNL     1      -3.949  -4.674  -0.098  0.00  0.00    +0.216 C 
ATOM      2  O   UNL     1      -4.815  -3.825  -0.120  0.00  0.00    -0.276 OA
ATOM      3  N   UNL     1      -4.284  -5.979  -0.062  0.00  0.00    -0.300 N 
ATOM      4  C   UNL     1      -3.376  -7.149  -0.024  0.00  0.00    +0.121 C 
ATOM      5  C   UNL     1      -4.055  -8.139   0.949  0.00  0.00    +0.100 C 
ATOM      6  C   UNL     1      -5.544  -7.753   0.925  0.00  0.00    -0.004 C 
ATOM      7  C   UNL     1      -5.645  -6.567  -0.044  0.00  0.00    +0.115 C 
ATOM      8  C   UNL     1      -6.001  -7.329   2.318  0.00  0.00    -0.010 C 
ATOM      9  C   UNL     1      -7.498  -7.005   2.281  0.00  0.00    -0.082 C 
ATOM     10  N   UNL     1      -8.245  -8.188   1.838  0.00  0.00    +0.379 N 
ATOM     11  C   UNL     1      -7.866  -8.534   0.463  0.00  0.00    -0.082 C 
ATOM     12  C   UNL     1      -6.385  -8.922   0.422  0.00  0.00    -0.010 C 
ATOM     13  H   UNL     1      -8.038  -8.964   2.448  0.00  0.00    -0.086 HD
ATOM     14  H   UNL     1      -9.235  -7.991   1.873  0.00  0.00    -0.086 HD
ENDROOT
BRANCH   5  15
ATOM     15  C   UNL     1      -3.491  -7.981   2.337  0.00  0.00    +0.219 C 
ATOM     16  O   UNL     1      -3.080  -6.901   2.705  0.00  0.00    -0.275 OA
ATOM     17  N   UNL     1      -3.444  -9.039   3.170  0.00  0.00    -0.306 N 
ATOM     18  H   UNL     1      -3.773  -9.903   2.876  0.00  0.00    +0.149 HD
BRANCH  17  19
ATOM     19  C   UNL     1      -2.895  -8.885   4.520  0.00  0.00    +0.202 C 
BRANCH  19  20
ATOM     20  C   UNL     1      -2.956 -10.207   5.241  0.00  0.00    +0.234 A 
ATOM     21  N   UNL     1      -2.029 -11.122   5.253  0.00  0.00    -0.111 NA
ATOM     22  N   UNL     1      -2.420 -12.116   5.970  0.00  0.00    -0.113 NA
ATOM     23  C   UNL     1      -3.610 -11.870   6.439  0.00  0.00    +0.214 A 
ATOM     24  O   UNL     1      -3.975 -10.655   5.994  0.00  0.00    -0.423 OA
ATOM     25  C   UNL     1      -4.426 -12.777   7.324  0.00  0.00    +0.111 C 
ENDBRANCH  19  20
ENDBRANCH  17  19
ENDBRANCH   5  15
BRANCH   1  26
ATOM     26  C   UNL     1      -2.498  -4.269  -0.110  0.00  0.00    +0.096 C 
BRANCH  26  27
ATOM     27  C   UNL     1      -2.394  -2.743  -0.152  0.00  0.00    +0.009 C 
BRANCH  27  28
ATOM     28  C   UNL     1      -0.920  -2.332  -0.165  0.00  0.00    +0.000 C 
BRANCH  28  29
ATOM     29  C   UNL     1      -0.817  -0.806  -0.207  0.00  0.00    -0.000 C 
BRANCH  29  31
ATOM     30  C   UNL     1       0.761   1.131  -0.261  0.00  0.00    +0.004 C 
ATOM     31  C   UNL     1       0.657  -0.395  -0.220  0.00  0.00    -0.003 C 
ENDBRANCH  29  31
ENDBRANCH  28  29
ENDBRANCH  27  28
ENDBRANCH  26  27
ENDBRANCH   1  26
TORSDOF 8
