REMARK  Name = ZINC09640750
REMARK  11 active torsions:
REMARK  status: ('A' for Active; 'I' for Inactive)
REMARK    1  A    between atoms: C_1  and  C_2
REMARK    2  A    between atoms: C_2  and  O_3
REMARK    3  A    between atoms: O_3  and  C_4
REMARK    4  A    between atoms: C_7  and  S_10
REMARK    5  A    between atoms: S_10  and  N_13
REMARK    6  A    between atoms: N_13  and  C_14
REMARK    7  A    between atoms: C_18  and  C_20
REMARK    8  A    between atoms: N_22  and  C_23
REMARK    9  A    between atoms: C_23  and  C_24
REMARK   10  A    between atoms: C_24  and  C_26
REMARK   11  A    between atoms: C_24  and  N_31
REMARK                            x       y       z     vdW  Elec       q    Type
REMARK                         _______ _______ _______ _____ _____    ______ ____
ROOT
ATOM      1  C   UNL     1      -3.484  -6.399   2.105  0.00  0.00    +0.049 A 
ATOM      2  C   UNL     1      -4.085  -5.174   1.839  0.00  0.00    +0.024 A 
ATOM      3  C   UNL     1      -5.183  -4.765   2.572  0.00  0.00    +0.003 A 
ATOM      4  C   UNL     1      -5.690  -5.569   3.572  0.00  0.00    +0.013 A 
ATOM      5  C   UNL     1      -5.094  -6.801   3.846  0.00  0.00    +0.038 A 
ATOM      6  C   UNL     1      -3.989  -7.217   3.103  0.00  0.00    +0.037 A 
ENDROOT
BRANCH   5   7
ATOM      7  C   UNL     1      -5.636  -7.665   4.917  0.00  0.00    +0.244 C 
ATOM      8  O   UNL     1      -5.115  -8.738   5.154  0.00  0.00    -0.270 OA
ATOM      9  N   UNL     1      -6.706  -7.263   5.631  0.00  0.00    -0.312 N 
ATOM     10  H   UNL     1      -7.122  -6.408   5.441  0.00  0.00    +0.149 HD
BRANCH   9  11
ATOM     11  C   UNL     1      -7.242  -8.119   6.692  0.00  0.00    +0.097 C 
BRANCH  11  12
ATOM     12  C   UNL     1      -8.369  -7.383   7.420  0.00  0.00    +0.016 C 
BRANCH  12  13
ATOM     13  N   UNL     1      -8.816  -8.185   8.567  0.00  0.00    +0.387 N 
ATOM     14  C   UNL     1      -7.750  -8.242   9.600  0.00  0.00    -0.078 C 
ATOM     15  C   UNL     1      -8.527  -8.591  10.893  0.00  0.00    -0.020 C 
ATOM     16  C   UNL     1      -9.841  -7.794  10.733  0.00  0.00    -0.020 C 
ATOM     17  C   UNL     1      -9.975  -7.539   9.220  0.00  0.00    -0.078 C 
ATOM     18  H   UNL     1      -9.061  -9.117   8.267  0.00  0.00    -0.081 HD
ENDBRANCH  12  13
BRANCH  12  19
ATOM     19  C   UNL     1      -9.523  -7.170   6.475  0.00  0.00    +0.093 A 
ATOM     20  C   UNL     1      -9.799  -6.032   5.814  0.00  0.00    +0.043 A 
ATOM     21  C   UNL     1     -10.961  -6.275   5.046  0.00  0.00    +0.041 A 
ATOM     22  C   UNL     1     -11.326  -7.548   5.285  0.00  0.00    +0.195 A 
ATOM     23  O   UNL     1     -10.448  -8.087   6.146  0.00  0.00    -0.469 OA
ENDBRANCH  12  19
ENDBRANCH  11  12
ENDBRANCH   9  11
ENDBRANCH   5   7
BRANCH   1  24
ATOM     24  N   UNL     1      -2.374  -6.809   1.361  0.00  0.00    -0.216 N 
ATOM     25  H   UNL     1      -1.601  -7.184   1.810  0.00  0.00    +0.174 HD
BRANCH  24  26
ATOM     26  S   UNL     1      -2.380  -6.654  -0.288  0.00  0.00    +0.072 S 
ATOM     27  O   UNL     1      -1.177  -7.248  -0.756  0.00  0.00    -0.150 OA
ATOM     28  O   UNL     1      -2.723  -5.304  -0.568  0.00  0.00    -0.150 OA
BRANCH  26  32
ATOM     29  C   UNL     1      -5.776  -9.204  -1.860  0.00  0.00    +0.121 A 
ATOM     30  C   UNL     1      -6.020  -7.906  -1.437  0.00  0.00    +0.047 A 
ATOM     31  C   UNL     1      -4.983  -7.130  -0.957  0.00  0.00    +0.032 A 
ATOM     32  C   UNL     1      -3.701  -7.647  -0.900  0.00  0.00    +0.109 A 
ATOM     33  C   UNL     1      -3.455  -8.940  -1.321  0.00  0.00    +0.032 A 
ATOM     34  C   UNL     1      -4.490  -9.722  -1.796  0.00  0.00    +0.047 A 
BRANCH  29  35
ATOM     35  O   UNL     1      -6.795  -9.970  -2.332  0.00  0.00    -0.492 OA
BRANCH  35  37
ATOM     36  C   UNL     1      -9.102 -10.377  -2.925  0.00  0.00    +0.048 C 
ATOM     37  C   UNL     1      -8.092  -9.371  -2.369  0.00  0.00    +0.225 C 
ENDBRANCH  35  37
ENDBRANCH  29  35
ENDBRANCH  26  32
ENDBRANCH  24  26
ENDBRANCH   1  24
TORSDOF 10
