REMARK  Name = ZINC41261735
REMARK  7 active torsions:
REMARK  status: ('A' for Active; 'I' for Inactive)
REMARK    1  A    between atoms: C_1  and  C_2
REMARK    2  A    between atoms: C_4  and  O_23
REMARK    3  A    between atoms: C_5  and  C_22
REMARK    4  A    between atoms: C_7  and  S_8
REMARK    5  A    between atoms: S_8  and  N_11
REMARK    6  A    between atoms: N_11  and  C_12
REMARK    7  A    between atoms: O_23  and  C_24
REMARK                            x       y       z     vdW  Elec       q    Type
REMARK                         _______ _______ _______ _____ _____    ______ ____
ROOT
ATOM      1  S   UNL     1       0.239   0.172   2.624  0.00  0.00    +0.073 S 
ATOM      2  O   UNL     1       0.491  -0.810   3.620  0.00  0.00    -0.150 OA
ATOM      3  O   UNL     1       1.146   1.232   2.354  0.00  0.00    -0.150 OA
ENDROOT
BRANCH   1  10
ATOM      4  C   UNL     1      -0.427   1.501  -0.007  0.00  0.00    +0.046 C 
ATOM      5  C   UNL     1      -0.291   0.001  -0.047  0.00  0.00    -0.020 A 
ATOM      6  C   UNL     1      -0.465  -0.677  -1.238  0.00  0.00    +0.051 A 
ATOM      7  C   UNL     1      -0.339  -2.058  -1.274  0.00  0.00    +0.123 A 
ATOM      8  C   UNL     1      -0.040  -2.755  -0.113  0.00  0.00    -0.007 A 
ATOM      9  C   UNL     1       0.133  -2.073   1.076  0.00  0.00    +0.036 A 
ATOM     10  C   UNL     1       0.012  -0.696   1.108  0.00  0.00    +0.112 A 
ATOM     11  C   UNL     1       0.097  -4.256  -0.148  0.00  0.00    +0.047 C 
BRANCH   7  12
ATOM     12  O   UNL     1      -0.509  -2.727  -2.445  0.00  0.00    -0.495 OA
ATOM     13  C   UNL     1      -0.816  -1.944  -3.601  0.00  0.00    +0.277 C 
ENDBRANCH   7  12
ENDBRANCH   1  10
BRANCH   1  14
ATOM     14  N   UNL     1      -1.210   0.875   3.009  0.00  0.00    -0.216 N 
ATOM     15  H   UNL     1      -1.298   1.840   2.998  0.00  0.00    +0.174 HD
BRANCH  14  16
ATOM     16  C   UNL     1      -2.307   0.075   3.348  0.00  0.00    +0.050 A 
ATOM     17  C   UNL     1      -2.621  -1.037   2.575  0.00  0.00    +0.028 A 
ATOM     18  C   UNL     1      -3.703  -1.829   2.905  0.00  0.00    +0.050 A 
ATOM     19  C   UNL     1      -4.480  -1.517   4.009  0.00  0.00    +0.157 A 
ATOM     20  C   UNL     1      -4.166  -0.402   4.786  0.00  0.00    +0.089 A 
ATOM     21  C   UNL     1      -3.077   0.390   4.458  0.00  0.00    +0.054 A 
ATOM     22  N   UNL     1      -5.112  -0.349   5.809  0.00  0.00    -0.288 N 
ATOM     23  C   UNL     1      -5.950  -1.391   5.641  0.00  0.00    +0.419 A 
ATOM     24  O   UNL     1      -6.898  -1.653   6.355  0.00  0.00    -0.223 OA
ATOM     25  O   UNL     1      -5.575  -2.096   4.562  0.00  0.00    -0.408 OA
ATOM     26  H   UNL     1      -5.160   0.317   6.513  0.00  0.00    +0.172 HD
ENDBRANCH  14  16
ENDBRANCH   1  14
TORSDOF 4
