REMARK  Name = ZINC25978884
REMARK  11 active torsions:
REMARK  status: ('A' for Active; 'I' for Inactive)
REMARK    1  A    between atoms: C_1  and  C_2
REMARK    2  A    between atoms: N_5  and  S_11
REMARK    3  A    between atoms: C_7  and  C_10
REMARK    4  A    between atoms: S_11  and  C_14
REMARK    5  A    between atoms: C_18  and  C_20
REMARK    6  A    between atoms: N_22  and  C_23
REMARK    7  A    between atoms: C_23  and  C_25
REMARK    8  A    between atoms: C_23  and  C_36
REMARK    9  A    between atoms: C_25  and  C_26
REMARK   10  A    between atoms: C_36  and  O_38
REMARK   11  A    between atoms: O_38  and  C_39
REMARK                            x       y       z     vdW  Elec       q    Type
REMARK                         _______ _______ _______ _____ _____    ______ ____
ROOT
ATOM      1  C   UNL     1      -0.639   3.127   3.561  0.00  0.00    +0.245 C 
ATOM      2  O   UNL     1      -1.418   2.392   4.137  0.00  0.00    -0.270 OA
ATOM      3  N   UNL     1      -0.708   3.264   2.222  0.00  0.00    -0.298 N 
ATOM      4  H   UNL     1      -0.004   3.929   1.700  0.00  0.00    +0.150 HD
ENDROOT
BRANCH   1   9
ATOM      5  C   UNL     1       1.413   4.425   6.426  0.00  0.00    +0.106 A 
ATOM      6  C   UNL     1       2.297   5.261   5.766  0.00  0.00    +0.028 A 
ATOM      7  C   UNL     1       2.230   5.403   4.392  0.00  0.00    +0.003 A 
ATOM      8  C   UNL     1       1.278   4.713   3.670  0.00  0.00    +0.013 A 
ATOM      9  C   UNL     1       0.383   3.869   4.329  0.00  0.00    +0.039 A 
ATOM     10  C   UNL     1       0.454   3.733   5.716  0.00  0.00    +0.041 A 
BRANCH   5  11
ATOM     11  S   UNL     1       1.508   4.251   8.177  0.00  0.00    +0.061 S 
ATOM     12  O   UNL     1       0.924   2.994   8.492  0.00  0.00    -0.153 OA
ATOM     13  O   UNL     1       2.838   4.587   8.547  0.00  0.00    -0.153 OA
BRANCH  11  17
ATOM     14  C   UNL     1      -1.643   6.193   6.975  0.00  0.00    +0.039 C 
ATOM     15  C   UNL     1      -1.734   6.258   8.501  0.00  0.00    +0.131 C 
ATOM     16  C   UNL     1      -0.893   5.131   9.113  0.00  0.00    +0.140 C 
ATOM     17  N   UNL     1       0.525   5.408   8.838  0.00  0.00    -0.172 NA
ATOM     18  C   UNL     1       1.047   6.742   9.174  0.00  0.00    +0.140 C 
ATOM     19  C   UNL     1       0.111   7.793   8.555  0.00  0.00    +0.131 C 
ATOM     20  O   UNL     1      -1.233   7.518   8.956  0.00  0.00    -0.371 OA
ATOM     21  C   UNL     1       0.515   9.186   9.043  0.00  0.00    +0.039 C 
ENDBRANCH  11  17
ENDBRANCH   5  11
ENDBRANCH   1   9
BRANCH   3  22
ATOM     22  C   UNL     1      -1.722   2.528   1.461  0.00  0.00    +0.186 C 
BRANCH  22  23
ATOM     23  C   UNL     1      -3.013   3.305   1.463  0.00  0.00    +0.328 C 
ATOM     24  O   UNL     1      -3.080   4.364   2.040  0.00  0.00    -0.249 OA
BRANCH  23  25
ATOM     25  O   UNL     1      -4.089   2.820   0.823  0.00  0.00    -0.467 OA
ATOM     26  C   UNL     1      -5.299   3.622   0.866  0.00  0.00    +0.280 C 
ENDBRANCH  23  25
ENDBRANCH  22  23
BRANCH  22  27
ATOM     27  C   UNL     1      -1.241   2.341   0.021  0.00  0.00    +0.071 C 
BRANCH  27  28
ATOM     28  C   UNL     1      -0.018   1.461   0.010  0.00  0.00    -0.020 A 
ATOM     29  C   UNL     1       1.260   1.871   0.000  0.00  0.00    +0.087 A 
ATOM     30  N   UNL     1       2.097   0.788  -0.014  0.00  0.00    -0.360 N 
ATOM     31  H   UNL     1       3.187   0.936  -0.023  0.00  0.00    +0.165 HD
ATOM     32  C   UNL     1       1.359  -0.374  -0.013  0.00  0.00    +0.047 A 
ATOM     33  C   UNL     1       0.002  -0.004   0.002  0.00  0.00    +0.003 A 
ATOM     34  C   UNL     1      -0.988  -0.988   0.007  0.00  0.00    +0.010 A 
ATOM     35  C   UNL     1      -0.633  -2.308  -0.003  0.00  0.00    +0.001 A 
ATOM     36  C   UNL     1       0.704  -2.678  -0.018  0.00  0.00    +0.002 A 
ATOM     37  C   UNL     1       1.698  -1.723  -0.023  0.00  0.00    +0.026 A 
ENDBRANCH  27  28
ENDBRANCH  22  27
ENDBRANCH   3  22
TORSDOF 8
