REMARK  Name = ZINC19806644
REMARK  8 active torsions:
REMARK  status: ('A' for Active; 'I' for Inactive)
REMARK    1  A    between atoms: C_1  and  C_2
REMARK    2  A    between atoms: C_2  and  C_3
REMARK    3  A    between atoms: C_3  and  C_4
REMARK    4  A    between atoms: C_3  and  C_5
REMARK    5  A    between atoms: C_3  and  N_6
REMARK    6  A    between atoms: C_7  and  C_14
REMARK    7  A    between atoms: C_9  and  C_12
REMARK    8  A    between atoms: C_10  and  C_11
REMARK                            x       y       z     vdW  Elec       q    Type
REMARK                         _______ _______ _______ _____ _____    ______ ____
ROOT
ATOM      1  N   UNL     1      -0.006  -0.702   1.290  0.00  0.00    -0.342 N 
ATOM      2  C   UNL     1       0.478  -1.959   1.072  0.00  0.00    +0.017 A 
ATOM      3  C   UNL     1       1.121  -1.986  -0.108  0.00  0.00    +0.033 A 
ATOM      4  C   UNL     1       1.019  -0.630  -0.665  0.00  0.00    +0.035 A 
ATOM      5  C   UNL     1       0.310   0.108   0.264  0.00  0.00    +0.027 A 
ATOM      6  C   UNL     1      -0.051   1.566   0.145  0.00  0.00    +0.064 C 
ATOM      7  C   UNL     1       0.317  -3.131   2.005  0.00  0.00    +0.063 C 
ENDROOT
BRANCH   1   8
ATOM      8  C   UNL     1      -0.763  -0.292   2.475  0.00  0.00    +0.040 C 
ATOM      9  C   UNL     1      -2.260  -0.310   2.155  0.00  0.00    +0.034 C 
ATOM     10  C   UNL     1      -0.476  -1.261   3.624  0.00  0.00    +0.034 C 
BRANCH   8  12
ATOM     11  C   UNL     1      -1.022   1.491   4.206  0.00  0.00    +0.006 C 
ATOM     12  C   UNL     1      -0.346   1.122   2.884  0.00  0.00    +0.024 C 
ENDBRANCH   8  12
ENDBRANCH   1   8
BRANCH   4  13
ATOM     13  C   UNL     1       1.560  -0.158  -1.941  0.00  0.00    +0.260 C 
ATOM     14  O   UNL     1       1.402   0.998  -2.277  0.00  0.00    -0.296 OA
ENDBRANCH   4  13
TORSDOF 3
