REMARK  Name = ZINC12832980
REMARK  13 active torsions:
REMARK  status: ('A' for Active; 'I' for Inactive)
REMARK    1  A    between atoms: C_1  and  C_2
REMARK    2  A    between atoms: C_2  and  O_3
REMARK    3  A    between atoms: O_3  and  C_4
REMARK    4  A    between atoms: C_4  and  C_6
REMARK    5  A    between atoms: C_6  and  N_7
REMARK    6  A    between atoms: C_8  and  C_12
REMARK    7  A    between atoms: C_12  and  N_65
REMARK    8  A    between atoms: C_13  and  C_14
REMARK    9  A    between atoms: C_13  and  N_65
REMARK   10  A    between atoms: C_23  and  C_24
REMARK   11  A    between atoms: C_23  and  N_65
REMARK   12  A    between atoms: C_29  and  C_37
REMARK   13  A    between atoms: C_30  and  C_36
REMARK                            x       y       z     vdW  Elec       q    Type
REMARK                         _______ _______ _______ _____ _____    ______ ____
ROOT
ATOM      1  N   UNL     1       5.929  -1.117   1.125  0.00  0.00    +0.390 N 
ATOM      2  H   UNL     1       5.997  -0.594   0.244  0.00  0.00    -0.080 HD
ENDROOT
BRANCH   1   3
ATOM      3  C   UNL     1       7.221  -1.024   1.839  0.00  0.00    +0.001 C 
BRANCH   3   5
ATOM      4  N   UNL     1       8.344   1.125   1.048  0.00  0.00    -0.220 N 
ATOM      5  C   UNL     1       7.617   0.427   1.939  0.00  0.00    +0.136 A 
ATOM      6  N   UNL     1       7.325   1.252   2.915  0.00  0.00    -0.115 NA
ATOM      7  N   UNL     1       7.842   2.398   2.634  0.00  0.00    -0.023 NA
ATOM      8  N   UNL     1       8.456   2.326   1.505  0.00  0.00    -0.043 NA
BRANCH   4   9
ATOM      9  C   UNL     1       8.902   0.617  -0.208  0.00  0.00    +0.267 C 
BRANCH   9  10
ATOM     10  C   UNL     1       7.902   0.816  -1.319  0.00  0.00    +0.329 C 
ATOM     11  O   UNL     1       6.834   1.329  -1.085  0.00  0.00    -0.249 OA
BRANCH  10  12
ATOM     12  O   UNL     1       8.199   0.423  -2.567  0.00  0.00    -0.464 OA
BRANCH  12  14
ATOM     13  C   UNL     1       7.703   0.137  -4.934  0.00  0.00    +0.048 C 
ATOM     14  C   UNL     1       7.189   0.646  -3.586  0.00  0.00    +0.229 C 
ENDBRANCH  12  14
ENDBRANCH  10  12
ENDBRANCH   9  10
ENDBRANCH   4   9
ENDBRANCH   3   5
ENDBRANCH   1   3
BRANCH   1  15
ATOM     15  C   UNL     1       4.853  -0.530   1.950  0.00  0.00    -0.042 C 
BRANCH  15  16
ATOM     16  C   UNL     1       3.646  -0.298   1.077  0.00  0.00    -0.060 A 
ATOM     17  C   UNL     1       2.627  -1.232   1.047  0.00  0.00    +0.005 A 
ATOM     18  C   UNL     1       1.519  -1.024   0.248  0.00  0.00    +0.050 A 
ATOM     19  C   UNL     1       1.426   0.122  -0.525  0.00  0.00    +0.166 A 
ATOM     20  C   UNL     1       2.452   1.063  -0.494  0.00  0.00    +0.166 A 
ATOM     21  C   UNL     1       3.560   0.848   0.310  0.00  0.00    +0.051 A 
ATOM     22  O   UNL     1       2.127   2.090  -1.332  0.00  0.00    -0.453 OA
ATOM     23  C   UNL     1       0.712   1.966  -1.562  0.00  0.00    +0.466 C 
ATOM     24  O   UNL     1       0.458   0.559  -1.383  0.00  0.00    -0.453 OA
ENDBRANCH  15  16
ENDBRANCH   1  15
BRANCH   1  25
ATOM     25  C   UNL     1       5.621  -2.530   0.822  0.00  0.00    -0.036 C 
BRANCH  25  26
ATOM     26  C   UNL     1       6.517  -2.992  -0.298  0.00  0.00    +0.001 A 
ATOM     27  C   UNL     1       7.655  -3.672  -0.015  0.00  0.00    +0.017 A 
ATOM     28  C   UNL     1       8.502  -4.111  -1.126  0.00  0.00    -0.001 A 
ATOM     29  C   UNL     1       9.686  -4.821  -0.897  0.00  0.00    +0.010 A 
ATOM     30  C   UNL     1      10.456  -5.211  -1.956  0.00  0.00    +0.004 A 
ATOM     31  C   UNL     1      10.075  -4.910  -3.256  0.00  0.00    -0.046 A 
ATOM     32  C   UNL     1       8.913  -4.213  -3.505  0.00  0.00    -0.024 A 
ATOM     33  C   UNL     1       8.113  -3.804  -2.443  0.00  0.00    +0.052 A 
ATOM     34  N   UNL     1       6.945  -3.105  -2.664  0.00  0.00    -0.322 N 
ATOM     35  H   UNL     1       6.678  -2.894  -3.572  0.00  0.00    +0.169 HD
ATOM     36  C   UNL     1       6.171  -2.710  -1.637  0.00  0.00    +0.251 A 
ATOM     37  O   UNL     1       5.146  -2.094  -1.869  0.00  0.00    -0.268 OA
ATOM     38  C   UNL     1       8.512  -3.893  -4.922  0.00  0.00    +0.046 C 
ATOM     39  C   UNL     1      10.941  -5.352  -4.408  0.00  0.00    +0.044 C 
ENDBRANCH  25  26
ENDBRANCH   1  25
TORSDOF 10
