REMARK  Name = ZINC04005537
REMARK  15 active torsions:
REMARK  status: ('A' for Active; 'I' for Inactive)
REMARK    1  A    between atoms: C_1  and  C_2
REMARK    2  A    between atoms: C_2  and  C_4
REMARK    3  A    between atoms: C_2  and  C_40
REMARK    4  A    between atoms: C_4  and  C_5
REMARK    5  A    between atoms: C_5  and  C_6
REMARK    6  A    between atoms: C_6  and  C_8
REMARK    7  A    between atoms: C_8  and  C_10
REMARK    8  A    between atoms: C_8  and  C_11
REMARK    9  A    between atoms: C_18  and  C_39
REMARK   10  A    between atoms: C_28  and  C_38
REMARK   11  A    between atoms: C_31  and  O_34
REMARK   12  A    between atoms: O_34  and  C_35
REMARK   13  A    between atoms: C_35  and  C_37
REMARK   14  A    between atoms: C_40  and  N_41
REMARK   15  A    between atoms: C_42  and  C_44
REMARK                            x       y       z     vdW  Elec       q    Type
REMARK                         _______ _______ _______ _____ _____    ______ ____
ROOT
ATOM      1  C   UNL     1       7.426   3.024  -0.862  0.00  0.00    +0.071 C 
ATOM      2  C   UNL     1       6.246   3.604  -0.082  0.00  0.00    +0.138 C 
ATOM      3  O   UNL     1       6.291   4.534   0.680  0.00  0.00    -0.297 OA
ATOM      4  C   UNL     1       5.013   2.784  -0.459  0.00  0.00    +0.079 C 
ATOM      5  C   UNL     1       5.585   1.584  -1.226  0.00  0.00    +0.006 C 
ATOM      6  C   UNL     1       6.749   2.235  -1.998  0.00  0.00    -0.018 C 
ATOM      7  C   UNL     1       7.597   1.220  -2.711  0.00  0.00    +0.008 C 
ATOM      8  C   UNL     1       6.755   0.006  -3.142  0.00  0.00    +0.005 C 
ATOM      9  C   UNL     1       5.319   0.426  -3.419  0.00  0.00    +0.003 C 
ATOM     10  C   UNL     1       4.639   0.821  -2.101  0.00  0.00    +0.001 C 
ATOM     11  C   UNL     1       3.345   1.556  -2.456  0.00  0.00    +0.031 C 
ATOM     12  C   UNL     1       2.511   0.594  -3.266  0.00  0.00    -0.027 C 
ATOM     13  C   UNL     1       3.015  -0.381  -3.958  0.00  0.00    -0.064 C 
ATOM     14  C   UNL     1       4.493  -0.661  -4.090  0.00  0.00    -0.008 C 
ATOM     15  C   UNL     1       4.780  -2.044  -3.517  0.00  0.00    +0.015 C 
ATOM     16  C   UNL     1       3.467  -2.752  -3.180  0.00  0.00    +0.046 C 
ATOM     17  C   UNL     1       2.503  -2.754  -4.363  0.00  0.00    +0.180 C 
ATOM     18  C   UNL     1       2.079  -1.318  -4.705  0.00  0.00    +0.075 C 
ATOM     19  C   UNL     1       4.854  -0.666  -5.581  0.00  0.00    +0.016 C 
ATOM     20  C   UNL     1       6.249   3.293  -2.998  0.00  0.00    +0.012 C 
ENDROOT
BRANCH   1  21
ATOM     21  C   UNL     1       8.263   2.131   0.044  0.00  0.00    +0.063 C 
ATOM     22  C   UNL     1       9.040   2.997   1.038  0.00  0.00    +0.016 C 
BRANCH  21  23
ATOM     23  C   UNL     1       7.357   1.191   0.798  0.00  0.00    +0.137 C 
ATOM     24  O   UNL     1       6.358   1.612   1.330  0.00  0.00    -0.297 OA
BRANCH  23  25
ATOM     25  C   UNL     1       7.699  -0.274   0.889  0.00  0.00    +0.075 C 
BRANCH  25  26
ATOM     26  C   UNL     1       6.625  -0.999   1.702  0.00  0.00    +0.012 C 
BRANCH  26  28
ATOM     27  C   UNL     1       6.912  -3.111   0.399  0.00  0.00    +0.009 C 
ATOM     28  C   UNL     1       6.971  -2.486   1.794  0.00  0.00    +0.003 C 
BRANCH  28  29
ATOM     29  C   UNL     1       5.967  -3.188   2.710  0.00  0.00    +0.107 C 
BRANCH  29  30
ATOM     30  N   UNL     1       6.367  -4.586   2.894  0.00  0.00    -0.315 N 
ATOM     31  C   UNL     1       5.626  -5.403   3.668  0.00  0.00    +0.210 C 
ATOM     32  O   UNL     1       4.627  -4.981   4.212  0.00  0.00    -0.276 OA
ATOM     33  C   UNL     1       6.037  -6.840   3.857  0.00  0.00    +0.109 C 
ATOM     34  H   UNL     1       7.166  -4.923   2.458  0.00  0.00    +0.149 HD
ENDBRANCH  29  30
ENDBRANCH  28  29
ENDBRANCH  26  28
ENDBRANCH  25  26
ENDBRANCH  23  25
ENDBRANCH  21  23
ENDBRANCH   1  21
BRANCH  17  35
ATOM     35  O   UNL     1       3.130  -3.371  -5.514  0.00  0.00    -0.461 OA
BRANCH  35  36
ATOM     36  C   UNL     1       2.329  -4.032  -6.364  0.00  0.00    +0.304 C 
ATOM     37  O   UNL     1       1.141  -4.092  -6.151  0.00  0.00    -0.251 OA
ATOM     38  C   UNL     1       2.910  -4.699  -7.583  0.00  0.00    +0.136 C 
ENDBRANCH  35  36
ENDBRANCH  17  35
TORSDOF 9
