REMARK  Name = ZINC39755867
REMARK  14 active torsions:
REMARK  status: ('A' for Active; 'I' for Inactive)
REMARK    1  A    between atoms: C_1  and  C_2
REMARK    2  A    between atoms: C_2  and  C_3
REMARK    3  A    between atoms: C_7  and  C_35
REMARK    4  A    between atoms: C_8  and  N_9
REMARK    5  A    between atoms: C_10  and  C_12
REMARK    6  A    between atoms: C_12  and  S_13
REMARK    7  A    between atoms: S_13  and  C_14
REMARK    8  A    between atoms: C_17  and  CA_21
REMARK    9  A    between atoms: N_18  and  C_19
REMARK   10  A    between atoms: C_19  and  C_20
REMARK   11  A    between atoms: CA_21  and  C_23
REMARK   12  A    between atoms: CA_21  and  N_25
REMARK   13  A    between atoms: C_23  and  O_24
REMARK   14  A    between atoms: C_26  and  C_28
REMARK                            x       y       z     vdW  Elec       q    Type
REMARK                         _______ _______ _______ _____ _____    ______ ____
ROOT
ATOM      1  C   UNL     1      -1.461  -0.112  -7.638  0.00  0.00    +0.192 A 
ATOM      2  N   UNL     1      -0.263   0.425  -7.630  0.00  0.00    -0.122 NA
ATOM      3  N   UNL     1       0.135   0.623  -8.836  0.00  0.00    -0.131 NA
ATOM      4  C   UNL     1      -0.776   0.227  -9.678  0.00  0.00    +0.157 A 
ATOM      5  N   UNL     1      -1.824  -0.261  -8.946  0.00  0.00    -0.305 N 
ENDROOT
BRANCH   5   6
ATOM      6  C   UNL     1      -3.076  -0.823  -9.458  0.00  0.00    +0.122 C 
ATOM      7  C   UNL     1      -4.107   0.295  -9.621  0.00  0.00    +0.027 C 
ENDBRANCH   5   6
BRANCH   1   8
ATOM      8  S   UNL     1      -2.417  -0.563  -6.228  0.00  0.00    -0.077 S 
BRANCH   8   9
ATOM      9  C   UNL     1      -1.367  -0.103  -4.821  0.00  0.00    +0.173 C 
BRANCH   9  11
ATOM     10  N   UNL     1      -1.483  -0.185  -2.352  0.00  0.00    -0.284 N 
ATOM     11  C   UNL     1      -2.076  -0.440  -3.535  0.00  0.00    +0.228 C 
ATOM     12  O   UNL     1      -3.180  -0.941  -3.564  0.00  0.00    -0.275 OA
ATOM     13  H   UNL     1      -0.630   0.276  -2.326  0.00  0.00    +0.155 HD
BRANCH  10  19
ATOM     14  C   UNL     1      -2.709   0.355  -0.343  0.00  0.00    -0.026 A 
ATOM     15  C   UNL     1      -3.320  -0.044   0.830  0.00  0.00    +0.005 A 
ATOM     16  C   UNL     1      -3.317  -1.378   1.193  0.00  0.00    +0.001 A 
ATOM     17  C   UNL     1      -2.705  -2.317   0.384  0.00  0.00    +0.005 A 
ATOM     18  C   UNL     1      -2.093  -1.925  -0.790  0.00  0.00    -0.029 A 
ATOM     19  C   UNL     1      -2.097  -0.586  -1.160  0.00  0.00    +0.040 A 
ATOM     20  C   UNL     1      -1.425  -2.948  -1.672  0.00  0.00    +0.045 C 
BRANCH  14  22
ATOM     21  C   UNL     1      -3.887   2.080  -1.679  0.00  0.00    +0.009 C 
ATOM     22  C   UNL     1      -2.712   1.809  -0.737  0.00  0.00    +0.033 C 
ENDBRANCH  14  22
ENDBRANCH  10  19
ENDBRANCH   9  11
ENDBRANCH   8   9
ENDBRANCH   1   8
BRANCH   4  23
ATOM     23  CA  UNL     1      -0.691   0.289 -11.181  0.00  0.00    +0.167 C 
BRANCH  23  24
ATOM     24  N   UNL     1       0.626  -0.185 -11.615  0.00  0.00    -0.299 N 
ATOM     25  C   UNL     1       0.785  -0.696 -12.852  0.00  0.00    +0.245 C 
ATOM     26  O   UNL     1      -0.165  -0.764 -13.608  0.00  0.00    -0.270 OA
ATOM     27  H   UNL     1       1.384  -0.131 -11.012  0.00  0.00    +0.150 HD
BRANCH  25  28
ATOM     28  C   UNL     1       2.113  -1.173 -13.290  0.00  0.00    +0.037 A 
ATOM     29  C   UNL     1       3.204  -1.102 -12.422  0.00  0.00    +0.014 A 
ATOM     30  C   UNL     1       4.441  -1.550 -12.835  0.00  0.00    +0.021 A 
ATOM     31  C   UNL     1       4.602  -2.069 -14.109  0.00  0.00    +0.041 A 
ATOM     32  C   UNL     1       3.523  -2.143 -14.975  0.00  0.00    +0.021 A 
ATOM     33  C   UNL     1       2.280  -1.703 -14.570  0.00  0.00    +0.014 A 
ATOM     34 CL   UNL     1       6.163  -2.630 -14.623  0.00  0.00    -0.084 Cl
ENDBRANCH  25  28
ENDBRANCH  23  24
BRANCH  23  35
ATOM     35  C   UNL     1      -0.891   1.733 -11.645  0.00  0.00    +0.186 C 
BRANCH  35  36
ATOM     36  O   UNL     1       0.052   2.580 -10.984  0.00  0.00    -0.393 OA
ATOM     37  H   UNL     1      -0.018   3.513 -11.231  0.00  0.00    +0.209 HD
ENDBRANCH  35  36
ENDBRANCH  23  35
ENDBRANCH   4  23
TORSDOF 11
