REMARK  Name = ZINC09491393
REMARK  6 active torsions:
REMARK  status: ('A' for Active; 'I' for Inactive)
REMARK    1  A    between atoms: C_1  and  C_2
REMARK    2  A    between atoms: C_5  and  C_31
REMARK    3  A    between atoms: C_6  and  S_8
REMARK    4  A    between atoms: S_8  and  N_11
REMARK    5  A    between atoms: C_16  and  C_17
REMARK    6  A    between atoms: C_16  and  N_57
REMARK                            x       y       z     vdW  Elec       q    Type
REMARK                         _______ _______ _______ _____ _____    ______ ____
ROOT
ATOM      1  N   UNL     1      -3.734   3.218  -8.785  0.00  0.00    -0.180 NA
ATOM      2  C   UNL     1      -2.657   4.219  -8.780  0.00  0.00    +0.091 C 
ATOM      3  C   UNL     1      -1.345   3.522  -8.406  0.00  0.00    -0.061 C 
ATOM      4  C   UNL     1      -2.528   1.731  -7.276  0.00  0.00    -0.061 C 
ATOM      5  C   UNL     1      -3.888   2.355  -7.604  0.00  0.00    +0.091 C 
ATOM      6  N   UNL     1      -1.533   2.815  -7.121  0.00  0.00    +0.386 N 
ATOM      7  H   UNL     1      -1.875   3.483  -6.420  0.00  0.00    -0.081 HD
ENDROOT
BRANCH   1   8
ATOM      8  S   UNL     1      -4.746   3.064 -10.087  0.00  0.00    +0.061 S 
ATOM      9  O   UNL     1      -5.998   2.623  -9.579  0.00  0.00    -0.153 OA
ATOM     10  O   UNL     1      -4.611   4.256 -10.849  0.00  0.00    -0.153 OA
BRANCH   8  16
ATOM     11  C   UNL     1      -5.128  -1.725 -12.146  0.00  0.00    +0.044 C 
ATOM     12  C   UNL     1      -4.344  -0.446 -12.000  0.00  0.00    -0.049 A 
ATOM     13  C   UNL     1      -3.131  -0.301 -12.648  0.00  0.00    +0.004 A 
ATOM     14  C   UNL     1      -2.412   0.871 -12.513  0.00  0.00    +0.005 A 
ATOM     15  C   UNL     1      -2.905   1.899 -11.731  0.00  0.00    -0.024 A 
ATOM     16  C   UNL     1      -4.118   1.754 -11.084  0.00  0.00    +0.109 A 
ATOM     17  C   UNL     1      -4.835   0.580 -11.215  0.00  0.00    +0.032 A 
ATOM     18  C   UNL     1      -2.120   3.177 -11.584  0.00  0.00    +0.046 C 
ENDBRANCH   8  16
ENDBRANCH   1   8
BRANCH   6  19
ATOM     19  C   UNL     1      -0.245   2.255  -6.660  0.00  0.00    -0.003 C 
BRANCH  19  20
ATOM     20  C   UNL     1      -0.417   1.735  -5.256  0.00  0.00    +0.094 A 
ATOM     21  N   UNL     1       0.647   1.187  -4.614  0.00  0.00    -0.312 N 
ATOM     22  H   UNL     1       1.503   1.139  -5.068  0.00  0.00    +0.170 HD
ATOM     23  C   UNL     1       0.538   0.710  -3.360  0.00  0.00    +0.260 A 
ATOM     24  O   UNL     1       1.501   0.221  -2.795  0.00  0.00    -0.267 OA
ATOM     25  C   UNL     1      -0.732   0.787  -2.701  0.00  0.00    +0.075 A 
ATOM     26  C   UNL     1      -1.081   0.333  -1.346  0.00  0.00    -0.023 A 
ATOM     27  C   UNL     1      -2.352   0.518  -0.952  0.00  0.00    -0.004 A 
ATOM     28  S   UNL     1      -3.154   1.295  -2.336  0.00  0.00    -0.073 S 
ATOM     29  C   UNL     1      -1.770   1.368  -3.442  0.00  0.00    +0.116 A 
ATOM     30  N   UNL     1      -1.586   1.819  -4.680  0.00  0.00    -0.229 NA
ATOM     31  C   UNL     1      -2.591   0.020   0.448  0.00  0.00    +0.043 C 
ATOM     32  C   UNL     1      -1.176  -0.119   1.057  0.00  0.00    +0.010 C 
ATOM     33  C   UNL     1      -0.316  -0.339  -0.203  0.00  0.00    +0.037 C 
ENDBRANCH  19  20
ENDBRANCH   6  19
TORSDOF 4
