REMARK  Name = ZINC61542825
REMARK  3 active torsions:
REMARK  status: ('A' for Active; 'I' for Inactive)
REMARK    1  A    between atoms: C_1  and  C_2
REMARK    2  A    between atoms: C_2  and  C_4
REMARK    3  A    between atoms: C_2  and  N_9
REMARK                            x       y       z     vdW  Elec       q    Type
REMARK                         _______ _______ _______ _____ _____    ______ ____
ROOT
ATOM      1  N   UNL     1       0.688  -0.476  -1.203  0.00  0.00    -0.307 N 
ATOM      2  C   UNL     1       2.063  -0.590  -1.215  0.00  0.00    +0.221 A 
ATOM      3  N   UNL     1       2.687  -1.013  -2.310  0.00  0.00    -0.177 NA
ATOM      4  C   UNL     1       4.009  -1.120  -2.318  0.00  0.00    +0.258 A 
ATOM      5  N   UNL     1       4.707  -0.804  -1.233  0.00  0.00    -0.180 NA
ATOM      6  C   UNL     1       4.085  -0.383  -0.143  0.00  0.00    +0.229 A 
ATOM      7  N   UNL     1       2.767  -0.270  -0.133  0.00  0.00    -0.184 NA
ATOM      8 CL   UNL     1       5.001   0.028   1.273  0.00  0.00    -0.041 Cl
ATOM      9  N   UNL     1       4.665  -1.564  -3.464  0.00  0.00    -0.186 N 
ATOM     10  C   UNL     1       5.995  -1.729  -3.623  0.00  0.00    +0.228 A 
ATOM     11  N   UNL     1       6.206  -2.160  -4.839  0.00  0.00    -0.222 NA
ATOM     12  C   UNL     1       5.046  -2.283  -5.484  0.00  0.00    +0.245 A 
ATOM     13  N   UNL     1       4.074  -1.935  -4.683  0.00  0.00    -0.151 NA
ATOM     14  H   UNL     1       0.175  -0.710  -1.993  0.00  0.00    +0.149 HD
ENDROOT
BRANCH   1  16
ATOM     15  C   UNL     1      -0.019   1.526   0.010  0.00  0.00    +0.033 C 
ATOM     16  C   UNL     1       0.002  -0.004   0.002  0.00  0.00    +0.101 C 
BRANCH  16  17
ATOM     17  C   UNL     1      -1.412  -0.526   0.013  0.00  0.00    -0.020 A 
ATOM     18  C   UNL     1      -1.989  -0.964   1.190  0.00  0.00    +0.013 A 
ATOM     19  C   UNL     1      -3.262  -1.427   1.165  0.00  0.00    +0.045 A 
ATOM     20  S   UNL     1      -3.686  -1.251  -0.561  0.00  0.00    -0.105 S 
ATOM     21  C   UNL     1      -2.138  -0.567  -1.131  0.00  0.00    +0.050 A 
ENDBRANCH  16  17
ENDBRANCH   1  16
TORSDOF 2
