REMARK  Name = ZINC32507159
REMARK  11 active torsions:
REMARK  status: ('A' for Active; 'I' for Inactive)
REMARK    1  A    between atoms: C_1  and  C_2
REMARK    2  A    between atoms: C_2  and  C_3
REMARK    3  A    between atoms: C_3  and  C_4
REMARK    4  A    between atoms: C_3  and  C_5
REMARK    5  A    between atoms: C_3  and  C_6
REMARK    6  A    between atoms: N_14  and  C_18
REMARK    7  A    between atoms: C_18  and  N_19
REMARK    8  A    between atoms: N_22  and  C_25
REMARK    9  A    between atoms: C_25  and  C_26
REMARK   10  A    between atoms: C_26  and  O_27
REMARK   11  A    between atoms: O_27  and  C_28
REMARK                            x       y       z     vdW  Elec       q    Type
REMARK                         _______ _______ _______ _____ _____    ______ ____
ROOT
ATOM      1  C   UNL     1      -5.834  -1.625  -2.301  0.00  0.00    -0.005 C 
ATOM      2  C   UNL     1      -5.420  -0.237  -1.805  0.00  0.00    +0.006 C 
ATOM      3  C   UNL     1      -4.916  -0.343  -0.364  0.00  0.00    +0.035 C 
ATOM      4  C   UNL     1      -3.727  -1.296  -0.308  0.00  0.00    +0.113 C 
ATOM      5  C   UNL     1      -4.120  -2.678  -0.820  0.00  0.00    +0.035 C 
ATOM      6  C   UNL     1      -4.628  -2.564  -2.260  0.00  0.00    +0.006 C 
ATOM      7  C   UNL     1      -2.572  -0.745  -1.112  0.00  0.00    +0.248 C 
ATOM      8  O   UNL     1      -2.553  -0.507  -2.301  0.00  0.00    -0.273 OA
ATOM      9  N   UNL     1      -1.567  -0.575  -0.229  0.00  0.00    -0.211 N 
ATOM     10  C   UNL     1      -1.928  -0.946   1.006  0.00  0.00    +0.310 C 
ATOM     11  O   UNL     1      -1.191  -0.890   1.971  0.00  0.00    -0.252 OA
ATOM     12  N   UNL     1      -3.200  -1.384   1.059  0.00  0.00    -0.285 N 
ATOM     13  H   UNL     1      -3.840  -1.757   1.873  0.00  0.00    +0.151 HD
ENDROOT
BRANCH   1  14
ATOM     14  C   UNL     1      -6.349  -1.519  -3.739  0.00  0.00    -0.032 C 
ATOM     15  C   UNL     1      -7.557  -0.581  -3.780  0.00  0.00    +0.011 C 
ATOM     16  C   UNL     1      -5.242  -0.965  -4.637  0.00  0.00    +0.011 C 
BRANCH  14  18
ATOM     17  C   UNL     1      -7.277  -2.800  -5.672  0.00  0.00    +0.004 C 
ATOM     18  C   UNL     1      -6.762  -2.906  -4.235  0.00  0.00    +0.003 C 
ENDBRANCH  14  18
ENDBRANCH   1  14
BRANCH   9  19
ATOM     19  C   UNL     1      -0.242  -0.055  -0.578  0.00  0.00    +0.204 C 
BRANCH  19  20
ATOM     20  N   UNL     1      -0.239   1.407  -0.443  0.00  0.00    -0.290 NA
ATOM     21  C   UNL     1      -0.828   2.047  -1.628  0.00  0.00    +0.067 C 
ATOM     22  C   UNL     1      -0.879   3.562  -1.414  0.00  0.00    -0.063 C 
ATOM     23  N   UNL     1       0.480   4.065  -1.168  0.00  0.00    +0.384 N 
ATOM     24  C   UNL     1       1.068   3.425   0.017  0.00  0.00    -0.063 C 
ATOM     25  C   UNL     1       1.119   1.911  -0.197  0.00  0.00    +0.067 C 
ATOM     26  H   UNL     1       1.101   3.806  -2.038  0.00  0.00    -0.082 HD
BRANCH  23  27
ATOM     27  C   UNL     1       0.483   5.528  -1.033  0.00  0.00    -0.037 C 
BRANCH  27  28
ATOM     28  C   UNL     1       1.899   6.058  -1.264  0.00  0.00    +0.210 C 
BRANCH  28  29
ATOM     29  O   UNL     1       2.292   5.795  -2.613  0.00  0.00    -0.494 OA
BRANCH  29  30
ATOM     30  C   UNL     1       3.533   6.206  -2.985  0.00  0.00    +0.120 A 
ATOM     31  C   UNL     1       4.353   6.854  -2.073  0.00  0.00    +0.047 A 
ATOM     32  C   UNL     1       5.616   7.266  -2.452  0.00  0.00    +0.023 A 
ATOM     33  C   UNL     1       6.059   7.043  -3.744  0.00  0.00    +0.041 A 
ATOM     34  C   UNL     1       5.240   6.402  -4.657  0.00  0.00    +0.023 A 
ATOM     35  C   UNL     1       3.979   5.983  -4.280  0.00  0.00    +0.047 A 
ATOM     36 CL   UNL     1       7.644   7.567  -4.219  0.00  0.00    -0.084 Cl
ENDBRANCH  29  30
ENDBRANCH  28  29
ENDBRANCH  27  28
ENDBRANCH  23  27
ENDBRANCH  19  20
ENDBRANCH   9  19
TORSDOF 8
