REMARK  Name = ZINC13632650
REMARK  6 active torsions:
REMARK  status: ('A' for Active; 'I' for Inactive)
REMARK    1  A    between atoms: C_1  and  N_2
REMARK    2  A    between atoms: N_2  and  C_3
REMARK    3  A    between atoms: N_2  and  S_12
REMARK    4  A    between atoms: C_9  and  O_11
REMARK    5  A    between atoms: S_12  and  C_15
REMARK    6  A    between atoms: C_18  and  N_21
REMARK                            x       y       z     vdW  Elec       q    Type
REMARK                         _______ _______ _______ _____ _____    ______ ____
ROOT
ATOM      1  S   UNL     1       0.027  -0.840   1.431  0.00  0.00    +0.061 S 
ATOM      2  O   UNL     1       0.593  -2.112   1.148  0.00  0.00    -0.153 OA
ATOM      3  O   UNL     1       0.575   0.038   2.405  0.00  0.00    -0.153 OA
ENDROOT
BRANCH   1   4
ATOM      4  C   UNL     1      -1.648  -1.125   1.897  0.00  0.00    +0.106 A 
ATOM      5  C   UNL     1      -2.312  -0.207   2.689  0.00  0.00    +0.031 A 
ATOM      6  C   UNL     1      -3.627  -0.429   3.050  0.00  0.00    +0.034 A 
ATOM      7  C   UNL     1      -4.276  -1.574   2.628  0.00  0.00    +0.126 A 
ATOM      8  C   UNL     1      -3.611  -2.495   1.841  0.00  0.00    +0.034 A 
ATOM      9  C   UNL     1      -2.297  -2.271   1.476  0.00  0.00    +0.031 A 
BRANCH   7  10
ATOM     10  N   UNL     1      -5.684  -1.814   3.020  0.00  0.00    +0.056 N 
ATOM     11  O   UNL     1      -6.255  -2.823   2.647  0.00  0.00    -0.126 OA
ATOM     12  O   UNL     1      -6.270  -1.003   3.714  0.00  0.00    -0.126 OA
ENDBRANCH   7  10
ENDBRANCH   1   4
BRANCH   1  14
ATOM     13  C   UNL     1      -0.018   1.461   0.010  0.00  0.00    +0.132 C 
ATOM     14  N   UNL     1       0.002  -0.004   0.002  0.00  0.00    -0.174 NA
BRANCH  14  15
ATOM     15  C   UNL     1      -0.000  -0.730  -1.271  0.00  0.00    +0.108 C 
ATOM     16  C   UNL     1       1.236  -0.339  -2.083  0.00  0.00    +0.023 C 
ATOM     17  C   UNL     1       1.234  -1.097  -3.412  0.00  0.00    +0.002 C 
ATOM     18  C   UNL     1      -0.028  -0.740  -4.200  0.00  0.00    +0.003 C 
ATOM     19  C   UNL     1      -1.264  -1.131  -3.388  0.00  0.00    +0.033 C 
ATOM     20  C   UNL     1      -1.262  -0.373  -2.059  0.00  0.00    +0.133 C 
BRANCH  20  21
ATOM     21  O   UNL     1      -2.417  -0.738  -1.301  0.00  0.00    -0.390 OA
ATOM     22  H   UNL     1      -3.255  -0.540  -1.740  0.00  0.00    +0.210 HD
ENDBRANCH  20  21
ENDBRANCH  14  15
ENDBRANCH   1  14
TORSDOF 5
