REMARK  Name = ZINC14479898
REMARK  4 active torsions:
REMARK  status: ('A' for Active; 'I' for Inactive)
REMARK    1  A    between atoms: C_1  and  C_2
REMARK    2  A    between atoms: C_6  and  C_8
REMARK    3  A    between atoms: C_20  and  N_25
REMARK    4  A    between atoms: C_21  and  C_24
REMARK                            x       y       z     vdW  Elec       q    Type
REMARK                         _______ _______ _______ _____ _____    ______ ____
ROOT
ATOM      1  C   UNL     1       2.112  -2.807   0.735  0.00  0.00    +0.105 C 
ATOM      2  C   UNL     1       3.290  -2.414   1.603  0.00  0.00    +0.029 C 
ATOM      3  C   UNL     1       4.434  -3.422   1.761  0.00  0.00    +0.033 C 
ATOM      4  C   UNL     1       5.630  -2.492   1.981  0.00  0.00    -0.030 C 
ATOM      5  C   UNL     1       5.386  -1.317   1.438  0.00  0.00    -0.023 C 
ATOM      6  C   UNL     1       4.069  -1.360   0.757  0.00  0.00    +0.049 C 
ATOM      7  C   UNL     1       3.191  -0.176   0.637  0.00  0.00    -0.019 A 
ATOM      8  C   UNL     1       3.702   1.103   0.576  0.00  0.00    +0.008 A 
ATOM      9  C   UNL     1       2.859   2.190   0.444  0.00  0.00    +0.033 A 
ATOM     10  C   UNL     1       1.492   1.991   0.374  0.00  0.00    +0.131 A 
ATOM     11  C   UNL     1       0.973   0.717   0.441  0.00  0.00    +0.001 A 
ATOM     12  C   UNL     1       1.811  -0.391   0.580  0.00  0.00    +0.036 A 
ATOM     13  N   UNL     1       1.212  -1.645   0.675  0.00  0.00    -0.336 N 
ATOM     14  C   UNL     1      -0.519   0.517   0.365  0.00  0.00    +0.048 C 
ATOM     15  H   UNL     1       0.541  -1.668   1.429  0.00  0.00    +0.147 HD
ENDROOT
BRANCH   1  21
ATOM     16  C   UNL     1       3.002  -1.480  -4.008  0.00  0.00    +0.044 C 
ATOM     17  C   UNL     1       3.016  -2.522  -2.920  0.00  0.00    -0.050 A 
ATOM     18  C   UNL     1       3.467  -3.801  -3.193  0.00  0.00    +0.003 A 
ATOM     19  C   UNL     1       3.479  -4.757  -2.195  0.00  0.00    +0.001 A 
ATOM     20  C   UNL     1       3.040  -4.436  -0.924  0.00  0.00    +0.005 A 
ATOM     21  C   UNL     1       2.590  -3.158  -0.651  0.00  0.00    -0.027 A 
ATOM     22  C   UNL     1       2.574  -2.202  -1.650  0.00  0.00    +0.008 A 
ENDBRANCH   1  21
BRANCH  10  23
ATOM     23  N   UNL     1       0.585   3.150   0.221  0.00  0.00    +0.057 N 
ATOM     24  O   UNL     1       1.030   4.282   0.271  0.00  0.00    -0.126 OA
ATOM     25  O   UNL     1      -0.607   2.971   0.044  0.00  0.00    -0.126 OA
ENDBRANCH  10  23
TORSDOF 2
