REMARK  Name = ZINC01333884
REMARK  16 active torsions:
REMARK  status: ('A' for Active; 'I' for Inactive)
REMARK    1  A    between atoms: C_1  and  C_2
REMARK    2  A    between atoms: C_2  and  C_3
REMARK    3  A    between atoms: C_10  and  C_15
REMARK    4  A    between atoms: C_15  and  N_16
REMARK    5  A    between atoms: N_16  and  C_17
REMARK    6  A    between atoms: N_16  and  C_27
REMARK    7  A    between atoms: C_17  and  C_18
REMARK    8  A    between atoms: C_27  and  C_29
REMARK    9  A    between atoms: C_27  and  C_40
REMARK   10  A    between atoms: N_33  and  C_34
REMARK   11  A    between atoms: C_34  and  C_35
REMARK   12  A    between atoms: C_35  and  O_37
REMARK   13  A    between atoms: O_37  and  C_38
REMARK   14  A    between atoms: C_38  and  C_39
REMARK   15  A    between atoms: C_40  and  C_41
REMARK   16  A    between atoms: C_40  and  C_42
REMARK                            x       y       z     vdW  Elec       q    Type
REMARK                         _______ _______ _______ _____ _____    ______ ____
ROOT
ATOM      1  N   UNL     1       6.540  -3.140  -3.117  0.00  0.00    -0.284 NA
ENDROOT
BRANCH   1   2
ATOM      2  C   UNL     1       5.799  -1.937  -3.517  0.00  0.00    +0.126 C 
BRANCH   2  10
ATOM      3  C   UNL     1       2.027  -0.167   1.057  0.00  0.00    -0.047 A 
ATOM      4  C   UNL     1       0.909  -0.861   0.615  0.00  0.00    +0.005 A 
ATOM      5  C   UNL     1       0.962  -1.621  -0.534  0.00  0.00    +0.026 A 
ATOM      6  C   UNL     1       2.147  -1.695  -1.259  0.00  0.00    +0.049 A 
ATOM      7  C   UNL     1       3.278  -0.989  -0.807  0.00  0.00    -0.001 A 
ATOM      8  C   UNL     1       3.200  -0.220   0.359  0.00  0.00    +0.013 A 
ATOM      9  C   UNL     1       4.521  -1.072  -1.577  0.00  0.00    +0.020 A 
ATOM     10  C   UNL     1       4.536  -1.830  -2.702  0.00  0.00    +0.031 A 
ATOM     11  C   UNL     1       3.374  -2.518  -3.112  0.00  0.00    +0.254 A 
ATOM     12  O   UNL     1       3.410  -3.193  -4.126  0.00  0.00    -0.268 OA
ATOM     13  N   UNL     1       2.229  -2.447  -2.411  0.00  0.00    -0.322 N 
ATOM     14  H   UNL     1       1.448  -2.933  -2.721  0.00  0.00    +0.169 HD
BRANCH   3  16
ATOM     15  C   UNL     1       1.505   2.080   1.965  0.00  0.00    +0.009 C 
ATOM     16  C   UNL     1       1.944   0.657   2.316  0.00  0.00    +0.032 C 
ENDBRANCH   3  16
ENDBRANCH   2  10
ENDBRANCH   1   2
BRANCH   1  17
ATOM     17  C   UNL     1       7.056  -3.010  -1.748  0.00  0.00    +0.120 C 
BRANCH  17  18
ATOM     18  C   UNL     1       7.455  -4.368  -1.230  0.00  0.00    -0.030 A 
ATOM     19  C   UNL     1       6.502  -5.202  -0.677  0.00  0.00    +0.009 A 
ATOM     20  C   UNL     1       6.863  -6.449  -0.201  0.00  0.00    +0.050 A 
ATOM     21  C   UNL     1       8.182  -6.865  -0.276  0.00  0.00    +0.166 A 
ATOM     22  C   UNL     1       9.143  -6.024  -0.833  0.00  0.00    +0.167 A 
ATOM     23  C   UNL     1       8.772  -4.778  -1.314  0.00  0.00    +0.054 A 
ATOM     24  O   UNL     1      10.352  -6.655  -0.793  0.00  0.00    -0.453 OA
ATOM     25  C   UNL     1      10.197  -7.721   0.163  0.00  0.00    +0.466 C 
ATOM     26  O   UNL     1       8.790  -8.023   0.113  0.00  0.00    -0.453 OA
ENDBRANCH  17  18
ENDBRANCH   1  17
BRANCH   1  27
ATOM     27  C   UNL     1       7.626  -3.429  -4.063  0.00  0.00    +0.130 C 
BRANCH  27  28
ATOM     28  C   UNL     1       8.210  -2.135  -4.568  0.00  0.00    +0.169 A 
ATOM     29  N   UNL     1       7.549  -1.122  -5.072  0.00  0.00    -0.112 NA
ATOM     30  N   UNL     1       8.401  -0.207  -5.385  0.00  0.00    -0.023 NA
ATOM     31  N   UNL     1       9.588  -0.611  -5.094  0.00  0.00    -0.043 NA
ATOM     32  N   UNL     1       9.512  -1.793  -4.582  0.00  0.00    -0.217 N 
BRANCH  32  33
ATOM     33  C   UNL     1      10.632  -2.611  -4.110  0.00  0.00    +0.267 C 
BRANCH  33  34
ATOM     34  C   UNL     1      11.150  -3.457  -5.245  0.00  0.00    +0.329 C 
ATOM     35  O   UNL     1      10.636  -3.384  -6.336  0.00  0.00    -0.249 OA
BRANCH  34  36
ATOM     36  O   UNL     1      12.182  -4.291  -5.043  0.00  0.00    -0.464 OA
BRANCH  36  37
ATOM     37  C   UNL     1      12.621  -5.063  -6.163  0.00  0.00    +0.229 C 
ATOM     38  C   UNL     1      13.797  -5.947  -5.743  0.00  0.00    +0.048 C 
ENDBRANCH  36  37
ENDBRANCH  34  36
ENDBRANCH  33  34
ENDBRANCH  32  33
ENDBRANCH  27  28
BRANCH  27  39
ATOM     39  C   UNL     1       7.074  -4.234  -5.242  0.00  0.00    +0.008 C 
ATOM     40  C   UNL     1       6.449  -5.531  -4.727  0.00  0.00    +0.009 C 
ATOM     41  C   UNL     1       6.010  -3.409  -5.969  0.00  0.00    +0.009 C 
ENDBRANCH  27  39
ENDBRANCH   1  27
TORSDOF 12
