REMARK  Name = ZINC22431822
REMARK  15 active torsions:
REMARK  status: ('A' for Active; 'I' for Inactive)
REMARK    1  A    between atoms: C_1  and  C_2
REMARK    2  A    between atoms: C_5  and  S_8
REMARK    3  A    between atoms: S_8  and  N_11
REMARK    4  A    between atoms: N_11  and  C_12
REMARK    5  A    between atoms: N_11  and  C_30
REMARK    6  A    between atoms: C_12  and  C_13
REMARK    7  A    between atoms: N_15  and  C_16
REMARK    8  A    between atoms: C_16  and  C_18
REMARK    9  A    between atoms: C_16  and  C_22
REMARK   10  A    between atoms: C_18  and  C_19
REMARK   11  A    between atoms: C_19  and  C_20
REMARK   12  A    between atoms: C_19  and  C_21
REMARK   13  A    between atoms: C_25  and  O_28
REMARK   14  A    between atoms: O_28  and  C_29
REMARK   15  A    between atoms: C_35  and  C_36
REMARK                            x       y       z     vdW  Elec       q    Type
REMARK                         _______ _______ _______ _____ _____    ______ ____
ROOT
ATOM      1  N   UNL     1       3.029   4.858  -1.427  0.00  0.00    -0.194 N 
ENDROOT
BRANCH   1   2
ATOM      2  C   UNL     1       3.700   3.807  -2.059  0.00  0.00    +0.055 A 
ATOM      3  C   UNL     1       2.983   2.841  -2.753  0.00  0.00    +0.026 A 
ATOM      4  C   UNL     1       3.648   1.804  -3.376  0.00  0.00    +0.022 A 
ATOM      5  C   UNL     1       5.029   1.726  -3.309  0.00  0.00    +0.041 A 
ATOM      6  C   UNL     1       5.745   2.687  -2.618  0.00  0.00    +0.025 A 
ATOM      7  C   UNL     1       5.085   3.730  -1.998  0.00  0.00    -0.026 A 
ATOM      8  C   UNL     1       5.867   4.780  -1.251  0.00  0.00    +0.046 C 
ATOM      9 CL   UNL     1       5.862   0.421  -4.093  0.00  0.00    -0.084 Cl
ENDBRANCH   1   2
BRANCH   1  10
ATOM     10  S   UNL     1       2.772   6.280  -2.235  0.00  0.00    +0.075 S 
ATOM     11  O   UNL     1       2.705   5.956  -3.617  0.00  0.00    -0.150 OA
ATOM     12  O   UNL     1       1.716   6.947  -1.557  0.00  0.00    -0.150 OA
BRANCH  10  17
ATOM     13  C   UNL     1       7.709   9.669  -1.496  0.00  0.00    +0.044 C 
ATOM     14  C   UNL     1       6.476   8.823  -1.681  0.00  0.00    -0.050 A 
ATOM     15  C   UNL     1       6.336   8.044  -2.813  0.00  0.00    +0.005 A 
ATOM     16  C   UNL     1       5.205   7.267  -2.983  0.00  0.00    +0.029 A 
ATOM     17  C   UNL     1       4.214   7.270  -2.019  0.00  0.00    +0.109 A 
ATOM     18  C   UNL     1       4.351   8.053  -0.888  0.00  0.00    +0.029 A 
ATOM     19  C   UNL     1       5.485   8.826  -0.717  0.00  0.00    +0.005 A 
ENDBRANCH  10  17
ENDBRANCH   1  10
BRANCH   1  20
ATOM     20  C   UNL     1       2.553   4.701  -0.051  0.00  0.00    +0.227 C 
BRANCH  20  21
ATOM     21  C   UNL     1       1.201   4.034  -0.060  0.00  0.00    +0.233 C 
ATOM     22  O   UNL     1       0.686   3.721  -1.112  0.00  0.00    -0.274 OA
ATOM     23  N   UNL     1       0.565   3.786   1.102  0.00  0.00    -0.307 N 
ATOM     24  H   UNL     1       0.992   4.144   2.050  0.00  0.00    +0.149 HD
BRANCH  23  25
ATOM     25  C   UNL     1      -0.697   3.041   1.101  0.00  0.00    +0.103 C 
BRANCH  25  26
ATOM     26  C   UNL     1      -1.444   3.318   2.380  0.00  0.00    -0.027 A 
ATOM     27  C   UNL     1      -0.758   3.397   3.578  0.00  0.00    +0.009 A 
ATOM     28  C   UNL     1      -1.441   3.657   4.750  0.00  0.00    +0.046 A 
ATOM     29  C   UNL     1      -2.817   3.826   4.728  0.00  0.00    +0.120 A 
ATOM     30  C   UNL     1      -3.505   3.740   3.525  0.00  0.00    +0.046 A 
ATOM     31  C   UNL     1      -2.817   3.486   2.354  0.00  0.00    +0.009 A 
BRANCH  29  32
ATOM     32  O   UNL     1      -3.492   4.075   5.881  0.00  0.00    -0.495 OA
ATOM     33  C   UNL     1      -2.720   4.150   7.081  0.00  0.00    +0.277 C 
ENDBRANCH  29  32
ENDBRANCH  25  26
BRANCH  25  34
ATOM     34  C   UNL     1      -0.403   1.543   0.996  0.00  0.00    +0.030 C 
BRANCH  34  35
ATOM     35  C   UNL     1      -1.719   0.774   0.854  0.00  0.00    -0.015 C 
ATOM     36  C   UNL     1      -1.438  -0.729   0.896  0.00  0.00    +0.007 C 
ATOM     37  C   UNL     1      -2.377   1.133  -0.480  0.00  0.00    +0.007 C 
ENDBRANCH  34  35
ENDBRANCH  25  34
ENDBRANCH  23  25
ENDBRANCH  20  21
ENDBRANCH   1  20
TORSDOF 10
