REMARK  Name = ZINC40397758
REMARK  9 active torsions:
REMARK  status: ('A' for Active; 'I' for Inactive)
REMARK    1  A    between atoms: C_1  and  N_2
REMARK    2  A    between atoms: N_2  and  C_3
REMARK    3  A    between atoms: N_2  and  C_4
REMARK    4  A    between atoms: C_4  and  C_5
REMARK    5  A    between atoms: C_5  and  N_6
REMARK    6  A    between atoms: C_18  and  C_27
REMARK    7  A    between atoms: C_19  and  C_20
REMARK    8  A    between atoms: C_27  and  O_28
REMARK    9  A    between atoms: O_28  and  C_29
REMARK                            x       y       z     vdW  Elec       q    Type
REMARK                         _______ _______ _______ _____ _____    ______ ____
ROOT
ATOM      1  N   UNL     1       2.845  -0.526  -2.362  0.00  0.00    -0.316 N 
ATOM      2  C   UNL     1       3.425  -1.755  -2.359  0.00  0.00    +0.091 A 
ATOM      3  C   UNL     1       4.073  -2.251  -3.435  0.00  0.00    +0.046 A 
ATOM      4  C   UNL     1       4.165  -1.492  -4.612  0.00  0.00    +0.083 A 
ATOM      5  C   UNL     1       3.575  -0.217  -4.648  0.00  0.00    +0.083 A 
ATOM      6  C   UNL     1       2.882   0.267  -3.455  0.00  0.00    +0.262 A 
ATOM      7  O   UNL     1       2.352   1.364  -3.446  0.00  0.00    -0.267 OA
ATOM      8  C   UNL     1       3.665   0.548  -5.827  0.00  0.00    +0.128 A 
ATOM      9  N   UNL     1       4.297   0.061  -6.869  0.00  0.00    -0.235 NA
ATOM     10  C   UNL     1       4.865  -1.153  -6.849  0.00  0.00    +0.164 A 
ATOM     11  N   UNL     1       4.813  -1.950  -5.734  0.00  0.00    -0.213 N 
ATOM     12  N   UNL     1       5.488  -3.141  -6.021  0.00  0.00    -0.166 NA
ATOM     13  C   UNL     1       5.938  -3.096  -7.249  0.00  0.00    +0.099 A 
ATOM     14  C   UNL     1       5.577  -1.868  -7.819  0.00  0.00    +0.051 A 
ENDROOT
BRANCH  14  15
ATOM     15  C   UNL     1       5.889  -1.411  -9.193  0.00  0.00    -0.012 A 
ATOM     16  C   UNL     1       4.861  -1.193 -10.109  0.00  0.00    +0.010 A 
ATOM     17  C   UNL     1       5.158  -0.767 -11.387  0.00  0.00    +0.020 A 
ATOM     18  C   UNL     1       6.474  -0.557 -11.761  0.00  0.00    +0.041 A 
ATOM     19  C   UNL     1       7.499  -0.772 -10.856  0.00  0.00    +0.020 A 
ATOM     20  C   UNL     1       7.213  -1.192  -9.573  0.00  0.00    +0.010 A 
ATOM     21 CL   UNL     1       6.840  -0.021 -13.371  0.00  0.00    -0.084 Cl
ENDBRANCH  14  15
BRANCH   1  22
ATOM     22  C   UNL     1       2.159  -0.053  -1.157  0.00  0.00    +0.106 C 
BRANCH  22  23
ATOM     23  C   UNL     1       0.690  -0.478  -1.207  0.00  0.00    -0.058 C 
BRANCH  23  25
ATOM     24  C   UNL     1      -0.018   1.465   0.010  0.00  0.00    -0.097 C 
ATOM     25  N   UNL     1       0.002  -0.004   0.002  0.00  0.00    +0.377 N 
ATOM     26  C   UNL     1      -1.376  -0.512   0.012  0.00  0.00    -0.097 C 
ATOM     27  H   UNL     1       0.490  -0.338   0.820  0.00  0.00    -0.083 HD
ENDBRANCH  23  25
ENDBRANCH  22  23
ENDBRANCH   1  22
BRANCH  13  28
ATOM     28  C   UNL     1       6.720  -4.185  -7.937  0.00  0.00    +0.217 C 
BRANCH  28  29
ATOM     29  O   UNL     1       5.818  -5.075  -8.597  0.00  0.00    -0.377 OA
ATOM     30  C   UNL     1       6.461  -6.151  -9.284  0.00  0.00    +0.194 C 
ENDBRANCH  28  29
ENDBRANCH  13  28
TORSDOF 6
