REMARK  Name = ZINC35641339
REMARK  14 active torsions:
REMARK  status: ('A' for Active; 'I' for Inactive)
REMARK    1  A    between atoms: C_1  and  C_2
REMARK    2  A    between atoms: C_2  and  N_3
REMARK    3  A    between atoms: C_4  and  C_25
REMARK    4  A    between atoms: C_5  and  C_20
REMARK    5  A    between atoms: C_6  and  C_11
REMARK    6  A    between atoms: C_14  and  C_17
REMARK    7  A    between atoms: C_17  and  C_18
REMARK    8  A    between atoms: C_17  and  C_19
REMARK    9  A    between atoms: C_20  and  O_22
REMARK   10  A    between atoms: O_22  and  C_23
REMARK   11  A    between atoms: C_23  and  C_24
REMARK   12  A    between atoms: C_25  and  N_26
REMARK   13  A    between atoms: N_29  and  C_32
REMARK   14  A    between atoms: C_32  and  C_33
REMARK                            x       y       z     vdW  Elec       q    Type
REMARK                         _______ _______ _______ _____ _____    ______ ____
ROOT
ATOM      1  N   UNL     1      -1.405  -0.448  -0.062  0.00  0.00    -0.258 N 
ATOM      2  C   UNL     1      -1.963  -0.591   1.176  0.00  0.00    +0.041 C 
ATOM      3  C   UNL     1      -3.195  -1.122   1.329  0.00  0.00    +0.080 C 
ATOM      4  C   UNL     1      -3.937  -1.553   0.080  0.00  0.00    +0.144 C 
ATOM      5  N   UNL     1      -3.248  -1.355  -1.207  0.00  0.00    -0.288 N 
ATOM      6  C   UNL     1      -2.017  -0.806  -1.198  0.00  0.00    +0.307 C 
ATOM      7  O   UNL     1      -1.442  -0.635  -2.255  0.00  0.00    -0.252 OA
ATOM      8  H   UNL     1      -3.672  -1.611  -2.041  0.00  0.00    +0.151 HD
ENDROOT
BRANCH   4   9
ATOM      9  C   UNL     1      -5.239  -0.797   0.029  0.00  0.00    -0.022 A 
ATOM     10  C   UNL     1      -5.265   0.507  -0.430  0.00  0.00    +0.006 A 
ATOM     11  C   UNL     1      -6.460   1.200  -0.476  0.00  0.00    +0.004 A 
ATOM     12  C   UNL     1      -7.629   0.590  -0.063  0.00  0.00    -0.045 A 
ATOM     13  C   UNL     1      -7.604  -0.714   0.395  0.00  0.00    +0.004 A 
ATOM     14  C   UNL     1      -6.410  -1.409   0.437  0.00  0.00    +0.006 A 
BRANCH  12  15
ATOM     15  C   UNL     1      -8.932   1.347  -0.112  0.00  0.00    +0.013 C 
ATOM     16  C   UNL     1      -9.913   0.614  -1.030  0.00  0.00    +0.012 C 
ATOM     17  C   UNL     1      -9.522   1.438   1.296  0.00  0.00    +0.012 C 
ENDBRANCH  12  15
ENDBRANCH   4   9
BRANCH   1  19
ATOM     18  C   UNL     1      -0.178   1.656  -0.288  0.00  0.00    +0.025 C 
ATOM     19  C   UNL     1      -0.065   0.136  -0.154  0.00  0.00    +0.111 C 
ENDBRANCH   1  19
BRANCH   3  20
ATOM     20  C   UNL     1      -3.773  -1.272   2.611  0.00  0.00    +0.339 C 
ATOM     21  O   UNL     1      -3.776  -2.361   3.154  0.00  0.00    -0.245 OA
BRANCH  20  22
ATOM     22  O   UNL     1      -4.321  -0.207   3.233  0.00  0.00    -0.462 OA
BRANCH  22  23
ATOM     23  C   UNL     1      -4.887  -0.431   4.526  0.00  0.00    +0.229 C 
ATOM     24  C   UNL     1      -5.455   0.882   5.068  0.00  0.00    +0.048 C 
ENDBRANCH  22  23
ENDBRANCH  20  22
ENDBRANCH   3  20
BRANCH   2  25
ATOM     25  C   UNL     1      -1.190  -0.150   2.393  0.00  0.00    +0.136 C 
BRANCH  25  26
ATOM     26  N   UNL     1      -0.014  -1.014   2.566  0.00  0.00    -0.300 NA
ATOM     27  C   UNL     1      -0.415  -2.390   2.893  0.00  0.00    +0.066 C 
ATOM     28  C   UNL     1       0.833  -3.268   3.006  0.00  0.00    -0.063 C 
ATOM     29  N   UNL     1       1.714  -2.735   4.053  0.00  0.00    +0.384 N 
ATOM     30  C   UNL     1       2.126  -1.369   3.700  0.00  0.00    -0.063 C 
ATOM     31  C   UNL     1       0.889  -0.475   3.593  0.00  0.00    +0.066 C 
ATOM     32  H   UNL     1       1.220  -2.720   4.932  0.00  0.00    -0.081 HD
BRANCH  29  33
ATOM     33  C   UNL     1       2.904  -3.588   4.173  0.00  0.00    -0.043 C 
BRANCH  33  34
ATOM     34  C   UNL     1       3.748  -3.114   5.328  0.00  0.00    -0.064 A 
ATOM     35  C   UNL     1       4.729  -2.163   5.121  0.00  0.00    +0.002 A 
ATOM     36  C   UNL     1       5.504  -1.727   6.180  0.00  0.00    +0.000 A 
ATOM     37  C   UNL     1       5.296  -2.243   7.446  0.00  0.00    +0.000 A 
ATOM     38  C   UNL     1       4.314  -3.193   7.653  0.00  0.00    +0.000 A 
ATOM     39  C   UNL     1       3.537  -3.625   6.595  0.00  0.00    +0.002 A 
ENDBRANCH  33  34
ENDBRANCH  29  33
ENDBRANCH  25  26
ENDBRANCH   2  25
TORSDOF 10
