REMARK  Name = ZINC36579109
REMARK  12 active torsions:
REMARK  status: ('A' for Active; 'I' for Inactive)
REMARK    1  A    between atoms: C_1  and  C_2
REMARK    2  A    between atoms: C_2  and  C_3
REMARK    3  A    between atoms: C_2  and  C_4
REMARK    4  A    between atoms: C_2  and  N_5
REMARK    5  A    between atoms: N_5  and  C_6
REMARK    6  A    between atoms: C_6  and  C_8
REMARK    7  A    between atoms: C_6  and  C_15
REMARK    8  A    between atoms: C_12  and  O_14
REMARK    9  A    between atoms: N_17  and  C_18
REMARK   10  A    between atoms: C_24  and  C_26
REMARK   11  A    between atoms: C_26  and  C_34
REMARK   12  A    between atoms: C_27  and  C_28
REMARK                            x       y       z     vdW  Elec       q    Type
REMARK                         _______ _______ _______ _____ _____    ______ ____
ROOT
ATOM      1  N   UNL     1       0.428   0.822  -0.928  0.00  0.00    -0.277 N 
ATOM      2  C   UNL     1       0.163  -0.472  -1.196  0.00  0.00    +0.248 C 
ATOM      3  O   UNL     1       0.814  -1.065  -2.036  0.00  0.00    -0.270 OA
ENDROOT
BRANCH   1   5
ATOM      4  C   UNL     1       0.241   2.929   0.299  0.00  0.00    +0.031 C 
ATOM      5  C   UNL     1      -0.348   1.532   0.091  0.00  0.00    +0.030 C 
ATOM      6  C   UNL     1      -0.294   0.755   1.408  0.00  0.00    +0.031 C 
ATOM      7  C   UNL     1      -1.802   1.656  -0.369  0.00  0.00    +0.031 C 
ENDBRANCH   1   5
BRANCH   2   8
ATOM      8  C   UNL     1      -0.913  -1.168  -0.473  0.00  0.00    +0.045 C 
ATOM      9  C   UNL     1      -0.639  -1.829   0.683  0.00  0.00    +0.021 C 
BRANCH   9  10
ATOM     10  C   UNL     1       0.748  -2.177   1.020  0.00  0.00    -0.024 A 
ATOM     11  C   UNL     1       1.170  -2.175   2.354  0.00  0.00    +0.008 A 
ATOM     12  C   UNL     1       2.473  -2.503   2.661  0.00  0.00    +0.001 A 
ATOM     13  C   UNL     1       3.364  -2.833   1.654  0.00  0.00    +0.000 A 
ATOM     14  C   UNL     1       2.954  -2.837   0.331  0.00  0.00    +0.001 A 
ATOM     15  C   UNL     1       1.653  -2.517   0.008  0.00  0.00    +0.008 A 
ENDBRANCH   9  10
BRANCH   8  16
ATOM     16  C   UNL     1      -2.295  -1.148  -1.005  0.00  0.00    -0.013 A 
ATOM     17  C   UNL     1      -2.525  -1.351  -2.366  0.00  0.00    +0.008 A 
ATOM     18  C   UNL     1      -3.815  -1.332  -2.855  0.00  0.00    +0.001 A 
ATOM     19  C   UNL     1      -4.879  -1.111  -2.000  0.00  0.00    +0.000 A 
ATOM     20  C   UNL     1      -4.658  -0.909  -0.649  0.00  0.00    +0.001 A 
ATOM     21  C   UNL     1      -3.373  -0.932  -0.146  0.00  0.00    +0.008 A 
ENDBRANCH   8  16
ENDBRANCH   2   8
BRANCH   1  22
ATOM     22  C   UNL     1       1.493   1.517  -1.655  0.00  0.00    +0.193 C 
BRANCH  22  23
ATOM     23  C   UNL     1       2.822   0.891  -1.320  0.00  0.00    -0.015 A 
ATOM     24  C   UNL     1       3.158  -0.342  -1.849  0.00  0.00    +0.006 A 
ATOM     25  C   UNL     1       4.377  -0.919  -1.544  0.00  0.00    +0.004 A 
ATOM     26  C   UNL     1       5.262  -0.265  -0.708  0.00  0.00    +0.045 A 
ATOM     27  C   UNL     1       4.928   0.971  -0.176  0.00  0.00    +0.117 A 
ATOM     28  C   UNL     1       3.707   1.551  -0.489  0.00  0.00    +0.051 A 
BRANCH  27  29
ATOM     29  O   UNL     1       5.797   1.616   0.646  0.00  0.00    -0.507 OA
ATOM     30  H   UNL     1       6.413   2.202   0.185  0.00  0.00    +0.292 HD
ENDBRANCH  27  29
ENDBRANCH  22  23
BRANCH  22  31
ATOM     31  C   UNL     1       1.245   1.406  -3.137  0.00  0.00    +0.238 C 
ATOM     32  O   UNL     1       0.244   0.855  -3.545  0.00  0.00    -0.273 OA
ATOM     33  N   UNL     1       2.134   1.919  -4.010  0.00  0.00    -0.311 N 
ATOM     34  H   UNL     1       2.935   2.360  -3.684  0.00  0.00    +0.149 HD
BRANCH  33  35
ATOM     35  C   UNL     1       1.893   1.812  -5.451  0.00  0.00    +0.073 C 
ATOM     36  C   UNL     1       2.402   0.459  -5.953  0.00  0.00    +0.022 C 
ATOM     37  C   UNL     1       2.149   0.346  -7.458  0.00  0.00    +0.002 C 
ATOM     38  C   UNL     1       2.889   1.471  -8.185  0.00  0.00    +0.000 C 
ATOM     39  C   UNL     1       2.380   2.824  -7.682  0.00  0.00    +0.002 C 
ATOM     40  C   UNL     1       2.632   2.937  -6.177  0.00  0.00    +0.022 C 
ENDBRANCH  33  35
ENDBRANCH  22  31
ENDBRANCH   1  22
TORSDOF 9
