REMARK  Name = ZINC38905476
REMARK  9 active torsions:
REMARK  status: ('A' for Active; 'I' for Inactive)
REMARK    1  A    between atoms: C_1  and  C_2
REMARK    2  A    between atoms: C_5  and  C_34
REMARK    3  A    between atoms: C_6  and  C_8
REMARK    4  A    between atoms: C_8  and  C_10
REMARK    5  A    between atoms: C_8  and  N_11
REMARK    6  A    between atoms: C_12  and  C_14
REMARK    7  A    between atoms: N_19  and  C_21
REMARK    8  A    between atoms: C_21  and  C_22
REMARK    9  A    between atoms: C_24  and  C_27
REMARK                            x       y       z     vdW  Elec       q    Type
REMARK                         _______ _______ _______ _____ _____    ______ ____
ROOT
ATOM      1  C   UNL     1      -1.695  -1.750   5.713  0.00  0.00    +0.058 C 
ATOM      2  C   UNL     1      -0.621  -0.830   6.301  0.00  0.00    +0.009 C 
ATOM      3  C   UNL     1      -1.228  -0.027   7.455  0.00  0.00    -0.018 C 
ATOM      4  C   UNL     1      -1.796  -0.992   8.497  0.00  0.00    -0.078 C 
ATOM      5  N   UNL     1      -2.835  -1.826   7.881  0.00  0.00    +0.386 N 
ATOM      6  C   UNL     1      -2.248  -2.652   6.819  0.00  0.00    -0.065 C 
ATOM      7  H   UNL     1      -3.551  -1.234   7.487  0.00  0.00    -0.081 HD
ENDROOT
BRANCH   1   9
ATOM      8  N   UNL     1      -0.535  -2.018   3.545  0.00  0.00    -0.309 N 
ATOM      9  C   UNL     1      -1.089  -2.601   4.627  0.00  0.00    +0.215 C 
ATOM     10  O   UNL     1      -1.099  -3.809   4.726  0.00  0.00    -0.276 OA
ATOM     11  H   UNL     1      -0.527  -1.051   3.466  0.00  0.00    +0.149 HD
BRANCH   8  12
ATOM     12  C   UNL     1       0.054  -2.845   2.489  0.00  0.00    +0.100 C 
ATOM     13  C   UNL     1       1.497  -3.192   2.858  0.00  0.00    +0.033 C 
BRANCH  12  19
ATOM     14  C   UNL     1      -0.018   1.503   0.010  0.00  0.00    +0.044 C 
ATOM     15  C   UNL     1       0.002  -0.004   0.002  0.00  0.00    -0.050 A 
ATOM     16  C   UNL     1       0.006  -0.689  -1.199  0.00  0.00    +0.003 A 
ATOM     17  C   UNL     1       0.025  -2.071  -1.207  0.00  0.00    +0.004 A 
ATOM     18  C   UNL     1       0.040  -2.768  -0.013  0.00  0.00    -0.046 A 
ATOM     19  C   UNL     1       0.037  -2.084   1.188  0.00  0.00    -0.024 A 
ATOM     20  C   UNL     1       0.023  -0.702   1.195  0.00  0.00    +0.009 A 
ATOM     21  C   UNL     1       0.059  -4.275  -0.021  0.00  0.00    +0.044 C 
ENDBRANCH  12  19
ENDBRANCH   8  12
ENDBRANCH   1   9
BRANCH   5  22
ATOM     22  C   UNL     1      -3.432  -2.697   8.902  0.00  0.00    +0.022 C 
BRANCH  22  23
ATOM     23  C   UNL     1      -4.151  -1.853   9.924  0.00  0.00    +0.211 A 
ATOM     24  N   UNL     1      -5.402  -1.494   9.870  0.00  0.00    -0.193 NA
ATOM     25  C   UNL     1      -5.713  -0.747  10.944  0.00  0.00    +0.202 A 
ATOM     26  N   UNL     1      -4.646  -0.626  11.694  0.00  0.00    -0.056 NA
ATOM     27  O   UNL     1      -3.613  -1.350  11.042  0.00  0.00    -0.340 OA
BRANCH  25  28
ATOM     28  C   UNL     1      -7.044  -0.156  11.231  0.00  0.00    +0.023 A 
ATOM     29  C   UNL     1      -8.105  -0.363  10.352  0.00  0.00    +0.013 A 
ATOM     30  C   UNL     1      -9.341   0.188  10.624  0.00  0.00    +0.016 A 
ATOM     31  C   UNL     1      -9.527   0.946  11.767  0.00  0.00    +0.018 A 
ATOM     32  C   UNL     1      -8.476   1.155  12.643  0.00  0.00    +0.016 A 
ATOM     33  C   UNL     1      -7.238   0.602  12.384  0.00  0.00    +0.013 A 
ATOM     34 BR   UNL     1     -11.223   1.699  12.133  0.00  0.00    -0.050 Br
ENDBRANCH  25  28
ENDBRANCH  22  23
ENDBRANCH   5  22
TORSDOF 6
