REMARK  Name = ZINC39690765
REMARK  9 active torsions:
REMARK  status: ('A' for Active; 'I' for Inactive)
REMARK    1  A    between atoms: C_1  and  C_2
REMARK    2  A    between atoms: C_2  and  C_3
REMARK    3  A    between atoms: C_2  and  C_4
REMARK    4  A    between atoms: C_4  and  C_6
REMARK    5  A    between atoms: C_4  and  O_30
REMARK    6  A    between atoms: C_10  and  C_19
REMARK    7  A    between atoms: N_21  and  C_22
REMARK    8  A    between atoms: C_22  and  C_23
REMARK    9  A    between atoms: O_30  and  C_31
REMARK                            x       y       z     vdW  Elec       q    Type
REMARK                         _______ _______ _______ _____ _____    ______ ____
ROOT
ATOM      1  C   UNL     1      -1.288  -2.239  -0.488  0.00  0.00    +0.257 C 
ATOM      2  O   UNL     1      -1.680  -2.886  -1.437  0.00  0.00    -0.272 OA
ATOM      3  N   UNL     1      -0.612  -2.845   0.508  0.00  0.00    -0.297 N 
ATOM      4  C   UNL     1      -0.163  -2.255   1.791  0.00  0.00    +0.121 C 
ATOM      5  C   UNL     1      -0.402  -3.366   2.837  0.00  0.00    +0.100 C 
ATOM      6  C   UNL     1      -0.390  -4.675   2.029  0.00  0.00    -0.004 C 
ATOM      7  C   UNL     1      -0.155  -4.254   0.570  0.00  0.00    +0.115 C 
ATOM      8  C   UNL     1       0.740  -5.581   2.507  0.00  0.00    -0.010 C 
ATOM      9  C   UNL     1       0.695  -6.899   1.728  0.00  0.00    -0.082 C 
ATOM     10  N   UNL     1      -0.604  -7.550   1.939  0.00  0.00    +0.379 N 
ATOM     11  C   UNL     1      -1.678  -6.712   1.392  0.00  0.00    -0.082 C 
ATOM     12  C   UNL     1      -1.734  -5.387   2.157  0.00  0.00    -0.010 C 
ATOM     13  H   UNL     1      -0.608  -8.446   1.475  0.00  0.00    -0.086 HD
ATOM     14  H   UNL     1      -0.754  -7.685   2.927  0.00  0.00    -0.086 HD
ENDROOT
BRANCH   5  15
ATOM     15  C   UNL     1      -1.736  -3.175   3.510  0.00  0.00    +0.218 C 
ATOM     16  O   UNL     1      -2.654  -2.662   2.905  0.00  0.00    -0.275 OA
ATOM     17  N   UNL     1      -1.911  -3.574   4.786  0.00  0.00    -0.311 N 
ATOM     18  H   UNL     1      -1.177  -3.983   5.271  0.00  0.00    +0.149 HD
BRANCH  17  19
ATOM     19  C   UNL     1      -3.208  -3.387   5.441  0.00  0.00    +0.140 C 
BRANCH  19  20
ATOM     20  C   UNL     1      -3.138  -3.913   6.852  0.00  0.00    -0.016 A 
ATOM     21  C   UNL     1      -3.643  -5.165   7.149  0.00  0.00    +0.006 A 
ATOM     22  C   UNL     1      -3.579  -5.647   8.442  0.00  0.00    +0.000 A 
ATOM     23  C   UNL     1      -3.010  -4.878   9.440  0.00  0.00    +0.001 A 
ATOM     24  C   UNL     1      -2.505  -3.626   9.144  0.00  0.00    +0.015 A 
ATOM     25  C   UNL     1      -2.564  -3.145   7.848  0.00  0.00    +0.023 A 
ATOM     26 BR   UNL     1      -1.866  -1.435   7.441  0.00  0.00    -0.050 Br
ENDBRANCH  19  20
ENDBRANCH  17  19
ENDBRANCH   5  15
BRANCH   1  27
ATOM     27  C   UNL     1      -1.558  -0.758  -0.424  0.00  0.00    +0.261 C 
BRANCH  27  29
ATOM     28  C   UNL     1      -3.213   0.983   0.263  0.00  0.00    +0.011 C 
ATOM     29  C   UNL     1      -2.974  -0.520   0.103  0.00  0.00    +0.033 C 
ATOM     30  C   UNL     1      -3.990  -1.095  -0.885  0.00  0.00    +0.011 C 
ENDBRANCH  27  29
BRANCH  27  31
ATOM     31  O   UNL     1      -0.613  -0.139   0.451  0.00  0.00    -0.479 OA
BRANCH  31  32
ATOM     32  C   UNL     1      -0.143   1.083   0.088  0.00  0.00    +0.122 A 
ATOM     33  C   UNL     1       0.834   1.707   0.850  0.00  0.00    +0.045 A 
ATOM     34  C   UNL     1       1.310   2.949   0.478  0.00  0.00    +0.004 A 
ATOM     35  C   UNL     1       0.813   3.571  -0.652  0.00  0.00    +0.000 A 
ATOM     36  C   UNL     1      -0.161   2.952  -1.414  0.00  0.00    +0.004 A 
ATOM     37  C   UNL     1      -0.636   1.707  -1.049  0.00  0.00    +0.045 A 
ENDBRANCH  31  32
ENDBRANCH  27  31
ENDBRANCH   1  27
TORSDOF 7
