REMARK  Name = ZINC35685772
REMARK  6 active torsions:
REMARK  status: ('A' for Active; 'I' for Inactive)
REMARK    1  A    between atoms: C_1  and  C_2
REMARK    2  A    between atoms: C_2  and  N_3
REMARK    3  A    between atoms: C_14  and  S_16
REMARK    4  A    between atoms: S_16  and  N_19
REMARK    5  A    between atoms: N_19  and  C_20
REMARK    6  A    between atoms: C_25  and  O_26
REMARK                            x       y       z     vdW  Elec       q    Type
REMARK                         _______ _______ _______ _____ _____    ______ ____
ROOT
ATOM      1  N   UNL     1       0.763  -0.153  -1.598  0.00  0.00    -0.234 N 
ATOM      2  C   UNL     1       0.086  -0.370  -2.741  0.00  0.00    +0.254 C 
ATOM      3  O   UNL     1      -1.103  -0.117  -2.797  0.00  0.00    -0.270 OA
ATOM      4  C   UNL     1       0.774  -0.910  -3.923  0.00  0.00    +0.046 A 
ATOM      5  C   UNL     1       0.115  -1.149  -5.120  0.00  0.00    +0.014 A 
ATOM      6  C   UNL     1       0.809  -1.661  -6.209  0.00  0.00    +0.001 A 
ATOM      7  C   UNL     1       2.143  -1.943  -6.139  0.00  0.00    +0.008 A 
ATOM      8  C   UNL     1       2.848  -1.716  -4.944  0.00  0.00    -0.015 A 
ATOM      9  C   UNL     1       2.155  -1.196  -3.832  0.00  0.00    +0.006 A 
ATOM     10  C   UNL     1       2.836  -0.957  -2.616  0.00  0.00    +0.048 A 
ATOM     11  C   UNL     1       4.191  -1.240  -2.537  0.00  0.00    +0.042 A 
ATOM     12  C   UNL     1       4.864  -1.751  -3.641  0.00  0.00    +0.110 A 
ATOM     13  C   UNL     1       4.222  -1.991  -4.822  0.00  0.00    +0.037 A 
ATOM     14  C   UNL     1       2.080  -0.409  -1.480  0.00  0.00    +0.254 C 
ATOM     15  O   UNL     1       2.646  -0.192  -0.426  0.00  0.00    -0.270 OA
ENDROOT
BRANCH  12  16
ATOM     16  S   UNL     1       6.586  -2.102  -3.512  0.00  0.00    +0.072 S 
ATOM     17  O   UNL     1       7.109  -2.057  -4.832  0.00  0.00    -0.150 OA
ATOM     18  O   UNL     1       7.089  -1.284  -2.464  0.00  0.00    -0.150 OA
BRANCH  16  19
ATOM     19  N   UNL     1       6.729  -3.670  -2.999  0.00  0.00    -0.213 N 
ATOM     20  H   UNL     1       7.177  -3.867  -2.162  0.00  0.00    +0.174 HD
BRANCH  19  21
ATOM     21  C   UNL     1       6.204  -4.710  -3.774  0.00  0.00    +0.089 A 
ATOM     22  C   UNL     1       6.242  -4.634  -5.159  0.00  0.00    +0.028 A 
ATOM     23  C   UNL     1       5.724  -5.663  -5.922  0.00  0.00    +0.002 A 
ATOM     24  C   UNL     1       5.166  -6.769  -5.309  0.00  0.00    +0.004 A 
ATOM     25  C   UNL     1       5.125  -6.853  -3.929  0.00  0.00    +0.047 A 
ATOM     26  C   UNL     1       5.647  -5.829  -3.157  0.00  0.00    +0.139 A 
BRANCH  26  27
ATOM     27  O   UNL     1       5.612  -5.912  -1.800  0.00  0.00    -0.505 OA
ATOM     28  H   UNL     1       4.811  -5.540  -1.404  0.00  0.00    +0.292 HD
ENDBRANCH  26  27
ENDBRANCH  19  21
ENDBRANCH  16  19
ENDBRANCH  12  16
BRANCH   1  30
ATOM     29  C   UNL     1       0.093   1.916  -0.480  0.00  0.00    +0.025 C 
ATOM     30  C   UNL     1       0.043   0.387  -0.443  0.00  0.00    +0.113 C 
ENDBRANCH   1  30
TORSDOF 5
