REMARK  Name = ZINC08493465
REMARK  7 active torsions:
REMARK  status: ('A' for Active; 'I' for Inactive)
REMARK    1  A    between atoms: C_1  and  C_2
REMARK    2  A    between atoms: C_5  and  C_8
REMARK    3  A    between atoms: C_14  and  C_15
REMARK    4  A    between atoms: C_18  and  O_21
REMARK    5  A    between atoms: O_21  and  S_22
REMARK    6  A    between atoms: S_22  and  C_25
REMARK    7  A    between atoms: C_28  and  C_31
REMARK                            x       y       z     vdW  Elec       q    Type
REMARK                         _______ _______ _______ _____ _____    ______ ____
ROOT
ATOM      1  C   UNL     1      -1.700  -5.252  -0.536  0.00  0.00    +0.130 C 
ATOM      2  N   UNL     1      -1.026  -5.696   0.497  0.00  0.00    -0.164 NA
ATOM      3  N   UNL     1      -0.953  -7.045   0.772  0.00  0.00    -0.152 N 
ATOM      4  C   UNL     1      -0.337  -7.624   1.902  0.00  0.00    +0.153 C 
ATOM      5  N   UNL     1      -0.132  -6.976   3.018  0.00  0.00    -0.283 NA
ATOM      6  C   UNL     1       0.055  -9.047   1.697  0.00  0.00    +0.081 C 
ATOM      7  C   UNL     1       1.171  -9.585   2.297  0.00  0.00    +0.024 C 
ATOM      8  C   UNL     1      -0.822  -9.853   0.812  0.00  0.00    +0.273 C 
ATOM      9  O   UNL     1      -0.881 -11.066   0.923  0.00  0.00    -0.268 OA
ATOM     10  N   UNL     1      -1.551  -9.205  -0.118  0.00  0.00    -0.152 NA
ATOM     11  C   UNL     1      -1.562  -7.896  -0.127  0.00  0.00    +0.181 C 
ATOM     12  S   UNL     1      -2.323  -6.763  -1.260  0.00  0.00    -0.033 S 
ATOM     13  H   UNL     1      -0.408  -6.050   3.099  0.00  0.00    +0.188 HD
ENDROOT
BRANCH   1  18
ATOM     14  C   UNL     1      -2.479   0.178  -2.280  0.00  0.00    +0.044 C 
ATOM     15  C   UNL     1      -2.275  -1.244  -1.823  0.00  0.00    -0.050 A 
ATOM     16  C   UNL     1      -2.849  -2.284  -2.532  0.00  0.00    +0.004 A 
ATOM     17  C   UNL     1      -2.666  -3.588  -2.119  0.00  0.00    +0.011 A 
ATOM     18  C   UNL     1      -1.900  -3.856  -0.984  0.00  0.00    +0.009 A 
ATOM     19  C   UNL     1      -1.324  -2.803  -0.274  0.00  0.00    +0.011 A 
ATOM     20  C   UNL     1      -1.510  -1.503  -0.700  0.00  0.00    +0.004 A 
ENDBRANCH   1  18
BRANCH   7  21
ATOM     21  C   UNL     1       1.628 -10.926   1.925  0.00  0.00    -0.024 A 
ATOM     22  C   UNL     1       1.532 -11.358   0.594  0.00  0.00    +0.011 A 
ATOM     23  C   UNL     1       1.960 -12.609   0.253  0.00  0.00    +0.049 A 
ATOM     24  C   UNL     1       2.491 -13.454   1.222  0.00  0.00    +0.157 A 
ATOM     25  C   UNL     1       2.589 -13.032   2.543  0.00  0.00    +0.049 A 
ATOM     26  C   UNL     1       2.170 -11.780   2.896  0.00  0.00    +0.011 A 
BRANCH  24  27
ATOM     27  O   UNL     1       2.914 -14.696   0.876  0.00  0.00    -0.342 OA
BRANCH  27  28
ATOM     28  S   UNL     1       4.378 -14.759   0.463  0.00  0.00    +0.151 S 
ATOM     29  O   UNL     1       4.597 -16.062  -0.059  0.00  0.00    -0.131 OA
ATOM     30  O   UNL     1       4.637 -13.583  -0.291  0.00  0.00    -0.131 OA
BRANCH  28  31
ATOM     31  C   UNL     1       5.340 -14.636   1.934  0.00  0.00    +0.128 A 
ATOM     32  C   UNL     1       5.732 -13.396   2.402  0.00  0.00    +0.031 A 
ATOM     33  C   UNL     1       6.488 -13.300   3.555  0.00  0.00    +0.005 A 
ATOM     34  C   UNL     1       6.850 -14.444   4.242  0.00  0.00    -0.050 A 
ATOM     35  C   UNL     1       6.458 -15.684   3.774  0.00  0.00    +0.005 A 
ATOM     36  C   UNL     1       5.699 -15.780   2.622  0.00  0.00    +0.031 A 
ATOM     37  C   UNL     1       7.675 -14.339   5.499  0.00  0.00    +0.044 C 
ENDBRANCH  28  31
ENDBRANCH  27  28
ENDBRANCH  24  27
ENDBRANCH   7  21
TORSDOF 5
