REMARK  Name = ZINC36235358
REMARK  6 active torsions:
REMARK  status: ('A' for Active; 'I' for Inactive)
REMARK    1  A    between atoms: C_4  and  C_7
REMARK    2  A    between atoms: N_9  and  C_10
REMARK    3  A    between atoms: C_10  and  C_21
REMARK    4  A    between atoms: C_11  and  C_12
REMARK    5  A    between atoms: N_23  and  N_24
REMARK    6  A    between atoms: C_25  and  C_26
REMARK                            x       y       z     vdW  Elec       q    Type
REMARK                         _______ _______ _______ _____ _____    ______ ____
ROOT
ATOM      1  C   UNL     1       4.888  -2.685  -0.080  0.00  0.00    +0.098 C 
ATOM      2  C   UNL     1       4.873  -4.036   0.017  0.00  0.00    +0.036 C 
ENDROOT
BRANCH   2   3
ATOM      3  C   UNL     1       6.113  -4.765   0.318  0.00  0.00    -0.019 A 
ATOM      4  C   UNL     1       7.100  -4.173   1.114  0.00  0.00    +0.012 A 
ATOM      5  C   UNL     1       8.261  -4.859   1.395  0.00  0.00    +0.050 A 
ATOM      6  C   UNL     1       8.457  -6.139   0.891  0.00  0.00    +0.166 A 
ATOM      7  C   UNL     1       7.477  -6.736   0.097  0.00  0.00    +0.167 A 
ATOM      8  C   UNL     1       6.308  -6.057  -0.185  0.00  0.00    +0.057 A 
ATOM      9  O   UNL     1       7.909  -7.979  -0.266  0.00  0.00    -0.453 OA
ATOM     10  C   UNL     1       9.329  -7.976  -0.029  0.00  0.00    +0.466 C 
ATOM     11  O   UNL     1       9.499  -7.009   1.024  0.00  0.00    -0.453 OA
ENDBRANCH   2   3
BRANCH   1  14
ATOM     12  C   UNL     1       3.710  -0.647  -0.424  0.00  0.00    +0.248 C 
ATOM     13  O   UNL     1       4.765  -0.044  -0.385  0.00  0.00    -0.270 OA
ATOM     14  N   UNL     1       3.689  -1.981  -0.227  0.00  0.00    -0.277 N 
ATOM     15  H   UNL     1       2.842  -2.452  -0.189  0.00  0.00    +0.155 HD
BRANCH  12  19
ATOM     16  C   UNL     1       0.092   1.446  -1.179  0.00  0.00    +0.000 A 
ATOM     17  C   UNL     1       1.291   2.135  -1.135  0.00  0.00    +0.001 A 
ATOM     18  C   UNL     1       2.469   1.462  -0.890  0.00  0.00    +0.013 A 
ATOM     19  C   UNL     1       2.451   0.081  -0.686  0.00  0.00    +0.037 A 
ATOM     20  C   UNL     1       1.238  -0.609  -0.732  0.00  0.00    +0.013 A 
ATOM     21  C   UNL     1       0.067   0.077  -0.978  0.00  0.00    +0.001 A 
ENDBRANCH  12  19
ENDBRANCH   1  14
BRANCH   1  22
ATOM     22  C   UNL     1       6.164  -1.960  -0.029  0.00  0.00    +0.277 C 
ATOM     23  O   UNL     1       6.428  -1.260   0.930  0.00  0.00    -0.267 OA
ATOM     24  N   UNL     1       7.042  -2.070  -1.046  0.00  0.00    -0.202 N 
ATOM     25  H   UNL     1       6.802  -2.569  -1.842  0.00  0.00    +0.178 HD
BRANCH  24  26
ATOM     26  N   UNL     1       8.301  -1.464  -0.952  0.00  0.00    -0.187 NA
ATOM     27  C   UNL     1       9.147  -1.569  -1.931  0.00  0.00    +0.138 C 
BRANCH  27  28
ATOM     28  C   UNL     1      10.473  -0.931  -1.832  0.00  0.00    -0.004 A 
ATOM     29  C   UNL     1      10.824  -0.217  -0.684  0.00  0.00    +0.011 A 
ATOM     30  C   UNL     1      12.065   0.377  -0.597  0.00  0.00    +0.022 A 
ATOM     31  C   UNL     1      12.964   0.268  -1.645  0.00  0.00    +0.059 A 
ATOM     32  C   UNL     1      12.623  -0.439  -2.787  0.00  0.00    +0.060 A 
ATOM     33  C   UNL     1      11.385  -1.044  -2.884  0.00  0.00    +0.031 A 
ATOM     34 CL   UNL     1      13.756  -0.571  -4.095  0.00  0.00    -0.082 Cl
ATOM     35 CL   UNL     1      14.524   1.020  -1.528  0.00  0.00    -0.082 Cl
ENDBRANCH  27  28
ENDBRANCH  24  26
ENDBRANCH   1  22
TORSDOF 6
