REMARK  Name = ZINC35373168
REMARK  7 active torsions:
REMARK  status: ('A' for Active; 'I' for Inactive)
REMARK    1  A    between atoms: C_1  and  C_2
REMARK    2  A    between atoms: C_3  and  C_12
REMARK    3  A    between atoms: N_6  and  C_11
REMARK    4  A    between atoms: N_9  and  C_10
REMARK    5  A    between atoms: C_17  and  C_22
REMARK    6  A    between atoms: N_30  and  C_35
REMARK    7  A    between atoms: N_33  and  C_34
REMARK                            x       y       z     vdW  Elec       q    Type
REMARK                         _______ _______ _______ _____ _____    ______ ____
ROOT
ATOM      1  C   UNL     1      -2.219  -0.339   0.404  0.00  0.00    +0.204 C 
ATOM      2  C   UNL     1      -2.776  -0.495   1.802  0.00  0.00    +0.078 A 
ATOM      3  C   UNL     1      -2.155  -0.316   2.962  0.00  0.00    +0.083 A 
ATOM      4  C   UNL     1      -3.152  -0.598   4.024  0.00  0.00    +0.089 A 
ATOM      5  C   UNL     1      -4.318  -0.931   3.385  0.00  0.00    +0.064 A 
ATOM      6  N   UNL     1      -4.085  -0.867   2.044  0.00  0.00    -0.337 N 
ATOM      7  C   UNL     1      -5.048  -1.141   0.968  0.00  0.00    +0.150 C 
ATOM      8  C   UNL     1      -4.493  -0.552  -0.335  0.00  0.00    +0.182 C 
ATOM      9  O   UNL     1      -3.134  -0.960  -0.508  0.00  0.00    -0.364 OA
ATOM     10  C   UNL     1      -2.751  -0.482   5.431  0.00  0.00    +0.266 A 
ATOM     11  O   UNL     1      -3.521  -0.700   6.346  0.00  0.00    -0.267 OA
ATOM     12  N   UNL     1      -1.460  -0.114   5.639  0.00  0.00    -0.263 N 
ATOM     13  C   UNL     1      -0.589   0.133   4.657  0.00  0.00    +0.332 A 
ATOM     14  O   UNL     1       0.538   0.454   4.980  0.00  0.00    -0.246 OA
ATOM     15  N   UNL     1      -0.855   0.055   3.334  0.00  0.00    -0.294 N 
ATOM     16  C   UNL     1       0.172   0.345   2.330  0.00  0.00    +0.154 C 
ATOM     17  C   UNL     1      -0.996   0.020   7.022  0.00  0.00    +0.157 C 
ENDROOT
BRANCH   1  20
ATOM     18  C   UNL     1       0.025   1.045  -0.733  0.00  0.00    +0.064 C 
ATOM     19  C   UNL     1       0.183  -0.363  -0.220  0.00  0.00    +0.031 A 
ATOM     20  C   UNL     1      -0.873  -1.013   0.314  0.00  0.00    +0.071 A 
ATOM     21  C   UNL     1      -0.700  -2.336   0.789  0.00  0.00    +0.263 A 
ATOM     22  O   UNL     1      -1.638  -2.942   1.274  0.00  0.00    -0.267 OA
ATOM     23  N   UNL     1       0.513  -2.917   0.698  0.00  0.00    -0.264 N 
ATOM     24  C   UNL     1       1.549  -2.247   0.161  0.00  0.00    +0.332 A 
ATOM     25  O   UNL     1       2.636  -2.784   0.086  0.00  0.00    -0.246 OA
ATOM     26  N   UNL     1       1.396  -0.991  -0.298  0.00  0.00    -0.300 N 
ATOM     27  C   UNL     1       2.540  -0.288  -0.883  0.00  0.00    +0.153 C 
ATOM     28  C   UNL     1       0.704  -4.285   1.187  0.00  0.00    +0.157 C 
ENDBRANCH   1  20
BRANCH   5  29
ATOM     29  C   UNL     1      -5.595  -1.293   4.032  0.00  0.00    -0.001 A 
ATOM     30  C   UNL     1      -6.796  -0.752   3.566  0.00  0.00    +0.010 A 
ATOM     31  C   UNL     1      -7.985  -1.095   4.175  0.00  0.00    +0.001 A 
ATOM     32  C   UNL     1      -7.990  -1.972   5.246  0.00  0.00    +0.000 A 
ATOM     33  C   UNL     1      -6.804  -2.512   5.712  0.00  0.00    +0.001 A 
ATOM     34  C   UNL     1      -5.608  -2.183   5.109  0.00  0.00    +0.010 A 
ENDBRANCH   5  29
TORSDOF 2
