REMARK  Name = ZINC26784152
REMARK  4 active torsions:
REMARK  status: ('A' for Active; 'I' for Inactive)
REMARK    1  A    between atoms: C_8  and  C_12
REMARK    2  A    between atoms: C_12  and  N_13
REMARK    3  A    between atoms: C_14  and  C_16
REMARK    4  A    between atoms: C_19  and  N_22
REMARK                            x       y       z     vdW  Elec       q    Type
REMARK                         _______ _______ _______ _____ _____    ______ ____
ROOT
ATOM      1  N   UNL     1       6.034   3.006  -0.682  0.00  0.00    -0.311 N 
ATOM      2  C   UNL     1       7.303   3.441  -0.547  0.00  0.00    +0.244 C 
ATOM      3  O   UNL     1       7.527   4.500   0.005  0.00  0.00    -0.270 OA
ATOM      4  H   UNL     1       5.832   2.047  -1.181  0.00  0.00    +0.149 HD
ENDROOT
BRANCH   2   5
ATOM      5  C   UNL     1       8.422   2.628  -1.069  0.00  0.00    +0.037 A 
ATOM      6  C   UNL     1       8.169   1.408  -1.698  0.00  0.00    +0.015 A 
ATOM      7  C   UNL     1       9.218   0.657  -2.188  0.00  0.00    +0.033 A 
ATOM      8  C   UNL     1      10.519   1.106  -2.048  0.00  0.00    +0.126 A 
ATOM      9  C   UNL     1      10.777   2.312  -1.421  0.00  0.00    +0.033 A 
ATOM     10  C   UNL     1       9.737   3.075  -0.931  0.00  0.00    +0.015 A 
BRANCH   8  11
ATOM     11  N   UNL     1      11.639   0.293  -2.571  0.00  0.00    +0.056 N 
ATOM     12  O   UNL     1      12.786   0.686  -2.450  0.00  0.00    -0.126 OA
ATOM     13  O   UNL     1      11.415  -0.769  -3.124  0.00  0.00    -0.126 OA
ENDBRANCH   8  11
ENDBRANCH   2   5
BRANCH   1  14
ATOM     14  C   UNL     1       4.925   3.811  -0.164  0.00  0.00    +0.111 C 
BRANCH  14  22
ATOM     15  C   UNL     1      -1.238   3.130   0.030  0.00  0.00    +0.000 A 
ATOM     16  C   UNL     1      -1.218   1.747   0.017  0.00  0.00    +0.004 A 
ATOM     17  C   UNL     1      -0.013   1.076   0.008  0.00  0.00    +0.046 A 
ATOM     18  C   UNL     1       1.184   1.786   0.000  0.00  0.00    +0.124 A 
ATOM     19  C   UNL     1       1.161   3.169   0.009  0.00  0.00    -0.005 A 
ATOM     20  C   UNL     1      -0.052   3.837   0.022  0.00  0.00    +0.007 A 
ATOM     21  C   UNL     1       2.434   3.977   0.007  0.00  0.00    +0.047 C 
ATOM     22  C   UNL     1       3.602   3.096  -0.445  0.00  0.00    +0.048 C 
ATOM     23  C   UNL     1       3.547   1.781   0.342  0.00  0.00    +0.234 C 
ATOM     24  O   UNL     1       2.350   1.089  -0.019  0.00  0.00    -0.491 OA
ENDBRANCH  14  22
ENDBRANCH   1  14
TORSDOF 4
