REMARK  Name = ZINC14697667
REMARK  9 active torsions:
REMARK  status: ('A' for Active; 'I' for Inactive)
REMARK    1  A    between atoms: C_4  and  C_7
REMARK    2  A    between atoms: C_7  and  N_8
REMARK    3  A    between atoms: C_9  and  N_39
REMARK    4  A    between atoms: C_10  and  N_17
REMARK    5  A    between atoms: N_17  and  C_18
REMARK    6  A    between atoms: C_18  and  C_19
REMARK    7  A    between atoms: C_19  and  C_20
REMARK    8  A    between atoms: C_26  and  C_28
REMARK    9  A    between atoms: C_28  and  C_29
REMARK                            x       y       z     vdW  Elec       q    Type
REMARK                         _______ _______ _______ _____ _____    ______ ____
ROOT
ATOM      1  N   UNL     1       0.788   1.546   0.125  0.00  0.00    -0.276 N 
ATOM      2  C   UNL     1       0.766   0.215   0.472  0.00  0.00    +0.128 A 
ATOM      3  C   UNL     1       1.158  -0.729  -0.454  0.00  0.00    +0.140 A 
ATOM      4  C   UNL     1       1.571  -0.299  -1.729  0.00  0.00    +0.277 A 
ATOM      5  O   UNL     1       1.924  -1.113  -2.567  0.00  0.00    -0.266 OA
ATOM      6  N   UNL     1       1.574   1.017  -2.018  0.00  0.00    -0.273 N 
ATOM      7  H   UNL     1       1.867   1.323  -2.924  0.00  0.00    +0.173 HD
ATOM      8  C   UNL     1       1.188   1.923  -1.103  0.00  0.00    +0.331 A 
ATOM      9  O   UNL     1       1.201   3.104  -1.390  0.00  0.00    -0.246 OA
ENDROOT
BRANCH   3  10
ATOM     10  N   UNL     1       1.147  -2.102  -0.128  0.00  0.00    -0.264 N 
ATOM     11  C   UNL     1       2.306  -2.789  -0.061  0.00  0.00    +0.220 C 
ATOM     12  O   UNL     1       3.364  -2.209  -0.191  0.00  0.00    -0.275 OA
BRANCH  10  13
ATOM     13  C   UNL     1      -0.123  -2.781   0.137  0.00  0.00    +0.118 C 
BRANCH  13  14
ATOM     14  C   UNL     1      -0.698  -3.319  -1.175  0.00  0.00    +0.050 C 
BRANCH  14  15
ATOM     15  C   UNL     1      -2.005  -4.018  -0.902  0.00  0.00    -0.072 C 
ATOM     16  C   UNL     1      -3.098  -3.339  -1.047  0.00  0.00    -0.028 C 
ATOM     17  C   UNL     1      -4.471  -3.894  -0.803  0.00  0.00    +0.027 C 
ATOM     18  C   UNL     1      -4.425  -5.424  -0.786  0.00  0.00    +0.004 C 
ATOM     19  C   UNL     1      -3.292  -5.865   0.149  0.00  0.00    +0.005 C 
ATOM     20  C   UNL     1      -1.959  -5.458  -0.485  0.00  0.00    +0.030 C 
ENDBRANCH  14  15
ENDBRANCH  13  14
ENDBRANCH  10  13
BRANCH  11  21
ATOM     21  C   UNL     1       2.288  -4.277   0.176  0.00  0.00    +0.100 C 
BRANCH  21  22
ATOM     22  C   UNL     1       3.723  -4.806   0.208  0.00  0.00    +0.001 C 
ATOM     23  C   UNL     1       4.473  -4.254   1.442  0.00  0.00    +0.007 C 
ATOM     24  C   UNL     1       4.861  -5.520   2.267  0.00  0.00    -0.010 C 
ATOM     25  C   UNL     1       3.506  -6.046   2.832  0.00  0.00    +0.004 C 
ATOM     26  C   UNL     1       2.756  -6.598   1.599  0.00  0.00    +0.004 C 
ATOM     27  C   UNL     1       3.727  -6.353   0.404  0.00  0.00    -0.007 C 
ATOM     28  C   UNL     1       5.114  -6.552   1.112  0.00  0.00    +0.007 C 
ENDBRANCH  21  22
ENDBRANCH  11  21
ENDBRANCH   3  10
BRANCH   2  29
ATOM     29  N   UNL     1       0.356  -0.169   1.726  0.00  0.00    -0.343 N 
ATOM     30  H   UNL     1       0.436  -1.097   2.000  0.00  0.00    +0.144 HD
ATOM     31  H   UNL     1      -0.012   0.487   2.339  0.00  0.00    +0.144 HD
ENDBRANCH   2  29
BRANCH   1  32
ATOM     32  C   UNL     1       0.374   2.560   1.099  0.00  0.00    +0.163 C 
BRANCH  32  36
ATOM     33  C   UNL     1       3.764   3.826   3.367  0.00  0.00    +0.000 A 
ATOM     34  C   UNL     1       3.432   4.481   2.196  0.00  0.00    +0.000 A 
ATOM     35  C   UNL     1       2.335   4.072   1.462  0.00  0.00    +0.005 A 
ATOM     36  C   UNL     1       1.570   3.006   1.899  0.00  0.00    -0.028 A 
ATOM     37  C   UNL     1       1.899   2.354   3.072  0.00  0.00    +0.005 A 
ATOM     38  C   UNL     1       2.999   2.761   3.804  0.00  0.00    +0.000 A 
ENDBRANCH  32  36
ENDBRANCH   1  32
TORSDOF 9
