REMARK  Name = ZINC40815150
REMARK  7 active torsions:
REMARK  status: ('A' for Active; 'I' for Inactive)
REMARK    1  A    between atoms: C_1  and  C_2
REMARK    2  A    between atoms: C_5  and  S_8
REMARK    3  A    between atoms: S_8  and  N_11
REMARK    4  A    between atoms: N_11  and  N_12
REMARK    5  A    between atoms: C_19  and  C_37
REMARK    6  A    between atoms: C_20  and  C_22
REMARK    7  A    between atoms: N_27  and  C_30
REMARK                            x       y       z     vdW  Elec       q    Type
REMARK                         _______ _______ _______ _____ _____    ______ ____
ROOT
ATOM      1  N   UNL     1       2.695  -4.281   0.731  0.00  0.00    -0.170 NA
ATOM      2  C   UNL     1       3.826  -4.889   0.911  0.00  0.00    +0.071 C 
ATOM      3  C   UNL     1       4.351  -5.939  -0.057  0.00  0.00    +0.058 C 
ATOM      4  C   UNL     1       4.938  -7.095   0.761  0.00  0.00    +0.014 C 
ATOM      5  C   UNL     1       6.152  -6.625   1.566  0.00  0.00    +0.075 C 
ATOM      6  C   UNL     1       5.776  -5.412   2.378  0.00  0.00    +0.115 A 
ATOM      7  C   UNL     1       4.703  -4.608   2.071  0.00  0.00    +0.042 A 
ATOM      8  C   UNL     1       4.655  -3.585   3.024  0.00  0.00    +0.009 A 
ATOM      9  C   UNL     1       5.708  -3.801   3.870  0.00  0.00    +0.193 A 
ATOM     10  O   UNL     1       6.365  -4.914   3.463  0.00  0.00    -0.454 OA
ATOM     11  C   UNL     1       3.647  -2.468   3.103  0.00  0.00    +0.048 C 
ENDROOT
BRANCH   9  12
ATOM     12  C   UNL     1       6.058  -2.974   5.031  0.00  0.00    +0.282 C 
ATOM     13  O   UNL     1       5.305  -2.092   5.399  0.00  0.00    -0.267 OA
ATOM     14  N   UNL     1       7.214  -3.192   5.689  0.00  0.00    -0.292 N 
ATOM     15  C   UNL     1       8.211  -4.132   5.159  0.00  0.00    +0.127 C 
ATOM     16  C   UNL     1       9.551  -3.399   5.019  0.00  0.00    +0.124 C 
ATOM     17  N   UNL     1       9.837  -2.700   6.280  0.00  0.00    -0.325 N 
ATOM     18  C   UNL     1       8.839  -1.760   6.811  0.00  0.00    +0.124 C 
ATOM     19  C   UNL     1       7.502  -2.489   6.947  0.00  0.00    +0.127 C 
BRANCH  17  20
ATOM     20  C   UNL     1      11.036  -2.926   6.963  0.00  0.00    +0.065 A 
ATOM     21  C   UNL     1      12.148  -2.140   6.694  0.00  0.00    +0.026 A 
ATOM     22  C   UNL     1      13.332  -2.365   7.371  0.00  0.00    +0.002 A 
ATOM     23  C   UNL     1      13.410  -3.372   8.315  0.00  0.00    +0.003 A 
ATOM     24  C   UNL     1      12.305  -4.158   8.587  0.00  0.00    +0.040 A 
ATOM     25  C   UNL     1      11.115  -3.934   7.918  0.00  0.00    +0.144 A 
ATOM     26  F   UNL     1      10.034  -4.697   8.187  0.00  0.00    -0.204 F 
ENDBRANCH  17  20
ENDBRANCH   9  12
BRANCH   1  27
ATOM     27  N   UNL     1       1.905  -4.587  -0.385  0.00  0.00    -0.136 N 
ATOM     28  H   UNL     1       2.204  -5.254  -1.023  0.00  0.00    +0.197 HD
BRANCH  27  29
ATOM     29  S   UNL     1       0.460  -3.810  -0.615  0.00  0.00    +0.086 S 
ATOM     30  O   UNL     1      -0.288  -3.983   0.581  0.00  0.00    -0.149 OA
ATOM     31  O   UNL     1      -0.026  -4.224  -1.884  0.00  0.00    -0.149 OA
BRANCH  29  36
ATOM     32  C   UNL     1       1.654   2.087  -1.065  0.00  0.00    +0.044 C 
ATOM     33  C   UNL     1       1.356   0.614  -0.953  0.00  0.00    -0.050 A 
ATOM     34  C   UNL     1       1.347  -0.178  -2.086  0.00  0.00    +0.005 A 
ATOM     35  C   UNL     1       1.073  -1.529  -1.983  0.00  0.00    +0.029 A 
ATOM     36  C   UNL     1       0.810  -2.088  -0.746  0.00  0.00    +0.110 A 
ATOM     37  C   UNL     1       0.821  -1.297   0.387  0.00  0.00    +0.029 A 
ATOM     38  C   UNL     1       1.098   0.053   0.284  0.00  0.00    +0.005 A 
ENDBRANCH  29  36
ENDBRANCH  27  29
ENDBRANCH   1  27
TORSDOF 5
