REMARK  Name = ZINC39947217
REMARK  8 active torsions:
REMARK  status: ('A' for Active; 'I' for Inactive)
REMARK    1  A    between atoms: C_1  and  C_2
REMARK    2  A    between atoms: C_2  and  C_4
REMARK    3  A    between atoms: C_2  and  S_19
REMARK    4  A    between atoms: N_9  and  C_12
REMARK    5  A    between atoms: C_12  and  C_13
REMARK    6  A    between atoms: S_19  and  C_20
REMARK    7  A    between atoms: C_24  and  C_29
REMARK    8  A    between atoms: N_25  and  C_26
REMARK                            x       y       z     vdW  Elec       q    Type
REMARK                         _______ _______ _______ _____ _____    ______ ____
ROOT
ATOM      1  C   UNL     1      -2.432  -0.097  -1.624  0.00  0.00    +0.238 C 
ATOM      2  N   UNL     1      -2.470   1.358  -1.845  0.00  0.00    -0.237 N 
ATOM      3  N   UNL     1      -1.526   1.635  -2.840  0.00  0.00    -0.169 NA
ATOM      4  C   UNL     1      -0.929   0.545  -3.244  0.00  0.00    +0.147 C 
ATOM      5  N   UNL     1      -1.409  -0.582  -2.565  0.00  0.00    -0.282 N 
ATOM      6  H   UNL     1      -3.039   1.999  -1.390  0.00  0.00    +0.171 HD
ENDROOT
BRANCH   4   7
ATOM      7  C   UNL     1       0.065   0.507  -4.234  0.00  0.00    +0.022 C 
ATOM      8  C   UNL     1       0.656   1.595  -4.878  0.00  0.00    +0.006 A 
ATOM      9  C   UNL     1       0.470   2.989  -4.759  0.00  0.00    +0.010 A 
ATOM     10  C   UNL     1       1.201   3.834  -5.530  0.00  0.00    +0.001 A 
ATOM     11  C   UNL     1       2.142   3.359  -6.446  0.00  0.00    +0.002 A 
ATOM     12  C   UNL     1       2.373   2.033  -6.612  0.00  0.00    +0.026 A 
ATOM     13  C   UNL     1       1.647   1.089  -5.841  0.00  0.00    +0.043 A 
ATOM     14  N   UNL     1       1.685  -0.229  -5.814  0.00  0.00    -0.380 N 
ATOM     15  C   UNL     1       0.725  -0.721  -4.822  0.00  0.00    +0.152 C 
ATOM     16  H   UNL     1       2.261  -0.785  -6.362  0.00  0.00    +0.160 HD
ENDBRANCH   4   7
BRANCH   5  17
ATOM     17  C   UNL     1      -0.978  -1.970  -2.752  0.00  0.00    +0.078 C 
ATOM     18  C   UNL     1      -1.715  -3.051  -1.958  0.00  0.00    +0.024 C 
ATOM     19  C   UNL     1      -0.286  -2.659  -1.574  0.00  0.00    +0.024 C 
ENDBRANCH   5  17
BRANCH   1  20
ATOM     20  S   UNL     1      -1.949  -0.467   0.085  0.00  0.00    -0.106 S 
BRANCH  20  22
ATOM     21  C   UNL     1      -0.541   1.877   0.163  0.00  0.00    +0.029 C 
ATOM     22  C   UNL     1      -0.348   0.363   0.278  0.00  0.00    +0.133 C 
BRANCH  22  23
ATOM     23  C   UNL     1       0.230   0.032   1.630  0.00  0.00    +0.228 C 
ATOM     24  O   UNL     1      -0.493  -0.372   2.516  0.00  0.00    -0.274 OA
ATOM     25  N   UNL     1       1.551   0.183   1.854  0.00  0.00    -0.298 N 
ATOM     26  C   UNL     1       2.444   0.677   0.795  0.00  0.00    +0.123 C 
ATOM     27  C   UNL     1       3.268   1.840   1.356  0.00  0.00    +0.103 C 
ATOM     28  N   UNL     1       3.943   1.409   2.587  0.00  0.00    -0.295 NA
ATOM     29  C   UNL     1       2.973   1.055   3.632  0.00  0.00    +0.103 C 
ATOM     30  C   UNL     1       2.135  -0.135   3.165  0.00  0.00    +0.123 C 
BRANCH  28  31
ATOM     31  C   UNL     1       4.878   2.437   3.064  0.00  0.00    +0.119 C 
BRANCH  31  32
ATOM     32  C   UNL     1       5.725   1.871   4.174  0.00  0.00    -0.033 A 
ATOM     33  C   UNL     1       5.301   1.970   5.486  0.00  0.00    +0.005 A 
ATOM     34  C   UNL     1       6.077   1.451   6.505  0.00  0.00    +0.000 A 
ATOM     35  C   UNL     1       7.278   0.832   6.211  0.00  0.00    +0.000 A 
ATOM     36  C   UNL     1       7.702   0.732   4.899  0.00  0.00    +0.000 A 
ATOM     37  C   UNL     1       6.923   1.248   3.880  0.00  0.00    +0.005 A 
ENDBRANCH  31  32
ENDBRANCH  28  31
ENDBRANCH  22  23
ENDBRANCH  20  22
ENDBRANCH   1  20
TORSDOF 7
