REMARK  Name = ZINC63314598
REMARK  10 active torsions:
REMARK  status: ('A' for Active; 'I' for Inactive)
REMARK    1  A    between atoms: C_1  and  O_2
REMARK    2  A    between atoms: O_2  and  C_3
REMARK    3  A    between atoms: C_6  and  C_9
REMARK    4  A    between atoms: C_11  and  C_33
REMARK    5  A    between atoms: N_13  and  C_20
REMARK    6  A    between atoms: C_20  and  C_21
REMARK    7  A    between atoms: C_21  and  C_22
REMARK    8  A    between atoms: C_25  and  O_31
REMARK    9  A    between atoms: O_31  and  C_32
REMARK   10  A    between atoms: C_37  and  O_39
REMARK                            x       y       z     vdW  Elec       q    Type
REMARK                         _______ _______ _______ _____ _____    ______ ____
ROOT
ATOM      1  C   UNL     1       2.577  -2.541   4.295  0.00  0.00    +0.097 C 
ATOM      2  C   UNL     1       2.693  -3.847   4.435  0.00  0.00    +0.017 C 
ATOM      3  C   UNL     1       2.745  -5.291   3.995  0.00  0.00    +0.137 C 
ATOM      4  N   UNL     1       4.054  -5.752   4.521  0.00  0.00    -0.288 N 
ATOM      5  C   UNL     1       4.424  -4.973   5.575  0.00  0.00    +0.247 C 
ATOM      6  O   UNL     1       5.466  -5.046   6.190  0.00  0.00    -0.273 OA
ATOM      7  C   UNL     1       3.308  -4.007   5.835  0.00  0.00    +0.244 C 
ATOM      8  N   UNL     1       3.651  -2.647   6.199  0.00  0.00    -0.170 NA
ATOM      9  N   UNL     1       3.175  -1.891   5.336  0.00  0.00    -0.153 NA
ENDROOT
BRANCH   1  13
ATOM     10  C   UNL     1       0.626  -0.618   1.041  0.00  0.00    +0.120 A 
ATOM     11  C   UNL     1       1.202   0.142   2.050  0.00  0.00    +0.046 A 
ATOM     12  C   UNL     1       1.835  -0.479   3.107  0.00  0.00    +0.013 A 
ATOM     13  C   UNL     1       1.896  -1.870   3.161  0.00  0.00    +0.002 A 
ATOM     14  C   UNL     1       1.317  -2.631   2.146  0.00  0.00    +0.013 A 
ATOM     15  C   UNL     1       0.681  -2.005   1.095  0.00  0.00    +0.046 A 
BRANCH  10  17
ATOM     16  C   UNL     1      -0.017   1.425   0.010  0.00  0.00    +0.277 C 
ATOM     17  O   UNL     1       0.002  -0.004   0.002  0.00  0.00    -0.495 OA
ENDBRANCH  10  17
ENDBRANCH   1  13
BRANCH   3  18
ATOM     18  C   UNL     1       1.614  -6.076   4.609  0.00  0.00    -0.019 A 
ATOM     19  C   UNL     1       1.708  -6.518   5.916  0.00  0.00    +0.006 A 
ATOM     20  C   UNL     1       0.672  -7.238   6.481  0.00  0.00    +0.004 A 
ATOM     21  C   UNL     1      -0.460  -7.519   5.741  0.00  0.00    +0.045 A 
ATOM     22  C   UNL     1      -0.557  -7.077   4.430  0.00  0.00    +0.117 A 
ATOM     23  C   UNL     1       0.481  -6.349   3.866  0.00  0.00    +0.051 A 
BRANCH  22  24
ATOM     24  O   UNL     1      -1.670  -7.352   3.700  0.00  0.00    -0.507 OA
ATOM     25  H   UNL     1      -2.362  -6.680   3.769  0.00  0.00    +0.292 HD
ENDBRANCH  22  24
ENDBRANCH   3  18
BRANCH   4  26
ATOM     26  C   UNL     1       4.830  -6.875   3.988  0.00  0.00    +0.113 C 
BRANCH  26  27
ATOM     27  C   UNL     1       5.779  -6.368   2.900  0.00  0.00    +0.052 C 
BRANCH  27  28
ATOM     28  C   UNL     1       6.577  -7.523   2.352  0.00  0.00    -0.040 C 
ATOM     29  C   UNL     1       6.295  -8.256   1.251  0.00  0.00    +0.002 A 
ATOM     30  C   UNL     1       5.203  -8.204   0.273  0.00  0.00    +0.055 A 
ATOM     31  C   UNL     1       5.182  -9.090  -0.751  0.00  0.00    +0.121 A 
ATOM     32  C   UNL     1       6.176 -10.071  -0.916  0.00  0.00    +0.047 A 
ATOM     33  C   UNL     1       7.218 -10.199  -0.068  0.00  0.00    +0.029 A 
ATOM     34  C   UNL     1       7.341  -9.290   1.077  0.00  0.00    +0.043 A 
ATOM     35  N   UNL     1       8.234  -9.199   2.031  0.00  0.00    -0.380 N 
ATOM     36  C   UNL     1       7.859  -8.091   2.917  0.00  0.00    +0.144 C 
ATOM     37  H   UNL     1       9.014  -9.766   2.132  0.00  0.00    +0.160 HD
BRANCH  31  38
ATOM     38  O   UNL     1       4.164  -9.030  -1.650  0.00  0.00    -0.495 OA
ATOM     39  C   UNL     1       4.181  -9.984  -2.714  0.00  0.00    +0.277 C 
ENDBRANCH  31  38
ENDBRANCH  27  28
ENDBRANCH  26  27
ENDBRANCH   4  26
TORSDOF 8
