REMARK  Name = ZINC00885248
REMARK  12 active torsions:
REMARK  status: ('A' for Active; 'I' for Inactive)
REMARK    1  A    between atoms: C_1  and  C_2
REMARK    2  A    between atoms: C_4  and  C_36
REMARK    3  A    between atoms: C_7  and  C_14
REMARK    4  A    between atoms: C_14  and  N_15
REMARK    5  A    between atoms: N_15  and  C_16
REMARK    6  A    between atoms: N_15  and  C_23
REMARK    7  A    between atoms: C_16  and  C_17
REMARK    8  A    between atoms: C_23  and  N_25
REMARK    9  A    between atoms: N_25  and  C_26
REMARK   10  A    between atoms: C_31  and  C_32
REMARK   11  A    between atoms: C_32  and  O_34
REMARK   12  A    between atoms: O_34  and  C_35
REMARK                            x       y       z     vdW  Elec       q    Type
REMARK                         _______ _______ _______ _____ _____    ______ ____
ROOT
ATOM      1  N   UNL     1       0.068   5.617   0.010  0.00  0.00    -0.305 N 
ENDROOT
BRANCH   1   2
ATOM      2  C   UNL     1       0.180   4.279   0.133  0.00  0.00    +0.138 C 
ATOM      3  S   UNL     1      -1.205   3.330   0.465  0.00  0.00    -0.018 S 
BRANCH   2   4
ATOM      4  N   UNL     1       1.384   3.688  -0.007  0.00  0.00    -0.296 N 
ATOM      5  H   UNL     1       2.179   4.231  -0.129  0.00  0.00    +0.154 HD
BRANCH   4   6
ATOM      6  C   UNL     1       1.486   2.301   0.025  0.00  0.00    +0.047 A 
ATOM      7  C   UNL     1       0.615   1.520  -0.724  0.00  0.00    +0.024 A 
ATOM      8  C   UNL     1       0.718   0.144  -0.692  0.00  0.00    +0.002 A 
ATOM      9  C   UNL     1       1.688  -0.469   0.085  0.00  0.00    +0.001 A 
ATOM     10  C   UNL     1       2.561   0.289   0.835  0.00  0.00    +0.017 A 
ATOM     11  C   UNL     1       2.470   1.683   0.812  0.00  0.00    +0.080 A 
BRANCH  11  12
ATOM     12  C   UNL     1       3.400   2.500   1.612  0.00  0.00    +0.341 C 
ATOM     13  O   UNL     1       3.372   3.712   1.526  0.00  0.00    -0.245 OA
BRANCH  12  14
ATOM     14  O   UNL     1       4.282   1.904   2.438  0.00  0.00    -0.464 OA
ATOM     15  C   UNL     1       5.167   2.771   3.194  0.00  0.00    +0.280 C 
ENDBRANCH  12  14
ENDBRANCH  11  12
ENDBRANCH   4   6
ENDBRANCH   2   4
ENDBRANCH   1   2
BRANCH   1  16
ATOM     16  C   UNL     1      -1.254   6.247   0.048  0.00  0.00    +0.147 C 
BRANCH  16  23
ATOM     17  C   UNL     1      -3.296   7.803   7.600  0.00  0.00    +0.044 C 
ATOM     18  C   UNL     1      -3.021   7.306   6.204  0.00  0.00    -0.048 A 
ATOM     19  C   UNL     1      -3.486   6.057   5.816  0.00  0.00    +0.007 A 
ATOM     20  C   UNL     1      -3.248   5.587   4.555  0.00  0.00    -0.041 A 
ATOM     21  C   UNL     1      -2.529   6.372   3.647  0.00  0.00    +0.002 A 
ATOM     22  C   UNL     1      -2.260   5.902   2.287  0.00  0.00    +0.020 A 
ATOM     23  C   UNL     1      -1.553   6.703   1.453  0.00  0.00    +0.035 A 
ATOM     24  C   UNL     1      -1.101   7.966   1.894  0.00  0.00    +0.254 A 
ATOM     25  O   UNL     1      -0.472   8.673   1.126  0.00  0.00    -0.268 OA
ATOM     26  N   UNL     1      -1.347   8.408   3.139  0.00  0.00    -0.322 N 
ATOM     27  H   UNL     1      -1.022   9.281   3.409  0.00  0.00    +0.169 HD
ATOM     28  C   UNL     1      -2.056   7.639   4.037  0.00  0.00    +0.050 A 
ATOM     29  C   UNL     1      -2.312   8.096   5.326  0.00  0.00    +0.029 A 
ATOM     30  C   UNL     1      -3.758   4.230   4.144  0.00  0.00    +0.044 C 
ENDBRANCH  16  23
ENDBRANCH   1  16
BRANCH   1  31
ATOM     31  C   UNL     1       1.268   6.440  -0.160  0.00  0.00    +0.138 C 
BRANCH  31  32
ATOM     32  C   UNL     1       1.578   6.587  -1.651  0.00  0.00    +0.136 C 
ATOM     33  C   UNL     1       2.908   7.346  -1.852  0.00  0.00    +0.035 C 
ATOM     34  C   UNL     1       2.657   8.220  -3.101  0.00  0.00    +0.031 C 
ATOM     35  C   UNL     1       1.205   7.886  -3.507  0.00  0.00    +0.160 C 
ATOM     36  O   UNL     1       0.582   7.412  -2.293  0.00  0.00    -0.375 OA
ENDBRANCH  31  32
ENDBRANCH   1  31
TORSDOF 9
