REMARK  Name = ZINC12378159
REMARK  8 active torsions:
REMARK  status: ('A' for Active; 'I' for Inactive)
REMARK    1  A    between atoms: C_1  and  C_2
REMARK    2  A    between atoms: C_2  and  O_3
REMARK    3  A    between atoms: O_3  and  C_4
REMARK    4  A    between atoms: C_4  and  C_6
REMARK    5  A    between atoms: C_10  and  N_11
REMARK    6  A    between atoms: C_12  and  C_14
REMARK    7  A    between atoms: C_18  and  N_23
REMARK    8  A    between atoms: C_30  and  C_32
REMARK                            x       y       z     vdW  Elec       q    Type
REMARK                         _______ _______ _______ _____ _____    ______ ____
ROOT
ATOM      1  C   UNL     1      -4.824  -1.042   0.043  0.00  0.00    +0.091 A 
ATOM      2  C   UNL     1      -5.755  -2.160   0.048  0.00  0.00    -0.018 A 
ATOM      3  C   UNL     1      -5.181  -3.382   0.034  0.00  0.00    +0.013 A 
ATOM      4  S   UNL     1      -3.439  -3.069   0.012  0.00  0.00    -0.076 S 
ATOM      5  C   UNL     1      -3.466  -1.337   0.029  0.00  0.00    +0.087 A 
ATOM      6  C   UNL     1      -5.885  -4.705   0.029  0.00  0.00    +0.150 C 
ATOM      7  N   UNL     1      -7.315  -4.438   0.282  0.00  0.00    -0.297 N 
ATOM      8  C   UNL     1      -7.924  -3.291  -0.409  0.00  0.00    +0.113 C 
ATOM      9  C   UNL     1      -7.269  -1.996   0.074  0.00  0.00    +0.056 C 
ATOM     10  C   UNL     1      -8.035  -5.216   1.114  0.00  0.00    +0.213 C 
ATOM     11  O   UNL     1      -9.209  -4.975   1.305  0.00  0.00    -0.276 OA
ATOM     12  C   UNL     1      -7.383  -6.384   1.808  0.00  0.00    +0.109 C 
ENDROOT
BRANCH   5  13
ATOM     13  N   UNL     1      -2.395  -0.459   0.023  0.00  0.00    -0.275 N 
ATOM     14  C   UNL     1      -1.135  -0.935   0.008  0.00  0.00    +0.255 C 
ATOM     15  O   UNL     1      -0.937  -2.136   0.000  0.00  0.00    -0.269 OA
ATOM     16  H   UNL     1      -2.553   0.498   0.029  0.00  0.00    +0.156 HD
BRANCH  14  17
ATOM     17  C   UNL     1       0.002  -0.004   0.002  0.00  0.00    +0.075 A 
ATOM     18  C   UNL     1       1.331  -0.290  -0.012  0.00  0.00    +0.029 A 
ATOM     19  C   UNL     1       2.274   0.754  -0.016  0.00  0.00    -0.008 A 
ATOM     20  C   UNL     1       3.689   0.660  -0.030  0.00  0.00    +0.041 A 
ATOM     21  C   UNL     1       4.460   1.778  -0.031  0.00  0.00    +0.127 A 
ATOM     22  C   UNL     1       3.899   3.050  -0.019  0.00  0.00    +0.034 A 
ATOM     23  C   UNL     1       2.526   3.187  -0.005  0.00  0.00    +0.018 A 
ATOM     24  C   UNL     1       1.730   2.061  -0.003  0.00  0.00    +0.020 A 
ATOM     25  S   UNL     1      -0.022   1.780   0.012  0.00  0.00    -0.084 S 
BRANCH  21  26
ATOM     26  N   UNL     1       5.933   1.639  -0.046  0.00  0.00    +0.056 N 
ATOM     27  O   UNL     1       6.639   2.632  -0.047  0.00  0.00    -0.126 OA
ATOM     28  O   UNL     1       6.441   0.532  -0.057  0.00  0.00    -0.126 OA
ENDBRANCH  21  26
ENDBRANCH  14  17
ENDBRANCH   5  13
BRANCH   1  29
ATOM     29  C   UNL     1      -5.300   0.342   0.053  0.00  0.00    +0.342 C 
ATOM     30  O   UNL     1      -5.508   0.921  -0.997  0.00  0.00    -0.245 OA
BRANCH  29  31
ATOM     31  O   UNL     1      -5.508   0.976   1.225  0.00  0.00    -0.461 OA
BRANCH  31  33
ATOM     32  C   UNL     1      -6.157   2.895   2.576  0.00  0.00    +0.048 C 
ATOM     33  C   UNL     1      -5.980   2.347   1.159  0.00  0.00    +0.229 C 
ENDBRANCH  31  33
ENDBRANCH  29  31
ENDBRANCH   1  29
TORSDOF 6
