REMARK  Name = ZINC36548199
REMARK  13 active torsions:
REMARK  status: ('A' for Active; 'I' for Inactive)
REMARK    1  A    between atoms: C_1  and  C_2
REMARK    2  A    between atoms: C_2  and  C_3
REMARK    3  A    between atoms: C_3  and  C_4
REMARK    4  A    between atoms: C_4  and  N_5
REMARK    5  A    between atoms: C_6  and  C_8
REMARK    6  A    between atoms: C_8  and  C_10
REMARK    7  A    between atoms: C_8  and  N_19
REMARK    8  A    between atoms: C_10  and  C_12
REMARK    9  A    between atoms: C_10  and  C_13
REMARK   10  A    between atoms: N_19  and  C_20
REMARK   11  A    between atoms: C_27  and  C_29
REMARK   12  A    between atoms: C_29  and  N_30
REMARK   13  A    between atoms: C_31  and  C_33
REMARK                            x       y       z     vdW  Elec       q    Type
REMARK                         _______ _______ _______ _____ _____    ______ ____
ROOT
ATOM      1  N   UNL     1      -4.359  -5.717   0.468  0.00  0.00    -0.256 N 
ATOM      2  C   UNL     1      -4.827  -6.175   1.646  0.00  0.00    +0.238 C 
ATOM      3  O   UNL     1      -5.253  -5.397   2.473  0.00  0.00    -0.274 OA
ENDROOT
BRANCH   1   4
ATOM      4  C   UNL     1      -3.866  -6.615  -0.486  0.00  0.00    +0.055 A 
ATOM      5  C   UNL     1      -2.526  -6.977  -0.474  0.00  0.00    +0.025 A 
ATOM      6  C   UNL     1      -2.043  -7.863  -1.417  0.00  0.00    +0.002 A 
ATOM      7  C   UNL     1      -2.892  -8.390  -2.373  0.00  0.00    +0.002 A 
ATOM      8  C   UNL     1      -4.227  -8.031  -2.389  0.00  0.00    +0.022 A 
ATOM      9  C   UNL     1      -4.718  -7.150  -1.444  0.00  0.00    +0.062 A 
ATOM     10 CL   UNL     1      -6.397  -6.706  -1.460  0.00  0.00    -0.082 Cl
ENDBRANCH   1   4
BRANCH   1  11
ATOM     11  C   UNL     1      -4.366  -4.279   0.186  0.00  0.00    +0.174 C 
BRANCH  11  13
ATOM     12  N   UNL     1      -2.558  -2.598   0.033  0.00  0.00    -0.314 N 
ATOM     13  C   UNL     1      -2.988  -3.845  -0.244  0.00  0.00    +0.235 C 
ATOM     14  O   UNL     1      -2.267  -4.617  -0.839  0.00  0.00    -0.274 OA
ATOM     15  H   UNL     1      -3.162  -1.954   0.433  0.00  0.00    +0.149 HD
BRANCH  12  16
ATOM     16  C   UNL     1      -1.177  -2.216  -0.272  0.00  0.00    +0.104 C 
BRANCH  16  17
ATOM     17  C   UNL     1      -0.949  -0.759   0.137  0.00  0.00    +0.018 C 
BRANCH  17  19
ATOM     18  C   UNL     1       0.721   1.097   0.228  0.00  0.00    +0.004 C 
ATOM     19  C   UNL     1       0.493  -0.359  -0.181  0.00  0.00    -0.002 C 
ENDBRANCH  17  19
ENDBRANCH  16  17
ENDBRANCH  12  16
ENDBRANCH  11  13
BRANCH  11  20
ATOM     20  C   UNL     1      -5.366  -3.984  -0.933  0.00  0.00    +0.046 C 
ATOM     21  C   UNL     1      -6.789  -4.216  -0.420  0.00  0.00    +0.015 C 
BRANCH  20  22
ATOM     22  C   UNL     1      -5.219  -2.550  -1.373  0.00  0.00    -0.042 A 
ATOM     23  C   UNL     1      -5.395  -1.526  -0.462  0.00  0.00    +0.004 A 
ATOM     24  C   UNL     1      -5.260  -0.211  -0.866  0.00  0.00    +0.000 A 
ATOM     25  C   UNL     1      -4.947   0.080  -2.181  0.00  0.00    +0.000 A 
ATOM     26  C   UNL     1      -4.770  -0.945  -3.092  0.00  0.00    +0.000 A 
ATOM     27  C   UNL     1      -4.901  -2.260  -2.687  0.00  0.00    +0.004 A 
ENDBRANCH  20  22
ENDBRANCH  11  20
ENDBRANCH   1  11
BRANCH   2  28
ATOM     28  C   UNL     1      -4.819  -7.654   1.936  0.00  0.00    +0.201 C 
BRANCH  28  29
ATOM     29  N   UNL     1      -5.374  -7.893   3.270  0.00  0.00    -0.303 N 
ATOM     30  C   UNL     1      -5.467  -9.150   3.746  0.00  0.00    +0.244 C 
ATOM     31  O   UNL     1      -5.091 -10.086   3.068  0.00  0.00    -0.270 OA
ATOM     32  H   UNL     1      -5.675  -7.146   3.811  0.00  0.00    +0.150 HD
BRANCH  30  33
ATOM     33  C   UNL     1      -6.028  -9.391   5.093  0.00  0.00    +0.037 A 
ATOM     34  C   UNL     1      -6.466  -8.319   5.872  0.00  0.00    +0.013 A 
ATOM     35  C   UNL     1      -6.989  -8.551   7.128  0.00  0.00    +0.001 A 
ATOM     36  C   UNL     1      -7.077  -9.842   7.616  0.00  0.00    +0.000 A 
ATOM     37  C   UNL     1      -6.644 -10.910   6.849  0.00  0.00    +0.001 A 
ATOM     38  C   UNL     1      -6.125 -10.692   5.589  0.00  0.00    +0.013 A 
ENDBRANCH  30  33
ENDBRANCH  28  29
ENDBRANCH   2  28
TORSDOF 11
