REMARK  Name = ZINC12208009
REMARK  7 active torsions:
REMARK  status: ('A' for Active; 'I' for Inactive)
REMARK    1  A    between atoms: C_1  and  C_2
REMARK    2  A    between atoms: C_5  and  N_9
REMARK    3  A    between atoms: C_7  and  C_8
REMARK    4  A    between atoms: N_9  and  S_10
REMARK    5  A    between atoms: S_10  and  C_13
REMARK    6  A    between atoms: C_16  and  N_20
REMARK    7  A    between atoms: C_18  and  C_19
REMARK                            x       y       z     vdW  Elec       q    Type
REMARK                         _______ _______ _______ _____ _____    ______ ____
ROOT
ATOM      1  C   UNL     1       1.200   3.195   0.140  0.00  0.00    +0.111 A 
ATOM      2  C   UNL     1       0.097   3.975   0.435  0.00  0.00    +0.031 A 
ATOM      3  C   UNL     1      -1.158   3.403   0.497  0.00  0.00    +0.026 A 
ATOM      4  C   UNL     1      -1.313   2.043   0.260  0.00  0.00    +0.051 A 
ATOM      5  C   UNL     1      -0.202   1.262  -0.031  0.00  0.00    +0.030 A 
ATOM      6  C   UNL     1       1.050   1.840  -0.093  0.00  0.00    -0.022 A 
ATOM      7  C   UNL     1       2.255   0.994  -0.414  0.00  0.00    +0.046 C 
ENDROOT
BRANCH   4   8
ATOM      8  N   UNL     1      -2.582   1.462   0.318  0.00  0.00    -0.207 N 
ATOM      9  C   UNL     1      -3.657   2.068   1.117  0.00  0.00    +0.131 C 
ATOM     10  C   UNL     1      -4.857   2.361   0.218  0.00  0.00    +0.022 C 
ATOM     11  C   UNL     1      -5.450   1.066  -0.330  0.00  0.00    +0.026 C 
ATOM     12  C   UNL     1      -4.492   0.451  -1.357  0.00  0.00    +0.189 C 
ATOM     13  S   UNL     1      -2.926   0.067  -0.521  0.00  0.00    +0.045 S 
ATOM     14  O   UNL     1      -1.877  -0.061  -1.472  0.00  0.00    -0.155 OA
ATOM     15  O   UNL     1      -3.131  -0.923   0.477  0.00  0.00    -0.155 OA
ENDBRANCH   4   8
BRANCH   1  16
ATOM     16  S   UNL     1       2.800   3.929   0.061  0.00  0.00    +0.073 S 
ATOM     17  O   UNL     1       3.385   3.496  -1.160  0.00  0.00    -0.150 OA
ATOM     18  O   UNL     1       2.633   5.303   0.380  0.00  0.00    -0.150 OA
BRANCH  16  19
ATOM     19  N   UNL     1       3.704   3.267   1.280  0.00  0.00    -0.216 N 
ATOM     20  H   UNL     1       4.506   2.763   1.071  0.00  0.00    +0.174 HD
BRANCH  19  25
ATOM     21  C   UNL     1       2.110   3.945   6.680  0.00  0.00    +0.044 C 
ATOM     22  C   UNL     1       2.534   3.765   5.245  0.00  0.00    -0.047 A 
ATOM     23  C   UNL     1       2.540   4.849   4.386  0.00  0.00    +0.005 A 
ATOM     24  C   UNL     1       2.933   4.688   3.072  0.00  0.00    +0.025 A 
ATOM     25  C   UNL     1       3.311   3.434   2.610  0.00  0.00    +0.048 A 
ATOM     26  C   UNL     1       3.303   2.347   3.475  0.00  0.00    +0.028 A 
ATOM     27  C   UNL     1       2.915   2.516   4.790  0.00  0.00    -0.046 A 
ATOM     28  C   UNL     1       2.906   1.338   5.730  0.00  0.00    +0.044 C 
ENDBRANCH  19  25
ENDBRANCH  16  19
ENDBRANCH   1  16
TORSDOF 4
