REMARK  Name = ZINC63821980
REMARK  6 active torsions:
REMARK  status: ('A' for Active; 'I' for Inactive)
REMARK    1  A    between atoms: C_1  and  O_2
REMARK    2  A    between atoms: O_2  and  C_3
REMARK    3  A    between atoms: C_6  and  C_9
REMARK    4  A    between atoms: C_9  and  C_10
REMARK    5  A    between atoms: C_14  and  N_17
REMARK    6  A    between atoms: C_18  and  C_20
REMARK                            x       y       z     vdW  Elec       q    Type
REMARK                         _______ _______ _______ _____ _____    ______ ____
ROOT
ATOM      1  C   UNL     1      -5.495  -2.877  -1.401  0.00  0.00    +0.134 C 
ATOM      2  N   UNL     1      -6.820  -3.558  -1.423  0.00  0.00    -0.241 NA
ATOM      3  N   UNL     1      -6.948  -4.457  -2.564  0.00  0.00    -0.227 NA
ATOM      4  C   UNL     1      -5.750  -5.351  -2.648  0.00  0.00    +0.217 C 
ATOM      5  S   UNL     1      -4.430  -4.125  -2.240  0.00  0.00    -0.101 S 
ATOM      6  H   UNL     1      -7.572  -2.886  -1.406  0.00  0.00    +0.142 HD
ATOM      7  H   UNL     1      -7.798  -4.997  -2.505  0.00  0.00    +0.143 HD
ENDROOT
BRANCH   4   8
ATOM      8  N   UNL     1      -5.580  -5.891  -3.999  0.00  0.00    -0.286 N 
ATOM      9  C   UNL     1      -4.756  -6.937  -4.207  0.00  0.00    +0.247 C 
ATOM     10  O   UNL     1      -4.084  -7.372  -3.294  0.00  0.00    -0.270 OA
ATOM     11  H   UNL     1      -6.061  -5.496  -4.743  0.00  0.00    +0.151 HD
BRANCH   9  12
ATOM     12  C   UNL     1      -4.669  -7.556  -5.552  0.00  0.00    +0.051 A 
ATOM     13  C   UNL     1      -5.319  -7.004  -6.618  0.00  0.00    +0.083 A 
ATOM     14  C   UNL     1      -5.215  -7.637  -7.931  0.00  0.00    +0.250 A 
ATOM     15  O   UNL     1      -5.794  -7.144  -8.883  0.00  0.00    -0.268 OA
ATOM     16  N   UNL     1      -4.487  -8.754  -8.105  0.00  0.00    -0.322 N 
ATOM     17  H   UNL     1      -4.434  -9.154  -8.987  0.00  0.00    +0.169 HD
ATOM     18  C   UNL     1      -3.816  -9.342  -7.054  0.00  0.00    +0.050 A 
ATOM     19  C   UNL     1      -3.875  -8.775  -5.769  0.00  0.00    +0.011 A 
ATOM     20  C   UNL     1      -3.186  -9.375  -4.711  0.00  0.00    +0.011 A 
ATOM     21  C   UNL     1      -2.453 -10.507  -4.932  0.00  0.00    +0.001 A 
ATOM     22  C   UNL     1      -2.387 -11.067  -6.200  0.00  0.00    +0.002 A 
ATOM     23  C   UNL     1      -3.068 -10.500  -7.255  0.00  0.00    +0.026 A 
ENDBRANCH   9  12
ENDBRANCH   4   8
BRANCH   1  24
ATOM     24  C   UNL     1      -5.027  -2.632   0.035  0.00  0.00    +0.066 C 
BRANCH  24  28
ATOM     25  C   UNL     1      -1.283  -0.572  -0.018  0.00  0.00    +0.120 A 
ATOM     26  C   UNL     1      -2.471   0.145  -0.001  0.00  0.00    +0.046 A 
ATOM     27  C   UNL     1      -3.680  -0.523   0.016  0.00  0.00    +0.007 A 
ATOM     28  C   UNL     1      -3.707  -1.906   0.016  0.00  0.00    -0.045 A 
ATOM     29  C   UNL     1      -2.525  -2.623  -0.001  0.00  0.00    +0.007 A 
ATOM     30  C   UNL     1      -1.313  -1.959  -0.025  0.00  0.00    +0.046 A 
BRANCH  25  32
ATOM     31  C   UNL     1      -0.138   1.511  -0.028  0.00  0.00    +0.277 C 
ATOM     32  O   UNL     1      -0.093   0.083  -0.036  0.00  0.00    -0.495 OA
ENDBRANCH  25  32
ENDBRANCH  24  28
ENDBRANCH   1  24
TORSDOF 5
