REMARK  Name = ZINC39608262
REMARK  9 active torsions:
REMARK  status: ('A' for Active; 'I' for Inactive)
REMARK    1  A    between atoms: C_1  and  C_2
REMARK    2  A    between atoms: C_2  and  C_4
REMARK    3  A    between atoms: C_2  and  N_7
REMARK    4  A    between atoms: C_4  and  C_5
REMARK    5  A    between atoms: C_4  and  C_6
REMARK    6  A    between atoms: C_8  and  C_10
REMARK    7  A    between atoms: C_21  and  C_23
REMARK    8  A    between atoms: C_26  and  O_30
REMARK    9  A    between atoms: O_30  and  C_31
REMARK                            x       y       z     vdW  Elec       q    Type
REMARK                         _______ _______ _______ _____ _____    ______ ____
ROOT
ATOM      1  C   UNL     1      -4.037  -1.399   0.939  0.00  0.00    +0.100 C 
ATOM      2  C   UNL     1      -3.751  -2.795   0.341  0.00  0.00    +0.121 C 
ATOM      3  N   UNL     1      -3.611  -3.685   1.517  0.00  0.00    -0.296 N 
ATOM      4  C   UNL     1      -4.654  -3.216   2.461  0.00  0.00    +0.115 C 
ATOM      5  C   UNL     1      -4.633  -1.680   2.329  0.00  0.00    -0.004 C 
ATOM      6  C   UNL     1      -6.051  -1.123   2.418  0.00  0.00    -0.010 C 
ATOM      7  C   UNL     1      -6.600  -1.362   3.828  0.00  0.00    -0.082 C 
ATOM      8  N   UNL     1      -5.732  -0.705   4.812  0.00  0.00    +0.379 N 
ATOM      9  C   UNL     1      -4.395  -1.311   4.783  0.00  0.00    -0.082 C 
ATOM     10  C   UNL     1      -3.752  -1.069   3.414  0.00  0.00    -0.010 C 
ATOM     11  C   UNL     1      -2.734  -4.693   1.690  0.00  0.00    +0.247 C 
ATOM     12  O   UNL     1      -1.852  -4.879   0.874  0.00  0.00    -0.270 OA
ATOM     13  H   UNL     1      -5.659   0.277   4.592  0.00  0.00    -0.086 HD
ATOM     14  H   UNL     1      -6.128  -0.812   5.733  0.00  0.00    -0.086 HD
ENDROOT
BRANCH  11  15
ATOM     15  C   UNL     1      -2.844  -5.572   2.870  0.00  0.00    +0.040 A 
ATOM     16  C   UNL     1      -4.054  -5.668   3.562  0.00  0.00    +0.036 A 
ATOM     17  C   UNL     1      -4.152  -6.490   4.664  0.00  0.00    +0.085 A 
ATOM     18  C   UNL     1      -3.049  -7.223   5.088  0.00  0.00    +0.157 A 
ATOM     19  C   UNL     1      -1.843  -7.130   4.402  0.00  0.00    +0.085 A 
ATOM     20  C   UNL     1      -1.739  -6.315   3.296  0.00  0.00    +0.036 A 
ATOM     21 CL   UNL     1      -0.469  -8.047   4.936  0.00  0.00    -0.080 Cl
ATOM     22 CL   UNL     1      -5.656  -6.610   5.524  0.00  0.00    -0.080 Cl
BRANCH  18  23
ATOM     23  O   UNL     1      -3.150  -8.031   6.174  0.00  0.00    -0.492 OA
ATOM     24  C   UNL     1      -3.551  -9.383   5.943  0.00  0.00    +0.277 C 
ENDBRANCH  18  23
ENDBRANCH  11  15
BRANCH   1  26
ATOM     25  N   UNL     1      -2.799   0.737   1.096  0.00  0.00    -0.312 N 
ATOM     26  C   UNL     1      -2.760  -0.610   1.065  0.00  0.00    +0.218 C 
ATOM     27  O   UNL     1      -1.696  -1.187   1.140  0.00  0.00    -0.275 OA
ATOM     28  H   UNL     1      -3.650   1.198   1.036  0.00  0.00    +0.149 HD
BRANCH  25  30
ATOM     29  C   UNL     1      -1.178   1.628   2.696  0.00  0.00    +0.028 C 
ATOM     30  C   UNL     1      -1.557   1.504   1.219  0.00  0.00    +0.072 C 
BRANCH  30  31
ATOM     31  C   UNL     1      -1.758   2.899   0.625  0.00  0.00    +0.003 C 
ATOM     32  C   UNL     1      -2.790   3.664   1.457  0.00  0.00    +0.009 C 
ATOM     33  C   UNL     1      -0.429   3.656   0.639  0.00  0.00    +0.009 C 
ENDBRANCH  30  31
ENDBRANCH  25  30
ENDBRANCH   1  26
TORSDOF 5
