REMARK  Name = ZINC32969084
REMARK  5 active torsions:
REMARK  status: ('A' for Active; 'I' for Inactive)
REMARK    1  A    between atoms: C_6  and  C_7
REMARK    2  A    between atoms: C_10  and  S_12
REMARK    3  A    between atoms: S_12  and  C_13
REMARK    4  A    between atoms: C_13  and  C_14
REMARK    5  A    between atoms: C_20  and  C_22
REMARK                            x       y       z     vdW  Elec       q    Type
REMARK                         _______ _______ _______ _____ _____    ______ ____
ROOT
ATOM      1  C   UNL     1      -9.648  -5.546  -6.575  0.00  0.00    +0.249 A 
ATOM      2  N   UNL     1      -8.948  -4.697  -7.288  0.00  0.00    -0.106 NA
ATOM      3  N   UNL     1      -8.150  -4.047  -6.517  0.00  0.00    -0.101 NA
ATOM      4  C   UNL     1      -8.302  -4.461  -5.281  0.00  0.00    +0.278 A 
ATOM      5  O   UNL     1      -9.254  -5.415  -5.289  0.00  0.00    -0.411 OA
ENDROOT
BRANCH   1  11
ATOM      6  C   UNL     1     -11.345  -7.330  -6.205  0.00  0.00    +0.017 A 
ATOM      7  C   UNL     1     -12.310  -8.192  -6.682  0.00  0.00    +0.050 A 
ATOM      8  C   UNL     1     -12.614  -8.220  -8.035  0.00  0.00    +0.166 A 
ATOM      9  C   UNL     1     -11.949  -7.372  -8.919  0.00  0.00    +0.167 A 
ATOM     10  C   UNL     1     -10.984  -6.501  -8.447  0.00  0.00    +0.062 A 
ATOM     11  C   UNL     1     -10.678  -6.474  -7.084  0.00  0.00    +0.042 A 
ATOM     12  O   UNL     1     -12.427  -7.593 -10.178  0.00  0.00    -0.453 OA
ATOM     13  C   UNL     1     -13.674  -8.289  -9.999  0.00  0.00    +0.466 C 
ATOM     14  O   UNL     1     -13.508  -8.972  -8.742  0.00  0.00    -0.453 OA
ENDBRANCH   1  11
BRANCH   4  15
ATOM     15  S   UNL     1      -7.428  -3.874  -3.868  0.00  0.00    -0.056 S 
BRANCH  15  16
ATOM     16  C   UNL     1      -6.359  -2.641  -4.651  0.00  0.00    +0.175 C 
BRANCH  16  17
ATOM     17  C   UNL     1      -5.494  -1.988  -3.603  0.00  0.00    +0.229 C 
ATOM     18  O   UNL     1      -5.591  -2.324  -2.442  0.00  0.00    -0.275 OA
ATOM     19  N   UNL     1      -4.613  -1.032  -3.957  0.00  0.00    -0.263 N 
ATOM     20  C   UNL     1      -3.814  -0.430  -2.991  0.00  0.00    +0.188 A 
ATOM     21  N   UNL     1      -3.763  -0.645  -1.687  0.00  0.00    -0.126 NA
ATOM     22  N   UNL     1      -2.969  -0.011  -0.938  0.00  0.00    -0.144 NA
ATOM     23  C   UNL     1      -2.164   0.907  -1.435  0.00  0.00    +0.107 A 
ATOM     24  S   UNL     1      -2.611   0.814  -3.164  0.00  0.00    -0.035 S 
ATOM     25  H   UNL     1      -4.525  -0.728  -5.011  0.00  0.00    +0.157 HD
BRANCH  23  26
ATOM     26  C   UNL     1      -1.150   1.781  -0.743  0.00  0.00    +0.047 C 
ATOM     27  C   UNL     1      -0.013   1.086   0.008  0.00  0.00    +0.011 C 
ATOM     28  C   UNL     1      -1.136   1.773   0.788  0.00  0.00    +0.011 C 
ENDBRANCH  23  26
ENDBRANCH  16  17
ENDBRANCH  15  16
ENDBRANCH   4  15
TORSDOF 5
