REMARK  Name = ZINC61543238
REMARK  5 active torsions:
REMARK  status: ('A' for Active; 'I' for Inactive)
REMARK    1  A    between atoms: C_1  and  C_2
REMARK    2  A    between atoms: C_2  and  C_3
REMARK    3  A    between atoms: C_2  and  C_4
REMARK    4  A    between atoms: C_4  and  S_5
REMARK    5  A    between atoms: S_5  and  C_6
REMARK                            x       y       z     vdW  Elec       q    Type
REMARK                         _______ _______ _______ _____ _____    ______ ____
ROOT
ATOM      1  C   UNL     1      -3.116  -2.791  -0.118  0.00  0.00    +0.194 A 
ATOM      2  N   UNL     1      -3.468  -4.070  -0.210  0.00  0.00    -0.186 NA
ATOM      3  C   UNL     1      -4.751  -4.405  -0.188  0.00  0.00    +0.241 A 
ATOM      4  N   UNL     1      -5.682  -3.463  -0.073  0.00  0.00    -0.181 NA
ATOM      5  C   UNL     1      -5.330  -2.190   0.019  0.00  0.00    +0.228 A 
ATOM      6  N   UNL     1      -4.051  -1.852   0.002  0.00  0.00    -0.192 NA
ATOM      7 CL   UNL     1      -6.549  -0.963   0.167  0.00  0.00    -0.041 Cl
ATOM      8  N   UNL     1      -5.123  -5.743  -0.284  0.00  0.00    -0.274 N 
ATOM      9  C   UNL     1      -6.405  -6.236  -0.281  0.00  0.00    +0.115 A 
ATOM     10  C   UNL     1      -6.307  -7.574  -0.395  0.00  0.00    +0.130 A 
ATOM     11  N   UNL     1      -5.006  -7.895  -0.466  0.00  0.00    -0.244 NA
ATOM     12  C   UNL     1      -4.287  -6.809  -0.406  0.00  0.00    +0.206 A 
ENDROOT
BRANCH   1  13
ATOM     13  S   UNL     1      -1.412  -2.341  -0.146  0.00  0.00    -0.086 S 
BRANCH  13  14
ATOM     14  C   UNL     1      -1.433  -0.534   0.013  0.00  0.00    +0.080 C 
BRANCH  14  16
ATOM     15  C   UNL     1      -0.019   1.526   0.010  0.00  0.00    +0.008 C 
ATOM     16  C   UNL     1       0.002  -0.004   0.002  0.00  0.00    -0.007 C 
ATOM     17  C   UNL     1       0.742  -0.511   1.242  0.00  0.00    +0.008 C 
ENDBRANCH  14  16
ENDBRANCH  13  14
ENDBRANCH   1  13
TORSDOF 3
