REMARK  Name = ZINC14463973
REMARK  7 active torsions:
REMARK  status: ('A' for Active; 'I' for Inactive)
REMARK    1  A    between atoms: C_1  and  C_2
REMARK    2  A    between atoms: C_2  and  O_3
REMARK    3  A    between atoms: O_3  and  C_4
REMARK    4  A    between atoms: C_7  and  N_10
REMARK    5  A    between atoms: N_10  and  S_11
REMARK    6  A    between atoms: S_11  and  C_14
REMARK    7  A    between atoms: C_27  and  C_30
REMARK                            x       y       z     vdW  Elec       q    Type
REMARK                         _______ _______ _______ _____ _____    ______ ____
ROOT
ATOM      1  C   UNL     1       7.015   0.071  -1.907  0.00  0.00    +0.109 A 
ATOM      2  C   UNL     1       7.275  -0.115  -0.562  0.00  0.00    +0.030 A 
ATOM      3  C   UNL     1       6.226  -0.263   0.324  0.00  0.00    +0.025 A 
ATOM      4  C   UNL     1       4.916  -0.226  -0.139  0.00  0.00    +0.031 A 
ATOM      5  C   UNL     1       4.652  -0.044  -1.485  0.00  0.00    -0.018 A 
ATOM      6  C   UNL     1       5.714   0.106  -2.366  0.00  0.00    +0.034 A 
ATOM      7  C   UNL     1       3.256   0.000  -2.046  0.00  0.00    +0.049 C 
ATOM      8  C   UNL     1       3.123  -1.120  -3.069  0.00  0.00    -0.023 C 
ATOM      9  C   UNL     1       2.567  -2.173  -2.524  0.00  0.00    -0.030 C 
ATOM     10  C   UNL     1       2.246  -1.909  -1.064  0.00  0.00    +0.033 C 
ATOM     11  C   UNL     1       2.190  -0.364  -0.996  0.00  0.00    +0.029 C 
ATOM     12  C   UNL     1       2.556   0.134   0.389  0.00  0.00    +0.105 C 
ATOM     13  N   UNL     1       3.870  -0.398   0.769  0.00  0.00    -0.336 N 
ATOM     14  H   UNL     1       4.007  -0.832   1.626  0.00  0.00    +0.147 HD
ENDROOT
BRANCH  12  15
ATOM     15  C   UNL     1       2.606   1.640   0.385  0.00  0.00    -0.019 A 
ATOM     16  C   UNL     1       3.804   2.285   0.348  0.00  0.00    +0.006 A 
ATOM     17  C   UNL     1       3.869   3.677   0.344  0.00  0.00    +0.001 A 
ATOM     18  C   UNL     1       2.737   4.432   0.377  0.00  0.00    +0.008 A 
ATOM     19  C   UNL     1       1.482   3.801   0.416  0.00  0.00    -0.018 A 
ATOM     20  C   UNL     1       1.415   2.385   0.420  0.00  0.00    -0.013 A 
ATOM     21  C   UNL     1       0.160   1.755   0.458  0.00  0.00    +0.009 A 
ATOM     22  C   UNL     1      -0.972   2.510   0.485  0.00  0.00    +0.001 A 
ATOM     23  C   UNL     1      -0.906   3.903   0.487  0.00  0.00    +0.001 A 
ATOM     24  C   UNL     1       0.292   4.547   0.450  0.00  0.00    +0.008 A 
ENDBRANCH  12  15
BRANCH   1  25
ATOM     25  S   UNL     1       8.351   0.263  -3.041  0.00  0.00    +0.072 S 
ATOM     26  O   UNL     1       9.452  -0.450  -2.495  0.00  0.00    -0.150 OA
ATOM     27  O   UNL     1       7.830  -0.014  -4.333  0.00  0.00    -0.150 OA
BRANCH  25  28
ATOM     28  N   UNL     1       8.773   1.864  -3.033  0.00  0.00    -0.216 N 
ATOM     29  H   UNL     1       8.666   2.398  -3.836  0.00  0.00    +0.174 HD
BRANCH  28  33
ATOM     30  C   UNL     1      10.294   3.602   0.437  0.00  0.00    +0.121 A 
ATOM     31  C   UNL     1      11.092   2.761  -0.325  0.00  0.00    +0.047 A 
ATOM     32  C   UNL     1      10.589   2.185  -1.474  0.00  0.00    +0.028 A 
ATOM     33  C   UNL     1       9.283   2.447  -1.868  0.00  0.00    +0.048 A 
ATOM     34  C   UNL     1       8.487   3.294  -1.108  0.00  0.00    +0.028 A 
ATOM     35  C   UNL     1       8.990   3.865   0.044  0.00  0.00    +0.047 A 
BRANCH  30  36
ATOM     36  O   UNL     1      10.791   4.170   1.568  0.00  0.00    -0.492 OA
BRANCH  36  38
ATOM     37  C   UNL     1      10.644   5.566   3.535  0.00  0.00    +0.048 C 
ATOM     38  C   UNL     1       9.914   5.026   2.304  0.00  0.00    +0.225 C 
ENDBRANCH  36  38
ENDBRANCH  30  36
ENDBRANCH  28  33
ENDBRANCH  25  28
ENDBRANCH   1  25
TORSDOF 6
