REMARK  Name = ZINC39021386
REMARK  4 active torsions:
REMARK  status: ('A' for Active; 'I' for Inactive)
REMARK    1  A    between atoms: C_1  and  C_2
REMARK    2  A    between atoms: C_6  and  C_8
REMARK    3  A    between atoms: N_14  and  N_15
REMARK    4  A    between atoms: C_16  and  C_17
REMARK                            x       y       z     vdW  Elec       q    Type
REMARK                         _______ _______ _______ _____ _____    ______ ____
ROOT
ATOM      1  C   UNL     1       0.072  -2.856   2.508  0.00  0.00    +0.264 C 
ATOM      2  N   UNL     1      -0.686  -2.135   3.542  0.00  0.00    -0.189 NA
ATOM      3  N   UNL     1      -1.631  -2.848   3.892  0.00  0.00    -0.219 N 
ATOM      4  C   UNL     1      -1.679  -4.039   3.237  0.00  0.00    +0.174 C 
ATOM      5  S   UNL     1      -2.863  -5.250   3.491  0.00  0.00    -0.015 S 
ATOM      6  N   UNL     1      -0.655  -4.130   2.356  0.00  0.00    -0.172 N 
ATOM      7  H   UNL     1      -2.275  -2.585   4.567  0.00  0.00    +0.176 HD
ENDROOT
BRANCH   1  13
ATOM      8  C   UNL     1       0.040   1.511   0.064  0.00  0.00    +0.044 C 
ATOM      9  C   UNL     1       0.048   0.004   0.043  0.00  0.00    -0.050 A 
ATOM     10  C   UNL     1       0.048  -0.671  -1.163  0.00  0.00    +0.003 A 
ATOM     11  C   UNL     1       0.055  -2.053  -1.181  0.00  0.00    +0.001 A 
ATOM     12  C   UNL     1       0.063  -2.760   0.007  0.00  0.00    +0.007 A 
ATOM     13  C   UNL     1       0.064  -2.085   1.213  0.00  0.00    -0.002 A 
ATOM     14  C   UNL     1       0.061  -0.703   1.231  0.00  0.00    +0.010 A 
ENDBRANCH   1  13
BRANCH   6  15
ATOM     15  N   UNL     1      -0.352  -5.192   1.494  0.00  0.00    -0.183 NA
ATOM     16  C   UNL     1      -1.032  -6.297   1.562  0.00  0.00    +0.140 C 
BRANCH  16  17
ATOM     17  C   UNL     1      -0.637  -7.457   0.742  0.00  0.00    +0.013 A 
ATOM     18  C   UNL     1      -1.369  -8.645   0.808  0.00  0.00    +0.012 A 
ATOM     19  C   UNL     1      -0.995  -9.726   0.038  0.00  0.00    +0.021 A 
ATOM     20  C   UNL     1       0.105  -9.636  -0.800  0.00  0.00    +0.042 A 
ATOM     21  C   UNL     1       0.836  -8.463  -0.871  0.00  0.00    +0.040 A 
ATOM     22  C   UNL     1       0.469  -7.371  -0.110  0.00  0.00    +0.051 A 
ATOM     23 CL   UNL     1       1.382  -5.897  -0.205  0.00  0.00    -0.083 Cl
ATOM     24 CL   UNL     1       0.570 -11.003  -1.764  0.00  0.00    -0.083 Cl
ENDBRANCH  16  17
ENDBRANCH   6  15
TORSDOF 3
