REMARK  Name = ZINC36549449
REMARK  7 active torsions:
REMARK  status: ('A' for Active; 'I' for Inactive)
REMARK    1  A    between atoms: C_5  and  N_7
REMARK    2  A    between atoms: N_7  and  C_8
REMARK    3  A    between atoms: C_8  and  C_10
REMARK    4  A    between atoms: C_8  and  C_19
REMARK    5  A    between atoms: C_13  and  N_16
REMARK    6  A    between atoms: N_21  and  C_22
REMARK    7  A    between atoms: C_28  and  C_30
REMARK                            x       y       z     vdW  Elec       q    Type
REMARK                         _______ _______ _______ _____ _____    ______ ____
ROOT
ATOM      1  C   UNL     1       1.301  -2.796  -1.154  0.00  0.00    +0.198 C 
ENDROOT
BRANCH   1   2
ATOM      2  C   UNL     1      -0.044  -2.117  -1.193  0.00  0.00    -0.018 A 
ATOM      3  C   UNL     1      -0.183  -0.830  -0.707  0.00  0.00    +0.008 A 
ATOM      4  C   UNL     1      -1.416  -0.207  -0.743  0.00  0.00    +0.033 A 
ATOM      5  C   UNL     1      -2.511  -0.871  -1.265  0.00  0.00    +0.126 A 
ATOM      6  C   UNL     1      -2.371  -2.157  -1.753  0.00  0.00    +0.033 A 
ATOM      7  C   UNL     1      -1.137  -2.778  -1.721  0.00  0.00    +0.008 A 
BRANCH   5   8
ATOM      8  N   UNL     1      -3.832  -0.204  -1.303  0.00  0.00    +0.056 N 
ATOM      9  O   UNL     1      -3.954   0.920  -0.876  0.00  0.00    -0.126 OA
ATOM     10  O   UNL     1      -4.789  -0.784  -1.760  0.00  0.00    -0.126 OA
ENDBRANCH   5   8
ENDBRANCH   1   2
BRANCH   1  11
ATOM     11  C   UNL     1       2.269  -2.044  -2.032  0.00  0.00    +0.239 C 
ATOM     12  O   UNL     1       3.049  -1.257  -1.539  0.00  0.00    -0.273 OA
ATOM     13  N   UNL     1       2.268  -2.247  -3.364  0.00  0.00    -0.311 N 
ATOM     14  H   UNL     1       1.644  -2.877  -3.758  0.00  0.00    +0.149 HD
BRANCH  13  15
ATOM     15  C   UNL     1       3.208  -1.517  -4.217  0.00  0.00    +0.073 C 
ATOM     16  C   UNL     1       2.619  -0.150  -4.573  0.00  0.00    +0.022 C 
ATOM     17  C   UNL     1       3.602   0.613  -5.464  0.00  0.00    +0.002 C 
ATOM     18  C   UNL     1       3.852  -0.184  -6.746  0.00  0.00    +0.000 C 
ATOM     19  C   UNL     1       4.441  -1.550  -6.390  0.00  0.00    +0.002 C 
ATOM     20  C   UNL     1       3.459  -2.313  -5.499  0.00  0.00    +0.022 C 
ENDBRANCH  13  15
ENDBRANCH   1  11
BRANCH   1  21
ATOM     21  N   UNL     1       1.801  -2.810   0.223  0.00  0.00    -0.250 N 
ATOM     22  C   UNL     1       2.957  -3.439   0.513  0.00  0.00    +0.253 C 
ATOM     23  O   UNL     1       3.632  -3.914  -0.380  0.00  0.00    -0.270 OA
BRANCH  21  28
ATOM     24  C   UNL     1      -0.807  -2.106   2.717  0.00  0.00    +0.002 A 
ATOM     25  C   UNL     1      -0.353  -0.909   3.240  0.00  0.00    +0.002 A 
ATOM     26  C   UNL     1       0.815  -0.341   2.764  0.00  0.00    +0.022 A 
ATOM     27  C   UNL     1       1.532  -0.969   1.764  0.00  0.00    +0.062 A 
ATOM     28  C   UNL     1       1.078  -2.172   1.236  0.00  0.00    +0.056 A 
ATOM     29  C   UNL     1      -0.095  -2.739   1.717  0.00  0.00    +0.025 A 
ATOM     30 CL   UNL     1       2.997  -0.256   1.166  0.00  0.00    -0.082 Cl
ENDBRANCH  21  28
BRANCH  22  31
ATOM     31  C   UNL     1       3.405  -3.551   1.917  0.00  0.00    +0.055 A 
ATOM     32  C   UNL     1       2.478  -3.755   2.946  0.00  0.00    +0.016 A 
ATOM     33  C   UNL     1       2.949  -3.853   4.244  0.00  0.00    +0.020 A 
ATOM     34  C   UNL     1       4.308  -3.746   4.481  0.00  0.00    +0.111 A 
ATOM     35  N   UNL     1       5.159  -3.553   3.491  0.00  0.00    -0.263 NA
ATOM     36  C   UNL     1       4.760  -3.460   2.239  0.00  0.00    +0.123 A 
ENDBRANCH  22  31
ENDBRANCH   1  21
TORSDOF 7
