REMARK  Name = ZINC00937276
REMARK  13 active torsions:
REMARK  status: ('A' for Active; 'I' for Inactive)
REMARK    1  A    between atoms: C_1  and  C_2
REMARK    2  A    between atoms: C_2  and  C_3
REMARK    3  A    between atoms: C_2  and  S_4
REMARK    4  A    between atoms: S_4  and  C_5
REMARK    5  A    between atoms: C_16  and  C_18
REMARK    6  A    between atoms: C_20  and  O_28
REMARK    7  A    between atoms: C_21  and  O_26
REMARK    8  A    between atoms: C_23  and  O_24
REMARK    9  A    between atoms: O_24  and  C_25
REMARK   10  A    between atoms: O_26  and  C_27
REMARK   11  A    between atoms: O_28  and  C_29
REMARK   12  A    between atoms: C_33  and  C_35
REMARK   13  A    between atoms: C_33  and  C_36
REMARK                            x       y       z     vdW  Elec       q    Type
REMARK                         _______ _______ _______ _____ _____    ______ ____
ROOT
ATOM      1  C   UNL     1       0.832   8.241   5.418  0.00  0.00    +0.171 A 
ATOM      2  N   UNL     1       1.581   7.965   4.314  0.00  0.00    -0.302 N 
ATOM      3  H   UNL     1       2.547   8.027   4.357  0.00  0.00    +0.171 HD
ATOM      4  C   UNL     1       0.979   7.606   3.160  0.00  0.00    +0.258 A 
ATOM      5  O   UNL     1       1.642   7.356   2.165  0.00  0.00    -0.267 OA
ATOM      6  C   UNL     1      -0.418   7.526   3.125  0.00  0.00    +0.069 A 
ATOM      7  C   UNL     1      -1.132   7.819   4.274  0.00  0.00    +0.135 A 
ATOM      8  N   UNL     1      -0.484   8.167   5.390  0.00  0.00    -0.208 NA
ATOM      9  N   UNL     1      -2.511   7.753   4.256  0.00  0.00    -0.302 N 
ATOM     10  C   UNL     1      -3.196   7.795   3.072  0.00  0.00    +0.017 C 
ATOM     11  C   UNL     1      -2.582   7.506   1.907  0.00  0.00    +0.024 C 
ATOM     12  C   UNL     1      -1.123   7.128   1.863  0.00  0.00    +0.096 C 
ATOM     13  C   UNL     1      -3.285   7.548   0.688  0.00  0.00    +0.162 C 
ATOM     14  O   UNL     1      -2.698   7.301  -0.347  0.00  0.00    -0.292 OA
ATOM     15  C   UNL     1      -4.748   7.892   0.642  0.00  0.00    +0.086 C 
ATOM     16  C   UNL     1      -5.398   7.478   1.967  0.00  0.00    -0.023 C 
ATOM     17  C   UNL     1      -4.656   8.176   3.108  0.00  0.00    +0.058 C 
ATOM     18  C   UNL     1      -5.296   5.961   2.139  0.00  0.00    +0.011 C 
ATOM     19  C   UNL     1      -6.869   7.900   1.974  0.00  0.00    +0.011 C 
ATOM     20  H   UNL     1      -2.999   7.676   5.091  0.00  0.00    +0.153 HD
ENDROOT
BRANCH  12  21
ATOM     21  C   UNL     1      -1.005   5.636   1.682  0.00  0.00    +0.010 A 
ATOM     22  C   UNL     1      -1.533   4.782   2.633  0.00  0.00    +0.057 A 
ATOM     23  C   UNL     1      -1.427   3.411   2.469  0.00  0.00    +0.162 A 
ATOM     24  C   UNL     1      -0.787   2.893   1.346  0.00  0.00    +0.165 A 
ATOM     25  C   UNL     1      -0.254   3.750   0.398  0.00  0.00    +0.095 A 
ATOM     26  C   UNL     1      -0.367   5.122   0.563  0.00  0.00    +0.128 A 
BRANCH  26  27
ATOM     27  O   UNL     1       0.152   5.964  -0.369  0.00  0.00    -0.495 OA
ATOM     28  C   UNL     1       0.795   5.366  -1.497  0.00  0.00    +0.277 C 
ENDBRANCH  26  27
BRANCH  24  29
ATOM     29  O   UNL     1      -0.682   1.547   1.184  0.00  0.00    -0.491 OA
ATOM     30  C   UNL     1      -0.013   1.086   0.008  0.00  0.00    +0.277 C 
ENDBRANCH  24  29
BRANCH  23  31
ATOM     31  O   UNL     1      -1.947   2.571   3.405  0.00  0.00    -0.491 OA
ATOM     32  C   UNL     1      -2.589   3.172   4.531  0.00  0.00    +0.277 C 
ENDBRANCH  23  31
ENDBRANCH  12  21
BRANCH   1  33
ATOM     33  S   UNL     1       1.638   8.704   6.914  0.00  0.00    -0.085 S 
BRANCH  33  35
ATOM     34  C   UNL     1       0.670   9.233   9.413  0.00  0.00    +0.019 C 
ATOM     35  C   UNL     1       0.200   8.937   7.988  0.00  0.00    +0.048 C 
ATOM     36  C   UNL     1      -0.637  10.110   7.473  0.00  0.00    +0.019 C 
ENDBRANCH  33  35
ENDBRANCH   1  33
TORSDOF 6
