REMARK  Name = ZINC36038423
REMARK  11 active torsions:
REMARK  status: ('A' for Active; 'I' for Inactive)
REMARK    1  A    between atoms: C_1  and  C_2
REMARK    2  A    between atoms: C_2  and  C_3
REMARK    3  A    between atoms: C_2  and  C_4
REMARK    4  A    between atoms: C_4  and  C_5
REMARK    5  A    between atoms: N_9  and  C_28
REMARK    6  A    between atoms: N_14  and  S_17
REMARK    7  A    between atoms: S_17  and  C_20
REMARK    8  A    between atoms: C_28  and  C_29
REMARK    9  A    between atoms: C_29  and  C_30
REMARK   10  A    between atoms: C_30  and  O_31
REMARK   11  A    between atoms: O_31  and  C_32
REMARK                            x       y       z     vdW  Elec       q    Type
REMARK                         _______ _______ _______ _____ _____    ______ ____
ROOT
ATOM      1  C   UNL     1      -0.652  -1.639   0.592  0.00  0.00    +0.019 C 
ATOM      2  C   UNL     1      -1.879  -2.433   0.196  0.00  0.00    +0.200 C 
ATOM      3  O   UNL     1      -2.354  -2.493  -0.918  0.00  0.00    -0.277 OA
ATOM      4  N   UNL     1      -2.354  -3.062   1.291  0.00  0.00    -0.314 N 
ATOM      5  C   UNL     1      -1.512  -2.736   2.445  0.00  0.00    +0.006 C 
ATOM      6  N   UNL     1      -0.243  -2.200   1.902  0.00  0.00    +0.401 N 
ATOM      7  C   UNL     1      -1.231  -3.994   3.266  0.00  0.00    +0.023 C 
ATOM      8  C   UNL     1      -2.553  -4.562   3.792  0.00  0.00    +0.109 C 
ATOM      9  N   UNL     1      -3.268  -3.504   4.519  0.00  0.00    -0.177 NA
ATOM     10  C   UNL     1      -3.520  -2.226   3.838  0.00  0.00    +0.109 C 
ATOM     11  C   UNL     1      -2.190  -1.677   3.312  0.00  0.00    +0.023 C 
ATOM     12  H   UNL     1       0.433  -2.940   1.778  0.00  0.00    -0.082 HD
ATOM     13  H   UNL     1       0.125  -1.476   2.501  0.00  0.00    -0.082 HD
ENDROOT
BRANCH   9  14
ATOM     14  S   UNL     1      -3.779  -3.746   6.075  0.00  0.00    +0.061 S 
ATOM     15  O   UNL     1      -4.860  -2.849   6.291  0.00  0.00    -0.153 OA
ATOM     16  O   UNL     1      -3.908  -5.150   6.246  0.00  0.00    -0.153 OA
BRANCH  14  17
ATOM     17  C   UNL     1      -2.474  -3.227   7.139  0.00  0.00    +0.107 A 
ATOM     18  C   UNL     1      -1.501  -4.128   7.530  0.00  0.00    +0.030 A 
ATOM     19  C   UNL     1      -0.477  -3.722   8.365  0.00  0.00    +0.023 A 
ATOM     20  C   UNL     1      -0.425  -2.413   8.809  0.00  0.00    +0.059 A 
ATOM     21  C   UNL     1      -1.399  -1.510   8.418  0.00  0.00    +0.061 A 
ATOM     22  C   UNL     1      -2.420  -1.917   7.578  0.00  0.00    +0.050 A 
ATOM     23 CL   UNL     1      -1.335   0.132   8.975  0.00  0.00    -0.082 Cl
ATOM     24 CL   UNL     1       0.861  -1.903   9.858  0.00  0.00    -0.082 Cl
ENDBRANCH  14  17
ENDBRANCH   9  14
BRANCH   1  25
ATOM     25  C   UNL     1      -1.000  -0.156   0.733  0.00  0.00    -0.004 C 
BRANCH  25  27
ATOM     26  C   UNL     1      -1.752   1.882  -0.500  0.00  0.00    +0.007 C 
ATOM     27  C   UNL     1      -1.269   0.439  -0.651  0.00  0.00    -0.018 C 
ATOM     28  C   UNL     1       0.020   0.416  -1.474  0.00  0.00    +0.007 C 
ENDBRANCH  25  27
ENDBRANCH   1  25
BRANCH   4  29
ATOM     29  C   UNL     1      -3.529  -3.935   1.321  0.00  0.00    +0.108 C 
BRANCH  29  30
ATOM     30  C   UNL     1      -3.108  -5.369   0.995  0.00  0.00    +0.047 C 
BRANCH  30  31
ATOM     31  C   UNL     1      -4.309  -6.303   1.156  0.00  0.00    +0.161 C 
BRANCH  31  32
ATOM     32  O   UNL     1      -3.915  -7.643   0.851  0.00  0.00    -0.383 OA
ATOM     33  C   UNL     1      -4.970  -8.600   0.971  0.00  0.00    +0.193 C 
ENDBRANCH  31  32
ENDBRANCH  30  31
ENDBRANCH  29  30
ENDBRANCH   4  29
TORSDOF 8
