REMARK  Name = ZINC07812094
REMARK  9 active torsions:
REMARK  status: ('A' for Active; 'I' for Inactive)
REMARK    1  A    between atoms: C_1  and  C_2
REMARK    2  A    between atoms: C_2  and  O_3
REMARK    3  A    between atoms: O_3  and  C_4
REMARK    4  A    between atoms: C_4  and  C_6
REMARK    5  A    between atoms: C_11  and  C_12
REMARK    6  A    between atoms: C_11  and  N_60
REMARK    7  A    between atoms: C_15  and  C_27
REMARK    8  A    between atoms: C_18  and  C_20
REMARK    9  A    between atoms: C_23  and  C_26
REMARK                            x       y       z     vdW  Elec       q    Type
REMARK                         _______ _______ _______ _____ _____    ______ ____
ROOT
ATOM      1  C   UNL     1      -0.858   5.084   7.521  0.00  0.00    +0.219 C 
ATOM      2  O   UNL     1      -0.336   5.650   6.584  0.00  0.00    -0.276 OA
ATOM      3  N   UNL     1      -1.210   5.781   8.619  0.00  0.00    -0.184 N 
ATOM      4  C   UNL     1      -1.014   7.227   8.814  0.00  0.00    +0.172 C 
ATOM      5  C   UNL     1      -1.591   7.483  10.220  0.00  0.00    +0.090 C 
ATOM      6  C   UNL     1      -2.054   6.118  10.678  0.00  0.00    +0.069 C 
ATOM      7  N   UNL     1      -1.813   5.251   9.757  0.00  0.00    -0.181 NA
ENDROOT
BRANCH   6   8
ATOM      8  C   UNL     1      -2.684   5.826  11.979  0.00  0.00    -0.002 A 
ATOM      9  C   UNL     1      -2.890   6.851  12.905  0.00  0.00    +0.010 A 
ATOM     10  C   UNL     1      -3.485   6.571  14.118  0.00  0.00    +0.004 A 
ATOM     11  C   UNL     1      -3.866   5.276  14.423  0.00  0.00    -0.050 A 
ATOM     12  C   UNL     1      -3.660   4.255  13.512  0.00  0.00    +0.004 A 
ATOM     13  C   UNL     1      -3.072   4.521  12.293  0.00  0.00    +0.010 A 
ATOM     14  C   UNL     1      -4.510   4.977  15.752  0.00  0.00    +0.044 C 
ENDBRANCH   6   8
BRANCH   4  15
ATOM     15  C   UNL     1       0.452   7.574   8.769  0.00  0.00    +0.128 A 
ATOM     16  C   UNL     1       0.983   8.673   8.204  0.00  0.00    +0.046 A 
ATOM     17  C   UNL     1       2.382   8.595   8.392  0.00  0.00    +0.041 A 
ATOM     18  C   UNL     1       2.623   7.452   9.060  0.00  0.00    +0.195 A 
ATOM     19  O   UNL     1       1.449   6.841   9.290  0.00  0.00    -0.466 OA
ENDBRANCH   4  15
BRANCH   1  20
ATOM     20  C   UNL     1      -1.113   3.600   7.457  0.00  0.00    +0.021 C 
BRANCH  20  26
ATOM     21  C   UNL     1      -0.817   1.643   3.667  0.00  0.00    +0.094 C 
ATOM     22  C   UNL     1      -0.830   3.173   3.726  0.00  0.00    -0.004 C 
ATOM     23  C   UNL     1      -1.436   3.621   5.058  0.00  0.00    -0.077 C 
ATOM     24  C   UNL     1      -0.655   1.609   6.158  0.00  0.00    -0.077 C 
ATOM     25  C   UNL     1      -0.025   1.100   4.859  0.00  0.00    -0.004 C 
ATOM     26  N   UNL     1      -0.614   3.087   6.164  0.00  0.00    +0.385 N 
ATOM     27  H   UNL     1       0.357   3.394   6.036  0.00  0.00    -0.081 HD
BRANCH  21  28
ATOM     28  C   UNL     1      -0.166   1.194   2.384  0.00  0.00    +0.310 C 
ATOM     29  O   UNL     1       0.829   0.510   2.418  0.00  0.00    -0.251 OA
BRANCH  28  30
ATOM     30  O   UNL     1      -0.692   1.554   1.203  0.00  0.00    -0.465 OA
BRANCH  30  32
ATOM     31  C   UNL     1      -0.753   1.593  -1.232  0.00  0.00    +0.048 C 
ATOM     32  C   UNL     1      -0.013   1.086   0.008  0.00  0.00    +0.229 C 
ENDBRANCH  30  32
ENDBRANCH  28  30
ENDBRANCH  21  28
ENDBRANCH  20  26
ENDBRANCH   1  20
TORSDOF 7
