REMARK  Name = ZINC00480338
REMARK  2 active torsions:
REMARK  status: ('A' for Active; 'I' for Inactive)
REMARK    1  A    between atoms: C_4  and  C_7
REMARK    2  A    between atoms: C_7  and  N_8
REMARK                            x       y       z     vdW  Elec       q    Type
REMARK                         _______ _______ _______ _____ _____    ______ ____
ROOT
ATOM      1  N   UNL     1      -2.927   0.722   1.401  0.00  0.00    -0.233 N 
ATOM      2  C   UNL     1      -3.731   1.603   2.093  0.00  0.00    +0.129 C 
ATOM      3  N   UNL     1      -4.742   2.168   1.564  0.00  0.00    -0.233 NA
ATOM      4  C   UNL     1      -5.711   3.018   1.976  0.00  0.00    +0.080 A 
ATOM      5  C   UNL     1      -6.684   3.448   1.064  0.00  0.00    +0.049 A 
ATOM      6  C   UNL     1      -7.684   4.308   1.467  0.00  0.00    +0.043 A 
ATOM      7  C   UNL     1      -7.756   4.766   2.772  0.00  0.00    +0.021 A 
ATOM      8  C   UNL     1      -6.803   4.358   3.694  0.00  0.00    +0.018 A 
ATOM      9  C   UNL     1      -5.806   3.506   3.296  0.00  0.00    +0.034 A 
ATOM     10  S   UNL     1      -4.536   2.948   4.411  0.00  0.00    -0.112 S 
ATOM     11  C   UNL     1      -3.336   1.841   3.555  0.00  0.00    +0.125 C 
ATOM     12  C   UNL     1      -3.450   0.473   4.228  0.00  0.00    +0.119 C 
ATOM     13  C   UNL     1      -2.746  -0.570   3.405  0.00  0.00    +0.231 C 
ATOM     14  O   UNL     1      -2.363  -1.579   3.957  0.00  0.00    -0.274 OA
ATOM     15  N   UNL     1      -2.527  -0.439   2.088  0.00  0.00    -0.233 N 
ATOM     16 CL   UNL     1      -8.876   4.826   0.316  0.00  0.00    -0.083 Cl
ATOM     17  H   UNL     1      -2.084  -1.153   1.603  0.00  0.00    +0.173 HD
ENDROOT
BRANCH   1  18
ATOM     18  C   UNL     1      -2.514   0.980   0.019  0.00  0.00    +0.164 C 
BRANCH  18  22
ATOM     19  C   UNL     1       1.156   3.165   0.008  0.00  0.00    +0.000 A 
ATOM     20  C   UNL     1       1.175   1.783   0.000  0.00  0.00    +0.000 A 
ATOM     21  C   UNL     1      -0.013   1.076   0.008  0.00  0.00    +0.005 A 
ATOM     22  C   UNL     1      -1.219   1.751   0.017  0.00  0.00    -0.028 A 
ATOM     23  C   UNL     1      -1.238   3.133   0.030  0.00  0.00    +0.005 A 
ATOM     24  C   UNL     1      -0.050   3.840   0.023  0.00  0.00    +0.000 A 
ENDBRANCH  18  22
ENDBRANCH   1  18
TORSDOF 2
