REMARK  Name = ZINC39611082
REMARK  11 active torsions:
REMARK  status: ('A' for Active; 'I' for Inactive)
REMARK    1  A    between atoms: C_1  and  C_2
REMARK    2  A    between atoms: C_2  and  N_3
REMARK    3  A    between atoms: N_3  and  C_4
REMARK    4  A    between atoms: N_3  and  S_6
REMARK    5  A    between atoms: C_4  and  C_5
REMARK    6  A    between atoms: S_6  and  C_9
REMARK    7  A    between atoms: C_13  and  N_15
REMARK    8  A    between atoms: C_16  and  C_18
REMARK    9  A    between atoms: C_18  and  O_19
REMARK   10  A    between atoms: O_19  and  C_20
REMARK   11  A    between atoms: C_20  and  C_22
REMARK                            x       y       z     vdW  Elec       q    Type
REMARK                         _______ _______ _______ _____ _____    ______ ____
ROOT
ATOM      1  N   UNL     1       1.465   2.331  -6.213  0.00  0.00    -0.281 N 
ATOM      2  C   UNL     1       2.558   1.554  -6.339  0.00  0.00    +0.255 C 
ATOM      3  O   UNL     1       2.670   0.551  -5.666  0.00  0.00    -0.272 OA
ATOM      4  H   UNL     1       1.336   3.087  -6.808  0.00  0.00    +0.155 HD
ENDROOT
BRANCH   1   9
ATOM      5  C   UNL     1      -0.057   1.068  -3.113  0.00  0.00    +0.107 A 
ATOM      6  C   UNL     1      -1.365   1.488  -3.272  0.00  0.00    +0.030 A 
ATOM      7  C   UNL     1      -1.736   2.189  -4.405  0.00  0.00    +0.024 A 
ATOM      8  C   UNL     1      -0.800   2.470  -5.383  0.00  0.00    +0.062 A 
ATOM      9  C   UNL     1       0.514   2.049  -5.225  0.00  0.00    +0.054 A 
ATOM     10  C   UNL     1       0.884   1.350  -4.083  0.00  0.00    +0.053 A 
ATOM     11 CL   UNL     1      -1.267   3.348  -6.805  0.00  0.00    -0.082 Cl
BRANCH   5  12
ATOM     12  S   UNL     1       0.411   0.176  -1.667  0.00  0.00    +0.061 S 
ATOM     13  O   UNL     1       1.569  -0.573  -2.009  0.00  0.00    -0.153 OA
ATOM     14  O   UNL     1      -0.771  -0.435  -1.167  0.00  0.00    -0.153 OA
BRANCH  12  15
ATOM     15  N   UNL     1       0.883   1.289  -0.536  0.00  0.00    -0.177 NA
BRANCH  15  17
ATOM     16  C   UNL     1      -0.624   3.178  -0.161  0.00  0.00    +0.022 C 
ATOM     17  C   UNL     1      -0.100   1.852   0.393  0.00  0.00    +0.106 C 
ENDBRANCH  15  17
BRANCH  15  18
ATOM     18  C   UNL     1       2.284   1.712  -0.465  0.00  0.00    +0.106 C 
ATOM     19  C   UNL     1       3.016   0.875   0.586  0.00  0.00    +0.022 C 
ENDBRANCH  15  18
ENDBRANCH  12  15
ENDBRANCH   5  12
ENDBRANCH   1   9
BRANCH   2  20
ATOM     20  C   UNL     1       3.642   1.930  -7.316  0.00  0.00    +0.328 C 
BRANCH  20  21
ATOM     21  O   UNL     1       4.688   0.957  -7.265  0.00  0.00    -0.452 OA
BRANCH  21  22
ATOM     22  C   UNL     1       5.741   1.147  -8.084  0.00  0.00    +0.337 C 
ATOM     23  O   UNL     1       5.771   2.112  -8.820  0.00  0.00    -0.245 OA
BRANCH  22  24
ATOM     24  C   UNL     1       6.858   0.182  -8.086  0.00  0.00    +0.054 C 
ATOM     25  C   UNL     1       6.807  -0.980  -7.345  0.00  0.00    +0.007 A 
ATOM     26  C   UNL     1       5.638  -1.301  -6.526  0.00  0.00    +0.010 A 
ATOM     27  C   UNL     1       5.636  -2.456  -5.816  0.00  0.00    +0.001 A 
ATOM     28  C   UNL     1       6.722  -3.339  -5.851  0.00  0.00    +0.002 A 
ATOM     29  C   UNL     1       7.835  -3.103  -6.587  0.00  0.00    +0.024 A 
ATOM     30  C   UNL     1       7.941  -1.929  -7.365  0.00  0.00    +0.041 A 
ATOM     31  N   UNL     1       9.032  -1.704  -8.082  0.00  0.00    -0.285 N 
ATOM     32  C   UNL     1       9.200  -0.623  -8.835  0.00  0.00    +0.222 C 
ATOM     33  O   UNL     1      10.227  -0.477  -9.469  0.00  0.00    -0.275 OA
ATOM     34  C   UNL     1       8.110   0.422  -8.908  0.00  0.00    +0.139 C 
ATOM     35  H   UNL     1       9.744  -2.362  -8.056  0.00  0.00    +0.155 HD
ENDBRANCH  22  24
ENDBRANCH  21  22
ENDBRANCH  20  21
ENDBRANCH   2  20
TORSDOF 9
