REMARK  Name = ZINC63117808
REMARK  6 active torsions:
REMARK  status: ('A' for Active; 'I' for Inactive)
REMARK    1  A    between atoms: C_1  and  C_2
REMARK    2  A    between atoms: N_4  and  C_5
REMARK    3  A    between atoms: C_5  and  C_7
REMARK    4  A    between atoms: C_5  and  C_25
REMARK    5  A    between atoms: C_7  and  C_8
REMARK    6  A    between atoms: C_13  and  C_16
REMARK                            x       y       z     vdW  Elec       q    Type
REMARK                         _______ _______ _______ _____ _____    ______ ____
ROOT
ATOM      1  C   UNL     1      -2.488  -2.300   2.075  0.00  0.00    +0.218 C 
ATOM      2  O   UNL     1      -1.583  -1.660   2.568  0.00  0.00    -0.276 OA
ATOM      3  N   UNL     1      -3.546  -2.662   2.828  0.00  0.00    -0.301 N 
ATOM      4  C   UNL     1      -4.647  -3.442   2.247  0.00  0.00    +0.108 C 
ATOM      5  C   UNL     1      -5.966  -2.713   2.521  0.00  0.00    +0.027 C 
ATOM      6  C   UNL     1      -6.101  -2.458   4.024  0.00  0.00    +0.020 C 
ATOM      7  C   UNL     1      -4.950  -1.568   4.497  0.00  0.00    +0.027 C 
ATOM      8  C   UNL     1      -3.617  -2.289   4.248  0.00  0.00    +0.108 C 
ENDROOT
BRANCH   6   9
ATOM      9  C   UNL     1      -7.414  -1.771   4.300  0.00  0.00    -0.038 C 
ATOM     10  C   UNL     1      -8.418  -2.223   5.086  0.00  0.00    -0.001 A 
ATOM     11  C   UNL     1      -8.583  -3.442   5.886  0.00  0.00    +0.010 A 
ATOM     12  C   UNL     1      -9.729  -3.619   6.582  0.00  0.00    +0.001 A 
ATOM     13  C   UNL     1     -10.760  -2.670   6.559  0.00  0.00    +0.002 A 
ATOM     14  C   UNL     1     -10.681  -1.526   5.848  0.00  0.00    +0.026 A 
ATOM     15  C   UNL     1      -9.521  -1.236   5.079  0.00  0.00    +0.043 A 
ATOM     16  N   UNL     1      -9.211  -0.214   4.318  0.00  0.00    -0.380 N 
ATOM     17  C   UNL     1      -7.872  -0.434   3.761  0.00  0.00    +0.145 C 
ATOM     18  H   UNL     1      -9.771   0.561   4.155  0.00  0.00    +0.160 HD
ENDBRANCH   6   9
BRANCH   1  19
ATOM     19  C   UNL     1      -2.430  -2.690   0.621  0.00  0.00    +0.123 C 
BRANCH  19  20
ATOM     20  C   UNL     1      -1.136  -2.159   0.001  0.00  0.00    +0.118 C 
BRANCH  20  24
ATOM     21  C   UNL     1      -0.018   1.503   0.010  0.00  0.00    +0.109 C 
ATOM     22  C   UNL     1       0.002  -0.004   0.002  0.00  0.00    +0.210 C 
ATOM     23  O   UNL     1       1.060  -0.596  -0.011  0.00  0.00    -0.276 OA
ATOM     24  N   UNL     1      -1.156  -0.694   0.009  0.00  0.00    -0.308 N 
ATOM     25  H   UNL     1      -2.002  -0.220   0.020  0.00  0.00    +0.149 HD
ENDBRANCH  20  24
BRANCH  20  26
ATOM     26  C   UNL     1      -1.019  -2.652  -1.418  0.00  0.00    +0.010 A 
ATOM     27  C   UNL     1      -0.293  -3.688  -1.905  0.00  0.00    +0.013 A 
ATOM     28  C   UNL     1      -0.338  -3.960  -3.259  0.00  0.00    +0.008 A 
ATOM     29  C   UNL     1      -1.108  -3.184  -4.060  0.00  0.00    +0.045 A 
ATOM     30  S   UNL     1      -1.807  -2.028  -2.893  0.00  0.00    -0.100 S 
ENDBRANCH  20  26
ENDBRANCH  19  20
ENDBRANCH   1  19
TORSDOF 5
