REMARK  Name = ZINC06244805
REMARK  12 active torsions:
REMARK  status: ('A' for Active; 'I' for Inactive)
REMARK    1  A    between atoms: C_1  and  C_2
REMARK    2  A    between atoms: C_5  and  C_38
REMARK    3  A    between atoms: C_9  and  C_14
REMARK    4  A    between atoms: C_14  and  C_16
REMARK    5  A    between atoms: C_14  and  N_70
REMARK    6  A    between atoms: N_20  and  C_21
REMARK    7  A    between atoms: C_21  and  C_22
REMARK    8  A    between atoms: C_22  and  O_23
REMARK    9  A    between atoms: O_23  and  C_24
REMARK   10  A    between atoms: N_27  and  C_30
REMARK   11  A    between atoms: C_33  and  O_36
REMARK   12  A    between atoms: O_36  and  C_37
REMARK                            x       y       z     vdW  Elec       q    Type
REMARK                         _______ _______ _______ _____ _____    ______ ____
ROOT
ATOM      1  C   UNL     1      -0.013   1.086   0.008  0.00  0.00    +0.039 C 
ENDROOT
BRANCH   1  10
ATOM      2  C   UNL     1       2.874   4.147   3.076  0.00  0.00    +0.044 C 
ATOM      3  C   UNL     1       3.720   3.782   1.884  0.00  0.00    -0.041 A 
ATOM      4  C   UNL     1       4.998   4.254   1.780  0.00  0.00    +0.004 A 
ATOM      5  C   UNL     1       5.785   3.925   0.685  0.00  0.00    +0.005 A 
ATOM      6  C   UNL     1       5.294   3.116  -0.317  0.00  0.00    -0.026 A 
ATOM      7  C   UNL     1       3.997   2.623  -0.232  0.00  0.00    +0.052 A 
ATOM      8  C   UNL     1       3.201   2.959   0.880  0.00  0.00    +0.002 A 
ATOM      9  C   UNL     1       1.835   2.439   0.958  0.00  0.00    +0.018 A 
ATOM     10  C   UNL     1       1.387   1.642  -0.044  0.00  0.00    +0.011 A 
ATOM     11  C   UNL     1       2.225   1.335  -1.137  0.00  0.00    +0.251 A 
ATOM     12  O   UNL     1       1.802   0.620  -2.028  0.00  0.00    -0.268 OA
ATOM     13  N   UNL     1       3.480   1.812  -1.220  0.00  0.00    -0.322 N 
ATOM     14  H   UNL     1       4.029   1.582  -1.985  0.00  0.00    +0.169 HD
ATOM     15  C   UNL     1       6.160   2.768  -1.500  0.00  0.00    +0.046 C 
ENDBRANCH   1  10
BRANCH   1  21
ATOM     16  C   UNL     1      -0.757   3.009  -1.262  0.00  0.00    -0.058 C 
ATOM     17  C   UNL     1      -1.480   3.440  -2.540  0.00  0.00    +0.086 C 
ATOM     18  N   UNL     1      -2.856   2.924  -2.519  0.00  0.00    -0.333 N 
ATOM     19  C   UNL     1      -2.864   1.457  -2.425  0.00  0.00    +0.086 C 
ATOM     20  C   UNL     1      -2.140   1.026  -1.147  0.00  0.00    -0.058 C 
ATOM     21  N   UNL     1      -0.752   1.532  -1.192  0.00  0.00    +0.391 N 
ATOM     22  H   UNL     1      -0.288   1.160  -2.028  0.00  0.00    -0.080 HD
BRANCH  18  23
ATOM     23  C   UNL     1      -3.572   3.358  -3.640  0.00  0.00    +0.030 A 
ATOM     24  C   UNL     1      -4.166   2.432  -4.487  0.00  0.00    +0.027 A 
ATOM     25  C   UNL     1      -4.877   2.862  -5.590  0.00  0.00    +0.047 A 
ATOM     26  C   UNL     1      -4.989   4.219  -5.858  0.00  0.00    +0.120 A 
ATOM     27  C   UNL     1      -4.392   5.144  -5.015  0.00  0.00    +0.047 A 
ATOM     28  C   UNL     1      -3.685   4.716  -3.909  0.00  0.00    +0.027 A 
BRANCH  26  29
ATOM     29  O   UNL     1      -5.685   4.641  -6.947  0.00  0.00    -0.495 OA
ATOM     30  C   UNL     1      -6.274   3.634  -7.772  0.00  0.00    +0.277 C 
ENDBRANCH  26  29
ENDBRANCH  18  23
ENDBRANCH   1  21
BRANCH   1  31
ATOM     31  C   UNL     1      -0.699   1.568   1.260  0.00  0.00    +0.143 A 
ATOM     32  N   UNL     1      -1.167   2.772   1.482  0.00  0.00    -0.115 NA
ATOM     33  N   UNL     1      -1.681   2.787   2.664  0.00  0.00    -0.023 NA
ATOM     34  N   UNL     1      -1.544   1.627   3.204  0.00  0.00    -0.044 NA
ATOM     35  N   UNL     1      -0.944   0.847   2.370  0.00  0.00    -0.228 N 
BRANCH  35  36
ATOM     36  C   UNL     1      -0.594  -0.558   2.590  0.00  0.00    +0.175 C 
BRANCH  36  37
ATOM     37  C   UNL     1       0.803  -0.646   3.209  0.00  0.00    +0.183 C 
BRANCH  37  38
ATOM     38  O   UNL     1       1.144  -2.017   3.423  0.00  0.00    -0.381 OA
ATOM     39  C   UNL     1       2.436  -2.211   4.001  0.00  0.00    +0.194 C 
ENDBRANCH  37  38
ENDBRANCH  36  37
ENDBRANCH  35  36
ENDBRANCH   1  31
TORSDOF 8
