REMARK  Name = ZINC52541552
REMARK  5 active torsions:
REMARK  status: ('A' for Active; 'I' for Inactive)
REMARK    1  A    between atoms: C_3  and  C_17
REMARK    2  A    between atoms: C_6  and  C_7
REMARK    3  A    between atoms: N_8  and  N_9
REMARK    4  A    between atoms: C_21  and  C_26
REMARK    5  A    between atoms: N_27  and  N_28
REMARK                            x       y       z     vdW  Elec       q    Type
REMARK                         _______ _______ _______ _____ _____    ______ ____
ROOT
ATOM      1  C   UNL     1       3.657   2.176  -0.021  0.00  0.00    +0.090 A 
ATOM      2  C   UNL     1       4.908   1.636  -0.042  0.00  0.00    +0.121 A 
ATOM      3  N   UNL     1       5.794   2.678  -0.043  0.00  0.00    -0.305 N 
ATOM      4  C   UNL     1       7.157   2.721  -0.060  0.00  0.00    +0.102 A 
ATOM      5  C   UNL     1       7.811   3.918  -0.057  0.00  0.00    +0.011 A 
ATOM      6  C   UNL     1       7.074   5.128  -0.037  0.00  0.00    +0.014 A 
ATOM      7  C   UNL     1       5.718   5.085  -0.021  0.00  0.00    +0.047 A 
ATOM      8  C   UNL     1       5.060   3.836  -0.024  0.00  0.00    +0.138 A 
ATOM      9  N   UNL     1       3.775   3.514  -0.016  0.00  0.00    -0.228 NA
ENDROOT
BRANCH   1  12
ATOM     10  C   UNL     1      -0.017   1.394   0.010  0.00  0.00    +0.010 A 
ATOM     11  C   UNL     1       1.166   2.098   0.002  0.00  0.00    +0.011 A 
ATOM     12  C   UNL     1       2.384   1.416  -0.013  0.00  0.00    +0.002 A 
ATOM     13  C   UNL     1       2.404   0.021  -0.021  0.00  0.00    +0.011 A 
ATOM     14  C   UNL     1       1.223  -0.685  -0.014  0.00  0.00    +0.010 A 
ATOM     15  C   UNL     1       0.002  -0.004   0.002  0.00  0.00    -0.005 A 
BRANCH  15  16
ATOM     16  C   UNL     1      -1.264  -0.759   0.011  0.00  0.00    +0.138 C 
ATOM     17  N   UNL     1      -1.245  -2.057   0.003  0.00  0.00    -0.188 NA
BRANCH  17  18
ATOM     18  N   UNL     1      -2.448  -2.775   0.011  0.00  0.00    -0.210 N 
ATOM     19  C   UNL     1      -2.429  -4.151   0.004  0.00  0.00    +0.174 C 
ATOM     20  N   UNL     1      -1.291  -4.787  -0.011  0.00  0.00    -0.374 N 
ATOM     21  N   UNL     1      -3.610  -4.856   0.012  0.00  0.00    -0.304 N 
ATOM     22  C   UNL     1      -4.958  -4.268   0.022  0.00  0.00    +0.108 C 
ATOM     23  C   UNL     1      -5.966  -5.436   0.055  0.00  0.00    +0.020 C 
ATOM     24  C   UNL     1      -5.125  -6.605   0.632  0.00  0.00    +0.020 C 
ATOM     25  C   UNL     1      -3.735  -6.324   0.005  0.00  0.00    +0.108 C 
ATOM     26  H   UNL     1      -3.295  -2.302   0.022  0.00  0.00    +0.177 HD
ATOM     27  H   UNL     1      -1.277  -5.756  -0.016  0.00  0.00    +0.158 HD
ATOM     28  H   UNL     1      -0.458  -4.290  -0.016  0.00  0.00    +0.158 HD
ENDBRANCH  17  18
ENDBRANCH  15  16
ENDBRANCH   1  12
BRANCH   5  29
ATOM     29  C   UNL     1       9.286   3.953  -0.074  0.00  0.00    +0.139 C 
ATOM     30  N   UNL     1       9.908   5.092  -0.072  0.00  0.00    -0.188 NA
BRANCH  30  31
ATOM     31  N   UNL     1      11.308   5.125  -0.088  0.00  0.00    -0.209 N 
ATOM     32  C   UNL     1      11.968   6.333  -0.085  0.00  0.00    +0.195 C 
ATOM     33  N   UNL     1      11.289   7.446  -0.067  0.00  0.00    -0.271 NA
ATOM     34  N   UNL     1      13.343   6.366  -0.102  0.00  0.00    -0.302 N 
ATOM     35  C   UNL     1      14.228   5.192  -0.129  0.00  0.00    +0.108 C 
ATOM     36  C   UNL     1      15.680   5.712  -0.113  0.00  0.00    +0.020 C 
ATOM     37  C   UNL     1      15.534   7.133   0.494  0.00  0.00    +0.020 C 
ATOM     38  C   UNL     1      14.173   7.584  -0.101  0.00  0.00    +0.108 C 
ATOM     39  H   UNL     1      10.320   7.423  -0.056  0.00  0.00    +0.189 HD
ATOM     40  H   UNL     1      11.813   4.297  -0.102  0.00  0.00    +0.177 HD
ENDBRANCH  30  31
ENDBRANCH   5  29
TORSDOF 5
