REMARK  Name = ZINC14952595
REMARK  3 active torsions:
REMARK  status: ('A' for Active; 'I' for Inactive)
REMARK    1  A    between atoms: C_3  and  C_6
REMARK    2  A    between atoms: C_6  and  C_8
REMARK    3  A    between atoms: C_6  and  O_29
REMARK                            x       y       z     vdW  Elec       q    Type
REMARK                         _______ _______ _______ _____ _____    ______ ____
ROOT
ATOM      1  C   UNL     1       0.269   1.944  -1.847  0.00  0.00    +0.026 C 
ATOM      2  C   UNL     1       0.441   0.458  -1.520  0.00  0.00    +0.025 C 
ATOM      3  C   UNL     1       0.875   0.309  -0.060  0.00  0.00    +0.107 C 
ATOM      4  N   UNL     1      -0.141   0.907   0.816  0.00  0.00    -0.312 N 
ATOM      5  C   UNL     1      -0.290   2.344   0.553  0.00  0.00    +0.107 C 
ATOM      6  C   UNL     1      -0.758   2.553  -0.889  0.00  0.00    +0.025 C 
ATOM      7  C   UNL     1       0.154   0.675   2.145  0.00  0.00    +0.164 A 
ATOM      8  C   UNL     1      -0.715  -0.201   2.941  0.00  0.00    +0.164 A 
ATOM      9  N   UNL     1      -0.453  -0.435   4.209  0.00  0.00    -0.203 NA
ATOM     10  C   UNL     1       0.619   0.133   4.778  0.00  0.00    +0.244 A 
ATOM     11  C   UNL     1       1.496   1.017   3.975  0.00  0.00    +0.244 A 
ATOM     12  N   UNL     1       1.215   1.238   2.684  0.00  0.00    -0.203 NA
ATOM     13  N   UNL     1       2.414   1.377   4.840  0.00  0.00    -0.027 NA
ATOM     14  O   UNL     1       2.177   0.857   5.910  0.00  0.00    -0.238 OA
ATOM     15  N   UNL     1       1.193   0.148   5.957  0.00  0.00    -0.027 NA
ATOM     16  N   UNL     1      -1.819  -0.785   2.352  0.00  0.00    -0.308 N 
ATOM     17  C   UNL     1      -2.885   0.204   2.134  0.00  0.00    +0.134 C 
ATOM     18  C   UNL     1      -4.063  -0.472   1.427  0.00  0.00    +0.178 C 
ATOM     19  O   UNL     1      -4.508  -1.583   2.209  0.00  0.00    -0.377 OA
ATOM     20  C   UNL     1      -3.495  -2.566   2.441  0.00  0.00    +0.178 C 
ATOM     21  C   UNL     1      -2.311  -1.912   3.158  0.00  0.00    +0.134 C 
ENDROOT
BRANCH   1  22
ATOM     22  C   UNL     1      -0.223   2.096  -3.288  0.00  0.00    +0.154 C 
BRANCH  22  25
ATOM     23  C   UNL     1       0.356   5.636  -4.571  0.00  0.00    +0.008 A 
ATOM     24  C   UNL     1       0.613   4.295  -4.360  0.00  0.00    +0.014 A 
ATOM     25  C   UNL     1      -0.276   3.558  -3.649  0.00  0.00    +0.018 A 
ATOM     26  S   UNL     1      -1.528   4.769  -3.258  0.00  0.00    -0.099 S 
ATOM     27  C   UNL     1      -0.778   6.176  -4.061  0.00  0.00    +0.045 A 
ENDBRANCH  22  25
BRANCH  22  28
ATOM     28  O   UNL     1      -1.529   1.529  -3.408  0.00  0.00    -0.386 OA
ATOM     29  H   UNL     1      -2.191   1.941  -2.836  0.00  0.00    +0.210 HD
ENDBRANCH  22  28
ENDBRANCH   1  22
TORSDOF 3
