REMARK  Name = ZINC35792080
REMARK  8 active torsions:
REMARK  status: ('A' for Active; 'I' for Inactive)
REMARK    1  A    between atoms: C_1  and  C_2
REMARK    2  A    between atoms: C_4  and  N_19
REMARK    3  A    between atoms: C_6  and  S_9
REMARK    4  A    between atoms: C_7  and  C_8
REMARK    5  A    between atoms: S_9  and  N_12
REMARK    6  A    between atoms: N_12  and  C_13
REMARK    7  A    between atoms: C_13  and  C_15
REMARK    8  A    between atoms: C_13  and  C_16
REMARK                            x       y       z     vdW  Elec       q    Type
REMARK                         _______ _______ _______ _____ _____    ______ ____
ROOT
ATOM      1  S   UNL     1       0.104  -2.803   2.514  0.00  0.00    +0.059 S 
ATOM      2  O   UNL     1       0.034  -4.178   2.163  0.00  0.00    -0.153 OA
ATOM      3  O   UNL     1       1.192  -2.259   3.248  0.00  0.00    -0.153 OA
ENDROOT
BRANCH   1   9
ATOM      4  C   UNL     1      -0.113   1.713  -0.107  0.00  0.00    +0.044 C 
ATOM      5  C   UNL     1      -0.091   0.207  -0.143  0.00  0.00    -0.044 A 
ATOM      6  C   UNL     1      -0.147  -0.455  -1.353  0.00  0.00    +0.026 A 
ATOM      7  C   UNL     1      -0.127  -1.843  -1.386  0.00  0.00    +0.027 A 
ATOM      8  C   UNL     1      -0.049  -2.562  -0.199  0.00  0.00    +0.051 A 
ATOM      9  C   UNL     1       0.007  -1.893   1.008  0.00  0.00    +0.110 A 
ATOM     10  C   UNL     1      -0.009  -0.511   1.036  0.00  0.00    -0.021 A 
ATOM     11  C   UNL     1       0.059   0.215   2.355  0.00  0.00    +0.046 C 
BRANCH   7  12
ATOM     12  N   UNL     1      -0.184  -2.516  -2.608  0.00  0.00    -0.358 N 
ATOM     13  H   UNL     1      -0.238  -2.014  -3.436  0.00  0.00    +0.142 HD
ATOM     14  H   UNL     1      -0.170  -3.486  -2.630  0.00  0.00    +0.142 HD
ENDBRANCH   7  12
ENDBRANCH   1   9
BRANCH   1  15
ATOM     15  N   UNL     1      -1.267  -2.466   3.380  0.00  0.00    -0.178 NA
ATOM     16  H   UNL     1      -1.203  -1.989   4.222  0.00  0.00    +0.149 HD
BRANCH  15  17
ATOM     17  C   UNL     1      -2.575  -2.886   2.873  0.00  0.00    +0.159 C 
ATOM     18  C   UNL     1      -3.234  -1.721   2.132  0.00  0.00    +0.035 C 
BRANCH  17  19
ATOM     19  C   UNL     1      -3.449  -3.307   4.026  0.00  0.00    +0.229 C 
ATOM     20  O   UNL     1      -3.021  -3.260   5.160  0.00  0.00    -0.274 OA
ATOM     21  N   UNL     1      -4.707  -3.735   3.798  0.00  0.00    -0.328 N 
ATOM     22  H   UNL     1      -5.049  -3.773   2.891  0.00  0.00    +0.145 HD
ATOM     23  H   UNL     1      -5.269  -4.006   4.540  0.00  0.00    +0.145 HD
ENDBRANCH  17  19
ENDBRANCH  15  17
ENDBRANCH   1  15
TORSDOF 5
