REMARK  Name = ZINC12660460
REMARK  12 active torsions:
REMARK  status: ('A' for Active; 'I' for Inactive)
REMARK    1  A    between atoms: C_1  and  C_2
REMARK    2  A    between atoms: C_5  and  C_8
REMARK    3  A    between atoms: C_8  and  C_10
REMARK    4  A    between atoms: C_8  and  O_43
REMARK    5  A    between atoms: C_10  and  N_11
REMARK    6  A    between atoms: C_12  and  C_14
REMARK    7  A    between atoms: C_14  and  C_15
REMARK    8  A    between atoms: C_15  and  C_16
REMARK    9  A    between atoms: C_16  and  O_18
REMARK   10  A    between atoms: O_18  and  C_19
REMARK   11  A    between atoms: C_25  and  C_42
REMARK   12  A    between atoms: C_40  and  C_41
REMARK                            x       y       z     vdW  Elec       q    Type
REMARK                         _______ _______ _______ _____ _____    ______ ____
ROOT
ATOM      1  O   UNL     1       2.255   5.728   0.011  0.00  0.00    -0.461 OA
ENDROOT
BRANCH   1   2
ATOM      2  C   UNL     1       3.537   6.404   0.003  0.00  0.00    +0.183 C 
ATOM      3  C   UNL     1       4.019   6.684   1.437  0.00  0.00    +0.045 C 
ATOM      4  C   UNL     1       4.389   8.179   1.492  0.00  0.00    +0.008 C 
ATOM      5  C   UNL     1       3.555   8.845   0.365  0.00  0.00    +0.002 C 
ATOM      6  C   UNL     1       3.449   7.759  -0.705  0.00  0.00    +0.008 C 
ATOM      7  C   UNL     1       2.255   7.871  -1.622  0.00  0.00    +0.011 C 
ATOM      8  C   UNL     1       0.965   8.243  -0.897  0.00  0.00    +0.005 C 
ATOM      9  C   UNL     1       1.199   9.555  -0.143  0.00  0.00    +0.002 C 
ATOM     10  C   UNL     1       2.220   9.283   0.959  0.00  0.00    -0.003 C 
ATOM     11  C   UNL     1       1.685   8.248   1.943  0.00  0.00    +0.008 C 
ATOM     12  C   UNL     1       0.416   8.785   2.615  0.00  0.00    +0.032 C 
ATOM     13  C   UNL     1      -0.578   9.175   1.537  0.00  0.00    -0.060 C 
ATOM     14  C   UNL     1      -1.814   8.686   1.627  0.00  0.00    +0.046 C 
ATOM     15  C   UNL     1      -2.809   9.036   0.606  0.00  0.00    +0.156 C 
ATOM     16  O   UNL     1      -3.768   8.331   0.377  0.00  0.00    -0.293 OA
ATOM     17  C   UNL     1      -2.564  10.329  -0.147  0.00  0.00    +0.080 C 
ATOM     18  C   UNL     1      -1.131  10.283  -0.675  0.00  0.00    +0.019 C 
ATOM     19  C   UNL     1      -0.116  10.080   0.435  0.00  0.00    -0.007 C 
ATOM     20  C   UNL     1       0.154  11.461   1.047  0.00  0.00    +0.016 C 
ATOM     21  C   UNL     1       4.703   7.877  -1.602  0.00  0.00    +0.015 C 
ENDBRANCH   1   2
BRANCH   1  22
ATOM     22  C   UNL     1       2.273   4.386   0.004  0.00  0.00    +0.308 C 
ATOM     23  O   UNL     1       3.328   3.796  -0.009  0.00  0.00    -0.251 OA
BRANCH  22  24
ATOM     24  C   UNL     1       0.979   3.615   0.012  0.00  0.00    +0.130 C 
BRANCH  24  25
ATOM     25  C   UNL     1       1.278   2.115   0.001  0.00  0.00    +0.107 C 
BRANCH  25  27
ATOM     26  N   UNL     1       0.002  -0.004   0.002  0.00  0.00    -0.313 N 
ATOM     27  C   UNL     1      -0.016   1.344   0.009  0.00  0.00    +0.214 C 
ATOM     28  O   UNL     1      -1.075   1.936   0.018  0.00  0.00    -0.276 OA
ATOM     29  H   UNL     1       0.849  -0.478  -0.009  0.00  0.00    +0.149 HD
BRANCH  26  30
ATOM     30  C   UNL     1      -1.256  -0.754   0.010  0.00  0.00    +0.140 C 
BRANCH  30  31
ATOM     31  C   UNL     1      -0.957  -2.254  -0.001  0.00  0.00    +0.163 C 
BRANCH  31  36
ATOM     32  C   UNL     1      -5.887  -5.177  -0.116  0.00  0.00    +0.065 C 
ATOM     33  C   UNL     1      -4.591  -4.411  -0.060  0.00  0.00    +0.038 A 
ATOM     34  C   UNL     1      -3.982  -4.186   1.161  0.00  0.00    +0.023 A 
ATOM     35  C   UNL     1      -2.787  -3.485   1.201  0.00  0.00    +0.009 A 
ATOM     36  C   UNL     1      -2.251  -3.025   0.007  0.00  0.00    +0.000 A 
ATOM     37  C   UNL     1      -2.917  -3.288  -1.175  0.00  0.00    +0.117 A 
ATOM     38  N   UNL     1      -4.050  -3.963  -1.176  0.00  0.00    -0.260 NA
ENDBRANCH  31  36
BRANCH  31  39
ATOM     39  O   UNL     1      -0.214  -2.583  -1.177  0.00  0.00    -0.386 OA
ATOM     40  H   UNL     1      -0.673  -2.378  -2.002  0.00  0.00    +0.210 HD
ENDBRANCH  31  39
ENDBRANCH  30  31
ENDBRANCH  26  30
ENDBRANCH  25  27
ENDBRANCH  24  25
ENDBRANCH  22  24
ENDBRANCH   1  22
TORSDOF 9
