REMARK  Name = ZINC13632002
REMARK  13 active torsions:
REMARK  status: ('A' for Active; 'I' for Inactive)
REMARK    1  A    between atoms: C_1  and  C_2
REMARK    2  A    between atoms: C_2  and  N_3
REMARK    3  A    between atoms: N_3  and  C_4
REMARK    4  A    between atoms: N_3  and  S_22
REMARK    5  A    between atoms: C_7  and  C_10
REMARK    6  A    between atoms: N_12  and  C_13
REMARK    7  A    between atoms: C_13  and  C_14
REMARK    8  A    between atoms: C_14  and  C_15
REMARK    9  A    between atoms: C_15  and  N_68
REMARK   10  A    between atoms: C_18  and  C_21
REMARK   11  A    between atoms: S_22  and  C_25
REMARK   12  A    between atoms: C_28  and  S_31
REMARK   13  A    between atoms: S_31  and  C_32
REMARK                            x       y       z     vdW  Elec       q    Type
REMARK                         _______ _______ _______ _____ _____    ______ ____
ROOT
ATOM      1  C   UNL     1       0.930  -1.004   0.270  0.00  0.00    +0.051 A 
ATOM      2  C   UNL     1      -0.354  -0.482   0.400  0.00  0.00    +0.025 A 
ATOM      3  C   UNL     1      -0.530   0.859   0.655  0.00  0.00    +0.015 A 
ATOM      4  C   UNL     1       0.581   1.697   0.784  0.00  0.00    +0.037 A 
ATOM      5  C   UNL     1       1.869   1.170   0.652  0.00  0.00    +0.015 A 
ATOM      6  C   UNL     1       2.039  -0.172   0.397  0.00  0.00    +0.025 A 
ENDROOT
BRANCH   4   7
ATOM      7  C   UNL     1       0.396   3.135   1.057  0.00  0.00    +0.244 C 
ATOM      8  O   UNL     1      -0.726   3.592   1.170  0.00  0.00    -0.270 OA
ATOM      9  N   UNL     1       1.468   3.942   1.180  0.00  0.00    -0.311 N 
ATOM     10  H   UNL     1       2.362   3.577   1.089  0.00  0.00    +0.149 HD
BRANCH   9  11
ATOM     11  C   UNL     1       1.284   5.369   1.451  0.00  0.00    +0.102 C 
BRANCH  11  12
ATOM     12  C   UNL     1       2.650   6.052   1.543  0.00  0.00    +0.000 C 
BRANCH  12  13
ATOM     13  C   UNL     1       2.457   7.543   1.827  0.00  0.00    -0.077 C 
BRANCH  13  20
ATOM     14  C   UNL     1       4.523   7.711   3.078  0.00  0.00    -0.079 C 
ATOM     15  C   UNL     1       5.934   8.303   3.057  0.00  0.00    -0.016 C 
ATOM     16  C   UNL     1       5.841   9.831   3.089  0.00  0.00    -0.018 C 
ATOM     17  C   UNL     1       5.010  10.309   1.895  0.00  0.00    -0.016 C 
ATOM     18  C   UNL     1       3.626   9.659   1.949  0.00  0.00    -0.079 C 
ATOM     19  C   UNL     1       7.246  10.430   3.007  0.00  0.00    +0.007 C 
ATOM     20  N   UNL     1       3.784   8.190   1.891  0.00  0.00    +0.380 N 
ATOM     21  H   UNL     1       4.315   7.946   1.046  0.00  0.00    -0.082 HD
ENDBRANCH  13  20
ENDBRANCH  12  13
ENDBRANCH  11  12
ENDBRANCH   9  11
ENDBRANCH   4   7
BRANCH   1  22
ATOM     22  N   UNL     1       1.106  -2.359   0.013  0.00  0.00    -0.203 N 
BRANCH  22  23
ATOM     23  S   UNL     1       2.476  -2.886  -0.753  0.00  0.00    +0.075 S 
ATOM     24  O   UNL     1       2.142  -4.115  -1.383  0.00  0.00    -0.150 OA
ATOM     25  O   UNL     1       2.991  -1.775  -1.474  0.00  0.00    -0.150 OA
BRANCH  23  26
ATOM     26  C   UNL     1       3.658  -3.267   0.498  0.00  0.00    +0.109 A 
ATOM     27  C   UNL     1       4.617  -2.334   0.847  0.00  0.00    +0.030 A 
ATOM     28  C   UNL     1       5.541  -2.627   1.831  0.00  0.00    +0.016 A 
ATOM     29  C   UNL     1       5.513  -3.865   2.461  0.00  0.00    +0.008 A 
ATOM     30  C   UNL     1       4.551  -4.802   2.103  0.00  0.00    +0.016 A 
ATOM     31  C   UNL     1       3.627  -4.500   1.123  0.00  0.00    +0.030 A 
BRANCH  29  32
ATOM     32  S   UNL     1       6.695  -4.245   3.712  0.00  0.00    -0.129 S 
ATOM     33  C   UNL     1       7.713  -2.749   3.824  0.00  0.00    +0.090 C 
ENDBRANCH  29  32
ENDBRANCH  23  26
ENDBRANCH  22  23
BRANCH  22  35
ATOM     34  C   UNL     1      -0.999  -3.404  -0.664  0.00  0.00    +0.026 C 
ATOM     35  C   UNL     1       0.078  -3.321   0.419  0.00  0.00    +0.128 C 
ENDBRANCH  22  35
ENDBRANCH   1  22
TORSDOF 10
