REMARK  Name = ZINC38657375
REMARK  6 active torsions:
REMARK  status: ('A' for Active; 'I' for Inactive)
REMARK    1  A    between atoms: C_3  and  C_6
REMARK    2  A    between atoms: C_11  and  O_20
REMARK    3  A    between atoms: C_15  and  N_19
REMARK    4  A    between atoms: C_16  and  C_17
REMARK    5  A    between atoms: O_20  and  C_21
REMARK    6  A    between atoms: C_21  and  C_23
REMARK                            x       y       z     vdW  Elec       q    Type
REMARK                         _______ _______ _______ _____ _____    ______ ____
ROOT
ATOM      1  C   UNL     1       3.539   0.632  -0.056  0.00  0.00    +0.134 C 
ATOM      2  C   UNL     1       4.026  -0.078  -1.292  0.00  0.00    +0.011 A 
ATOM      3  C   UNL     1       3.364   0.114  -2.491  0.00  0.00    +0.012 A 
ATOM      4  C   UNL     1       3.796  -0.528  -3.635  0.00  0.00    +0.047 A 
ATOM      5  C   UNL     1       4.899  -1.371  -3.583  0.00  0.00    +0.136 A 
ATOM      6  C   UNL     1       5.563  -1.565  -2.383  0.00  0.00    +0.093 A 
ATOM      7  C   UNL     1       5.128  -0.917  -1.234  0.00  0.00    +0.138 A 
ATOM      8  O   UNL     1       5.789  -1.117  -0.067  0.00  0.00    -0.441 OA
ATOM      9  C   UNL     1       5.189  -0.835   1.101  0.00  0.00    +0.199 C 
ATOM     10  C   UNL     1       4.116  -0.014   1.172  0.00  0.00    +0.101 C 
ENDROOT
BRANCH   1  13
ATOM     11  C   UNL     1      -0.116   1.089   0.067  0.00  0.00    +0.041 A 
ATOM     12  C   UNL     1       1.197   1.612   0.006  0.00  0.00    +0.045 A 
ATOM     13  C   UNL     1       2.035   0.560   0.002  0.00  0.00    +0.117 A 
ATOM     14  O   UNL     1       1.304  -0.566   0.056  0.00  0.00    -0.467 OA
ATOM     15  C   UNL     1      -0.001  -0.251   0.096  0.00  0.00    +0.195 A 
ENDBRANCH   1  13
BRANCH   9  16
ATOM     16  N   UNL     1       5.676  -1.397   2.254  0.00  0.00    -0.328 N 
ATOM     17  H   UNL     1       6.444  -1.989   2.218  0.00  0.00    +0.145 HD
ATOM     18  H   UNL     1       5.254  -1.202   3.105  0.00  0.00    +0.145 HD
ENDBRANCH   9  16
BRANCH  10  19
ATOM     19  C   UNL     1       3.519   0.245   2.448  0.00  0.00    +0.101 C 
ATOM     20  N   UNL     1       3.046   0.451   3.460  0.00  0.00    -0.191 NA
ENDBRANCH  10  19
BRANCH   5  21
ATOM     21  O   UNL     1       5.325  -2.004  -4.707  0.00  0.00    -0.420 OA
BRANCH  21  22
ATOM     22  C   UNL     1       5.882  -1.257  -5.682  0.00  0.00    +0.380 C 
ATOM     23  O   UNL     1       6.087  -0.072  -5.499  0.00  0.00    -0.241 OA
BRANCH  22  24
ATOM     24  C   UNL     1       6.242  -1.873  -6.962  0.00  0.00    +0.212 A 
ATOM     25  C   UNL     1       6.815  -1.236  -8.026  0.00  0.00    +0.056 A 
ATOM     26  C   UNL     1       6.982  -2.202  -9.031  0.00  0.00    +0.042 A 
ATOM     27  C   UNL     1       6.510  -3.370  -8.542  0.00  0.00    +0.196 A 
ATOM     28  O   UNL     1       6.070  -3.170  -7.293  0.00  0.00    -0.456 OA
ENDBRANCH  22  24
ENDBRANCH  21  22
ENDBRANCH   5  21
TORSDOF 6
