REMARK  Name = ZINC36211451
REMARK  9 active torsions:
REMARK  status: ('A' for Active; 'I' for Inactive)
REMARK    1  A    between atoms: C_1  and  C_2
REMARK    2  A    between atoms: C_2  and  C_3
REMARK    3  A    between atoms: C_2  and  N_4
REMARK    4  A    between atoms: C_5  and  C_7
REMARK    5  A    between atoms: C_7  and  C_9
REMARK    6  A    between atoms: C_7  and  N_27
REMARK    7  A    between atoms: C_15  and  C_17
REMARK    8  A    between atoms: C_20  and  C_23
REMARK    9  A    between atoms: C_28  and  C_30
REMARK                            x       y       z     vdW  Elec       q    Type
REMARK                         _______ _______ _______ _____ _____    ______ ____
ROOT
ATOM      1  C   UNL     1       1.022  -2.099   3.617  0.00  0.00    +0.162 C 
ENDROOT
BRANCH   1   2
ATOM      2  C   UNL     1       1.989  -0.974   3.992  0.00  0.00    +0.021 C 
ATOM      3  C   UNL     1       2.948  -0.717   2.827  0.00  0.00    +0.025 C 
ATOM      4  C   UNL     1       3.891   0.433   3.192  0.00  0.00    +0.108 C 
ATOM      5  N   UNL     1       4.557   0.114   4.462  0.00  0.00    -0.298 N 
ATOM      6  C   UNL     1       3.729  -0.237   5.625  0.00  0.00    +0.108 C 
ATOM      7  C   UNL     1       2.787  -1.379   5.232  0.00  0.00    +0.025 C 
ATOM      8  C   UNL     1       5.901   0.142   4.560  0.00  0.00    +0.247 C 
ATOM      9  O   UNL     1       6.436  -0.048   5.634  0.00  0.00    -0.270 OA
BRANCH   8  10
ATOM     10  C   UNL     1       6.723   0.404   3.360  0.00  0.00    +0.037 A 
ATOM     11  C   UNL     1       6.387   1.444   2.492  0.00  0.00    +0.013 A 
ATOM     12  C   UNL     1       7.159   1.684   1.375  0.00  0.00    +0.013 A 
ATOM     13  C   UNL     1       8.265   0.894   1.112  0.00  0.00    +0.055 A 
ATOM     14  C   UNL     1       8.604  -0.139   1.967  0.00  0.00    +0.013 A 
ATOM     15  C   UNL     1       7.843  -0.385   3.092  0.00  0.00    +0.013 A 
BRANCH  13  16
ATOM     16  C   UNL     1       9.104   1.161  -0.111  0.00  0.00    +0.417 C 
ATOM     17  F   UNL     1      10.118   2.070   0.208  0.00  0.00    -0.166 F 
ATOM     18  F   UNL     1       9.673  -0.036  -0.556  0.00  0.00    -0.166 F 
ATOM     19  F   UNL     1       8.298   1.698  -1.121  0.00  0.00    -0.166 F 
ENDBRANCH  13  16
ENDBRANCH   8  10
ENDBRANCH   1   2
BRANCH   1  21
ATOM     20  N   UNL     1       0.782  -2.032   1.156  0.00  0.00    -0.311 N 
ATOM     21  C   UNL     1       0.273  -1.722   2.365  0.00  0.00    +0.234 C 
ATOM     22  O   UNL     1      -0.788  -1.140   2.445  0.00  0.00    -0.274 OA
ATOM     23  H   UNL     1       1.664  -2.429   1.089  0.00  0.00    +0.149 HD
BRANCH  20  25
ATOM     24  C   UNL     1       0.222  -0.320  -0.498  0.00  0.00    +0.027 C 
ATOM     25  C   UNL     1       0.003  -1.769  -0.056  0.00  0.00    +0.067 C 
ATOM     26  C   UNL     1       0.456  -2.716  -1.169  0.00  0.00    +0.027 C 
ENDBRANCH  20  25
ENDBRANCH   1  21
BRANCH   1  27
ATOM     27  N   UNL     1       0.070  -2.309   4.711  0.00  0.00    -0.300 N 
ATOM     28  C   UNL     1      -0.528  -3.507   4.863  0.00  0.00    +0.245 C 
ATOM     29  O   UNL     1      -0.278  -4.414   4.092  0.00  0.00    -0.270 OA
ATOM     30  H   UNL     1      -0.130  -1.586   5.326  0.00  0.00    +0.150 HD
BRANCH  28  31
ATOM     31  C   UNL     1      -1.487  -3.719   5.965  0.00  0.00    +0.040 A 
ATOM     32  C   UNL     1      -1.780  -2.677   6.848  0.00  0.00    +0.017 A 
ATOM     33  C   UNL     1      -2.676  -2.876   7.875  0.00  0.00    +0.050 A 
ATOM     34  C   UNL     1      -3.290  -4.111   8.038  0.00  0.00    +0.166 A 
ATOM     35  C   UNL     1      -3.001  -5.156   7.160  0.00  0.00    +0.167 A 
ATOM     36  C   UNL     1      -2.108  -4.960   6.124  0.00  0.00    +0.062 A 
ATOM     37  O   UNL     1      -3.727  -6.251   7.532  0.00  0.00    -0.453 OA
ATOM     38  C   UNL     1      -4.149  -5.990   8.883  0.00  0.00    +0.466 C 
ATOM     39  O   UNL     1      -4.196  -4.553   8.956  0.00  0.00    -0.453 OA
ENDBRANCH  28  31
ENDBRANCH   1  27
TORSDOF 7
