REMARK  Name = ZINC63413077
REMARK  5 active torsions:
REMARK  status: ('A' for Active; 'I' for Inactive)
REMARK    1  A    between atoms: C_1  and  C_2
REMARK    2  A    between atoms: C_11  and  C_12
REMARK    3  A    between atoms: C_12  and  C_14
REMARK    4  A    between atoms: C_14  and  C_21
REMARK    5  A    between atoms: C_15  and  C_16
REMARK                            x       y       z     vdW  Elec       q    Type
REMARK                         _______ _______ _______ _____ _____    ______ ____
ROOT
ATOM      1  C   UNL     1       0.050   1.504   0.006  0.00  0.00    +0.044 C 
ATOM      2  C   UNL     1       0.054  -0.003  -0.001  0.00  0.00    -0.048 A 
ATOM      3  C   UNL     1       0.055  -0.684  -1.210  0.00  0.00    +0.004 A 
ATOM      4  C   UNL     1       0.060  -2.062  -1.231  0.00  0.00    +0.011 A 
ATOM      5  C   UNL     1       0.065  -2.770  -0.032  0.00  0.00    +0.011 A 
ATOM      6  C   UNL     1       0.064  -2.083   1.192  0.00  0.00    +0.047 A 
ATOM      7  C   UNL     1       0.065  -0.691   1.192  0.00  0.00    +0.029 A 
ATOM      8  N   UNL     1       0.070  -3.027   2.197  0.00  0.00    -0.360 N 
ATOM      9  H   UNL     1       0.071  -2.825   3.146  0.00  0.00    +0.165 HD
ATOM     10  C   UNL     1       0.074  -4.276   1.673  0.00  0.00    +0.095 A 
ATOM     11  C   UNL     1       0.071  -4.204   0.310  0.00  0.00    +0.048 A 
ENDROOT
BRANCH  11  12
ATOM     12  C   UNL     1       0.074  -5.333  -0.631  0.00  0.00    +0.205 C 
ATOM     13  O   UNL     1      -0.034  -5.130  -1.827  0.00  0.00    -0.286 OA
BRANCH  12  14
ATOM     14  C   UNL     1       0.207  -6.709  -0.128  0.00  0.00    +0.101 C 
ATOM     15  C   UNL     1       0.321  -7.759  -1.015  0.00  0.00    +0.053 C 
BRANCH  15  16
ATOM     16  C   UNL     1       0.454  -9.128  -0.515  0.00  0.00    +0.096 A 
ATOM     17  C   UNL     1       0.579 -10.232  -1.352  0.00  0.00    +0.096 A 
ATOM     18  S   UNL     1       0.691 -11.492  -0.248  0.00  0.00    +0.029 S 
ATOM     19  N   UNL     1       0.586 -10.659   1.133  0.00  0.00    -0.110 NA
ATOM     20  N   UNL     1       0.471  -9.428   0.781  0.00  0.00    -0.142 NA
ENDBRANCH  15  16
BRANCH  14  21
ATOM     21  C   UNL     1       0.218  -6.958   1.282  0.00  0.00    +0.103 C 
ATOM     22  N   UNL     1       0.226  -7.156   2.401  0.00  0.00    -0.191 NA
ENDBRANCH  14  21
ENDBRANCH  12  14
ENDBRANCH  11  12
TORSDOF 4
