REMARK  Name = ZINC13071506
REMARK  12 active torsions:
REMARK  status: ('A' for Active; 'I' for Inactive)
REMARK    1  A    between atoms: C_1  and  N_51
REMARK    2  A    between atoms: C_2  and  C_3
REMARK    3  A    between atoms: C_2  and  N_51
REMARK    4  A    between atoms: C_11  and  N_12
REMARK    5  A    between atoms: C_11  and  N_51
REMARK    6  A    between atoms: C_16  and  C_18
REMARK    7  A    between atoms: C_20  and  O_28
REMARK    8  A    between atoms: C_21  and  O_26
REMARK    9  A    between atoms: C_22  and  O_24
REMARK   10  A    between atoms: O_24  and  C_25
REMARK   11  A    between atoms: O_26  and  C_27
REMARK   12  A    between atoms: O_28  and  C_29
REMARK                            x       y       z     vdW  Elec       q    Type
REMARK                         _______ _______ _______ _____ _____    ______ ____
ROOT
ATOM      1  N   UNL     1       2.047   1.434   0.178  0.00  0.00    -0.240 N 
ATOM      2  C   UNL     1       3.000   0.501   0.389  0.00  0.00    +0.265 A 
ATOM      3  S   UNL     1       4.679   0.788   0.558  0.00  0.00    +0.011 S 
ATOM      4  O   UNL     1       2.389  -0.695   0.443  0.00  0.00    -0.412 OA
ATOM      5  C   UNL     1       1.061  -0.515   0.267  0.00  0.00    +0.247 A 
ATOM      6  N   UNL     1       0.822   0.754   0.105  0.00  0.00    -0.131 NA
ENDROOT
BRANCH   5   7
ATOM      7  C   UNL     1       0.044  -1.587   0.260  0.00  0.00    +0.046 A 
ATOM      8  C   UNL     1      -1.303  -1.272   0.073  0.00  0.00    +0.063 A 
ATOM      9  C   UNL     1      -2.253  -2.278   0.061  0.00  0.00    +0.166 A 
ATOM     10  C   UNL     1      -1.868  -3.602   0.246  0.00  0.00    +0.204 A 
ATOM     11  C   UNL     1      -0.527  -3.918   0.438  0.00  0.00    +0.166 A 
ATOM     12  C   UNL     1       0.427  -2.916   0.445  0.00  0.00    +0.063 A 
BRANCH  11  13
ATOM     13  O   UNL     1      -0.153  -5.213   0.619  0.00  0.00    -0.491 OA
ATOM     14  C   UNL     1       1.240  -5.466   0.810  0.00  0.00    +0.277 C 
ENDBRANCH  11  13
BRANCH  10  15
ATOM     15  O   UNL     1      -2.804  -4.589   0.240  0.00  0.00    -0.488 OA
ATOM     16  C   UNL     1      -3.399  -4.927   1.494  0.00  0.00    +0.277 C 
ENDBRANCH  10  15
BRANCH   9  17
ATOM     17  O   UNL     1      -3.564  -1.972  -0.127  0.00  0.00    -0.491 OA
ATOM     18  C   UNL     1      -3.889  -0.592  -0.311  0.00  0.00    +0.277 C 
ENDBRANCH   9  17
ENDBRANCH   5   7
BRANCH   1  19
ATOM     19  C   UNL     1       2.253   2.878   0.051  0.00  0.00    +0.073 C 
BRANCH  19  21
ATOM     20  C   UNL     1       0.801   3.393   1.919  0.00  0.00    -0.093 C 
ATOM     21  N   UNL     1       2.179   3.491   1.394  0.00  0.00    +0.394 N 
ATOM     22  H   UNL     1       2.813   2.988   2.025  0.00  0.00    -0.079 HD
BRANCH  21  23
ATOM     23  C   UNL     1       2.594   4.908   1.326  0.00  0.00    -0.039 C 
BRANCH  23  24
ATOM     24  C   UNL     1       2.851   5.405   2.726  0.00  0.00    -0.045 A 
ATOM     25  C   UNL     1       1.948   6.256   3.334  0.00  0.00    +0.004 A 
ATOM     26  C   UNL     1       2.182   6.711   4.618  0.00  0.00    +0.020 A 
ATOM     27  C   UNL     1       3.322   6.315   5.295  0.00  0.00    +0.042 A 
ATOM     28  C   UNL     1       4.227   5.464   4.687  0.00  0.00    +0.040 A 
ATOM     29  C   UNL     1       3.989   5.004   3.404  0.00  0.00    +0.044 A 
ATOM     30 CL   UNL     1       5.120   3.930   2.642  0.00  0.00    -0.083 Cl
ATOM     31 CL   UNL     1       3.618   6.888   6.907  0.00  0.00    -0.083 Cl
ENDBRANCH  23  24
ENDBRANCH  21  23
ENDBRANCH  19  21
ENDBRANCH   1  19
TORSDOF 8
