REMARK  Name = ZINC39455674
REMARK  9 active torsions:
REMARK  status: ('A' for Active; 'I' for Inactive)
REMARK    1  A    between atoms: C_1  and  C_2
REMARK    2  A    between atoms: C_4  and  C_8
REMARK    3  A    between atoms: C_8  and  N_9
REMARK    4  A    between atoms: N_9  and  C_10
REMARK    5  A    between atoms: C_11  and  C_13
REMARK    6  A    between atoms: C_13  and  C_14
REMARK    7  A    between atoms: N_21  and  C_22
REMARK    8  A    between atoms: C_22  and  C_23
REMARK    9  A    between atoms: C_26  and  C_29
REMARK                            x       y       z     vdW  Elec       q    Type
REMARK                         _______ _______ _______ _____ _____    ______ ____
ROOT
ATOM      1  C   UNL     1       2.798  -5.562  -2.531  0.00  0.00    +0.028 C 
ATOM      2  C   UNL     1       3.434  -6.895  -2.802  0.00  0.00    +0.200 C 
ATOM      3  O   UNL     1       2.721  -7.832  -3.094  0.00  0.00    -0.278 OA
ATOM      4  N   UNL     1       4.756  -7.092  -2.734  0.00  0.00    -0.318 N 
ATOM      5  C   UNL     1       5.691  -6.033  -2.364  0.00  0.00    +0.085 C 
ATOM      6  C   UNL     1       5.016  -4.668  -2.508  0.00  0.00    -0.058 C 
ATOM      7  N   UNL     1       3.731  -4.700  -1.794  0.00  0.00    +0.391 N 
ATOM      8  H   UNL     1       5.107  -7.973  -2.939  0.00  0.00    +0.149 HD
ATOM      9  H   UNL     1       3.868  -5.068  -0.865  0.00  0.00    -0.080 HD
ENDROOT
BRANCH   1  10
ATOM     10  C   UNL     1       1.530  -5.764  -1.699  0.00  0.00    +0.090 C 
BRANCH  10  13
ATOM     11  N   UNL     1       0.941  -6.632   0.541  0.00  0.00    -0.302 N 
ATOM     12  C   UNL     1      -0.424  -6.149   0.317  0.00  0.00    +0.132 C 
ATOM     13  C   UNL     1       1.882  -6.457  -0.407  0.00  0.00    +0.214 C 
ATOM     14  O   UNL     1       3.012  -6.856  -0.222  0.00  0.00    -0.276 OA
BRANCH  11  15
ATOM     15  C   UNL     1       1.283  -7.305   1.797  0.00  0.00    +0.140 C 
BRANCH  15  19
ATOM     16  C   UNL     1       3.255 -11.315   3.309  0.00  0.00    +0.067 C 
ATOM     17  C   UNL     1       2.472 -10.360   2.446  0.00  0.00    +0.058 C 
ATOM     18  C   UNL     1       1.510  -9.549   2.892  0.00  0.00    +0.027 C 
ATOM     19  C   UNL     1       1.049  -8.809   1.649  0.00  0.00    +0.170 C 
ATOM     20  N   UNL     1       1.906  -9.372   0.592  0.00  0.00    -0.178 NA
ATOM     21  N   UNL     1       2.653 -10.203   1.115  0.00  0.00    -0.159 NA
ENDBRANCH  15  19
ENDBRANCH  11  15
ENDBRANCH  10  13
ENDBRANCH   1  10
BRANCH   7  22
ATOM     22  C   UNL     1       3.183  -3.339  -1.712  0.00  0.00    -0.042 C 
BRANCH  22  23
ATOM     23  C   UNL     1       4.066  -2.495  -0.830  0.00  0.00    -0.064 A 
ATOM     24  C   UNL     1       3.824  -2.433   0.531  0.00  0.00    +0.002 A 
ATOM     25  C   UNL     1       4.630  -1.661   1.343  0.00  0.00    +0.009 A 
ATOM     26  C   UNL     1       5.689  -0.944   0.790  0.00  0.00    -0.018 A 
ATOM     27  C   UNL     1       5.928  -1.010  -0.581  0.00  0.00    +0.009 A 
ATOM     28  C   UNL     1       5.120  -1.789  -1.383  0.00  0.00    +0.002 A 
BRANCH  26  29
ATOM     29  C   UNL     1       6.558  -0.112   1.659  0.00  0.00    -0.018 A 
ATOM     30  C   UNL     1       6.322  -0.050   3.031  0.00  0.00    +0.008 A 
ATOM     31  C   UNL     1       7.135   0.725   3.834  0.00  0.00    +0.001 A 
ATOM     32  C   UNL     1       8.181   1.440   3.279  0.00  0.00    +0.000 A 
ATOM     33  C   UNL     1       8.419   1.383   1.917  0.00  0.00    +0.001 A 
ATOM     34  C   UNL     1       7.617   0.606   1.106  0.00  0.00    +0.008 A 
ENDBRANCH  26  29
ENDBRANCH  22  23
ENDBRANCH   7  22
TORSDOF 7
