REMARK  Name = ZINC49735137
REMARK  6 active torsions:
REMARK  status: ('A' for Active; 'I' for Inactive)
REMARK    1  A    between atoms: C_1  and  C_2
REMARK    2  A    between atoms: C_2  and  C_3
REMARK    3  A    between atoms: C_3  and  C_4
REMARK    4  A    between atoms: C_4  and  N_5
REMARK    5  A    between atoms: C_24  and  C_27
REMARK    6  A    between atoms: C_31  and  O_33
REMARK                            x       y       z     vdW  Elec       q    Type
REMARK                         _______ _______ _______ _____ _____    ______ ____
ROOT
ATOM      1  N   UNL     1      -2.913  -2.314  -0.002  0.00  0.00    -0.249 N 
ATOM      2  C   UNL     1      -3.530  -2.526   1.178  0.00  0.00    +0.259 C 
ATOM      3  O   UNL     1      -3.068  -2.083   2.213  0.00  0.00    -0.269 OA
ATOM      4  C   UNL     1      -4.779  -3.309   1.180  0.00  0.00    +0.116 C 
ATOM      5  C   UNL     1      -5.262  -3.805  -0.121  0.00  0.00    +0.256 C 
ATOM      6  N   UNL     1      -4.540  -3.514  -1.222  0.00  0.00    -0.263 N 
ATOM      7  H   UNL     1      -4.844  -3.833  -2.086  0.00  0.00    +0.157 HD
ATOM      8  C   UNL     1      -3.413  -2.791  -1.151  0.00  0.00    +0.146 C 
ATOM      9  S   UNL     1      -2.565  -2.466  -2.602  0.00  0.00    -0.018 S 
ATOM     10  O   UNL     1      -6.285  -4.459  -0.199  0.00  0.00    -0.270 OA
ATOM     11  C   UNL     1      -5.466  -3.568   2.352  0.00  0.00    +0.027 C 
ATOM     12  N   UNL     1      -4.782  -3.423   3.432  0.00  0.00    -0.316 N 
ATOM     13  C   UNL     1      -4.934  -3.313   4.787  0.00  0.00    +0.045 A 
ATOM     14  C   UNL     1      -3.788  -2.870   5.470  0.00  0.00    +0.024 A 
ATOM     15  C   UNL     1      -3.774  -2.711   6.834  0.00  0.00    +0.002 A 
ATOM     16  C   UNL     1      -4.914  -2.991   7.567  0.00  0.00    +0.001 A 
ATOM     17  C   UNL     1      -6.045  -3.423   6.916  0.00  0.00    +0.016 A 
ATOM     18  C   UNL     1      -6.076  -3.589   5.524  0.00  0.00    +0.030 A 
ATOM     19  S   UNL     1      -7.587  -4.139   4.840  0.00  0.00    -0.115 S 
ATOM     20  C   UNL     1      -7.782  -3.388   3.231  0.00  0.00    +0.087 C 
ATOM     21  C   UNL     1      -6.889  -3.966   2.176  0.00  0.00    +0.071 C 
ATOM     22  H   UNL     1      -3.838  -3.377   3.210  0.00  0.00    +0.152 HD
ENDROOT
BRANCH  20  23
ATOM     23  C   UNL     1      -9.214  -3.558   2.792  0.00  0.00    -0.030 A 
ATOM     24  C   UNL     1      -9.749  -4.826   2.656  0.00  0.00    +0.005 A 
ATOM     25  C   UNL     1     -11.062  -4.985   2.253  0.00  0.00    +0.004 A 
ATOM     26  C   UNL     1     -11.842  -3.877   1.985  0.00  0.00    +0.045 A 
ATOM     27  C   UNL     1     -11.308  -2.604   2.121  0.00  0.00    +0.117 A 
ATOM     28  C   UNL     1      -9.992  -2.447   2.531  0.00  0.00    +0.050 A 
BRANCH  27  29
ATOM     29  O   UNL     1     -12.074  -1.513   1.858  0.00  0.00    -0.507 OA
ATOM     30  H   UNL     1     -12.557  -1.177   2.626  0.00  0.00    +0.292 HD
ENDBRANCH  27  29
ENDBRANCH  20  23
BRANCH   1  31
ATOM     31  C   UNL     1      -1.670  -1.538  -0.031  0.00  0.00    +0.116 C 
BRANCH  31  32
ATOM     32  C   UNL     1      -1.999  -0.055  -0.214  0.00  0.00    +0.019 C 
BRANCH  32  34
ATOM     33  C   UNL     1      -1.030   2.238  -0.426  0.00  0.00    +0.004 C 
ATOM     34  C   UNL     1      -0.702   0.755  -0.243  0.00  0.00    -0.002 C 
ENDBRANCH  32  34
ENDBRANCH  31  32
ENDBRANCH   1  31
TORSDOF 5
