REMARK  Name = ZINC03624569
REMARK  13 active torsions:
REMARK  status: ('A' for Active; 'I' for Inactive)
REMARK    1  A    between atoms: C_1  and  C_2
REMARK    2  A    between atoms: C_2  and  C_3
REMARK    3  A    between atoms: C_3  and  C_4
REMARK    4  A    between atoms: C_4  and  O_5
REMARK    5  A    between atoms: O_5  and  C_6
REMARK    6  A    between atoms: C_6  and  C_8
REMARK    7  A    between atoms: C_9  and  N_34
REMARK    8  A    between atoms: C_13  and  C_33
REMARK    9  A    between atoms: C_17  and  C_28
REMARK   10  A    between atoms: C_18  and  C_20
REMARK   11  A    between atoms: C_28  and  O_30
REMARK   12  A    between atoms: O_30  and  C_31
REMARK   13  A    between atoms: C_31  and  C_32
REMARK                            x       y       z     vdW  Elec       q    Type
REMARK                         _______ _______ _______ _____ _____    ______ ____
ROOT
ATOM      1  C   UNL     1      -6.251  -0.188   1.451  0.00  0.00    +0.084 C 
ATOM      2  C   UNL     1      -6.763  -0.082   2.699  0.00  0.00    +0.106 C 
ATOM      3  N   UNL     1      -6.124   0.584   3.752  0.00  0.00    -0.220 N 
ATOM      4  C   UNL     1      -6.670   0.668   4.984  0.00  0.00    +0.239 C 
ATOM      5  O   UNL     1      -7.746   0.166   5.231  0.00  0.00    -0.274 OA
ATOM      6  C   UNL     1      -5.890   1.413   6.043  0.00  0.00    +0.136 C 
ATOM      7  S   UNL     1      -4.415   1.909   5.073  0.00  0.00    -0.096 S 
ATOM      8  C   UNL     1      -4.893   1.169   3.522  0.00  0.00    +0.088 C 
ATOM      9  C   UNL     1      -4.249   1.155   2.325  0.00  0.00    +0.077 C 
ATOM     10  C   UNL     1      -4.906   0.445   1.159  0.00  0.00    +0.100 C 
ATOM     11  C   UNL     1      -5.509   0.490   7.202  0.00  0.00    +0.029 C 
ENDROOT
BRANCH  10  12
ATOM     12  C   UNL     1      -3.971  -0.633   0.675  0.00  0.00    -0.017 A 
ATOM     13  C   UNL     1      -3.579  -1.644   1.534  0.00  0.00    +0.007 A 
ATOM     14  C   UNL     1      -2.727  -2.636   1.089  0.00  0.00    +0.020 A 
ATOM     15  C   UNL     1      -2.256  -2.613  -0.212  0.00  0.00    +0.042 A 
ATOM     16  C   UNL     1      -2.643  -1.599  -1.069  0.00  0.00    +0.040 A 
ATOM     17  C   UNL     1      -3.501  -0.609  -0.625  0.00  0.00    +0.046 A 
ATOM     18 CL   UNL     1      -3.988   0.664  -1.701  0.00  0.00    -0.083 Cl
ATOM     19 CL   UNL     1      -1.179  -3.856  -0.767  0.00  0.00    -0.083 Cl
ENDBRANCH  10  12
BRANCH   2  20
ATOM     20  N   UNL     1      -7.980  -0.661   2.947  0.00  0.00    -0.345 N 
ATOM     21  H   UNL     1      -8.180  -1.541   2.592  0.00  0.00    +0.143 HD
ATOM     22  H   UNL     1      -8.642  -0.190   3.477  0.00  0.00    +0.143 HD
ENDBRANCH   2  20
BRANCH   1  23
ATOM     23  C   UNL     1      -6.952  -0.873   0.447  0.00  0.00    +0.339 C 
ATOM     24  O   UNL     1      -8.078  -1.284   0.662  0.00  0.00    -0.245 OA
BRANCH  23  25
ATOM     25  O   UNL     1      -6.378  -1.076  -0.759  0.00  0.00    -0.461 OA
BRANCH  25  26
ATOM     26  C   UNL     1      -7.149  -1.780  -1.734  0.00  0.00    +0.232 C 
BRANCH  26  27
ATOM     27  C   UNL     1      -6.340  -1.913  -3.026  0.00  0.00    +0.041 C 
BRANCH  27  29
ATOM     28  C   UNL     1      -6.356  -2.800  -5.362  0.00  0.00    +0.004 C 
ATOM     29  C   UNL     1      -7.165  -2.667  -4.070  0.00  0.00    -0.000 C 
ENDBRANCH  27  29
ENDBRANCH  26  27
ENDBRANCH  25  26
ENDBRANCH  23  25
ENDBRANCH   1  23
BRANCH   9  30
ATOM     30  C   UNL     1      -3.002   1.779   2.174  0.00  0.00    +0.338 C 
ATOM     31  O   UNL     1      -2.486   2.346   3.121  0.00  0.00    -0.245 OA
BRANCH  30  32
ATOM     32  O   UNL     1      -2.373   1.751   0.979  0.00  0.00    -0.462 OA
BRANCH  32  33
ATOM     33  C   UNL     1      -1.106   2.407   0.897  0.00  0.00    +0.229 C 
ATOM     34  C   UNL     1      -0.551   2.270  -0.522  0.00  0.00    +0.048 C 
ENDBRANCH  32  33
ENDBRANCH  30  32
ENDBRANCH   9  30
TORSDOF 10
