REMARK  Name = ZINC22928515
REMARK  6 active torsions:
REMARK  status: ('A' for Active; 'I' for Inactive)
REMARK    1  A    between atoms: C_6  and  C_7
REMARK    2  A    between atoms: C_7  and  C_9
REMARK    3  A    between atoms: C_7  and  N_20
REMARK    4  A    between atoms: N_13  and  C_14
REMARK    5  A    between atoms: N_23  and  C_26
REMARK    6  A    between atoms: C_26  and  C_27
REMARK                            x       y       z     vdW  Elec       q    Type
REMARK                         _______ _______ _______ _____ _____    ______ ____
ROOT
ATOM      1  C   UNL     1      -1.293  -0.775   0.010  0.00  0.00    +0.157 C 
ENDROOT
BRANCH   1   7
ATOM      2  C   UNL     1       1.192  -0.663  -0.265  0.00  0.00    +0.008 A 
ATOM      3  C   UNL     1       2.382   0.040  -0.278  0.00  0.00    +0.038 A 
ATOM      4  C   UNL     1       2.384   1.401  -0.028  0.00  0.00    +0.123 A 
ATOM      5  C   UNL     1       1.193   2.058   0.234  0.00  0.00    +0.038 A 
ATOM      6  C   UNL     1       0.004   1.353   0.247  0.00  0.00    +0.008 A 
ATOM      7  C   UNL     1       0.004  -0.007  -0.003  0.00  0.00    -0.023 A 
ATOM      8  F   UNL     1       3.546   2.089  -0.039  0.00  0.00    -0.205 F 
ENDBRANCH   1   7
BRANCH   1   9
ATOM      9  N   UNL     1      -1.126  -2.004   0.796  0.00  0.00    -0.293 NA
ATOM     10  C   UNL     1      -0.783  -1.695   2.192  0.00  0.00    +0.067 C 
ATOM     11  C   UNL     1      -0.560  -2.999   2.960  0.00  0.00    -0.063 C 
ATOM     12  N   UNL     1      -1.781  -3.814   2.908  0.00  0.00    +0.384 N 
ATOM     13  C   UNL     1      -2.097  -4.135   1.510  0.00  0.00    -0.063 C 
ATOM     14  C   UNL     1      -2.333  -2.840   0.729  0.00  0.00    +0.067 C 
ATOM     15  H   UNL     1      -2.546  -3.298   3.316  0.00  0.00    -0.081 HD
BRANCH  12  16
ATOM     16  C   UNL     1      -1.572  -5.058   3.661  0.00  0.00    -0.043 C 
BRANCH  16  17
ATOM     17  C   UNL     1      -2.861  -5.837   3.711  0.00  0.00    -0.061 A 
ATOM     18  C   UNL     1      -3.770  -5.639   4.739  0.00  0.00    +0.021 A 
ATOM     19  C   UNL     1      -4.942  -6.372   4.752  0.00  0.00    +0.111 A 
ATOM     20  N   UNL     1      -5.199  -7.250   3.802  0.00  0.00    -0.263 NA
ATOM     21  C   UNL     1      -4.358  -7.464   2.809  0.00  0.00    +0.111 A 
ATOM     22  C   UNL     1      -3.169  -6.764   2.727  0.00  0.00    +0.021 A 
ENDBRANCH  16  17
ENDBRANCH  12  16
ENDBRANCH   1   9
BRANCH   1  23
ATOM     23  C   UNL     1      -1.681  -1.130  -1.402  0.00  0.00    +0.173 A 
ATOM     24  N   UNL     1      -1.146  -2.065  -2.148  0.00  0.00    -0.111 NA
ATOM     25  N   UNL     1      -1.750  -2.059  -3.287  0.00  0.00    -0.023 NA
ATOM     26  N   UNL     1      -2.655  -1.144  -3.286  0.00  0.00    -0.044 NA
ATOM     27  N   UNL     1      -2.648  -0.553  -2.139  0.00  0.00    -0.224 N 
BRANCH  27  28
ATOM     28  C   UNL     1      -3.524   0.543  -1.720  0.00  0.00    +0.111 C 
ATOM     29  C   UNL     1      -4.982   0.083  -1.781  0.00  0.00    +0.027 C 
ATOM     30  C   UNL     1      -5.897   1.228  -1.343  0.00  0.00    +0.002 C 
ATOM     31  C   UNL     1      -5.701   2.424  -2.277  0.00  0.00    +0.000 C 
ATOM     32  C   UNL     1      -4.243   2.884  -2.216  0.00  0.00    +0.002 C 
ATOM     33  C   UNL     1      -3.328   1.740  -2.654  0.00  0.00    +0.027 C 
ENDBRANCH  27  28
ENDBRANCH   1  23
TORSDOF 6
