REMARK  Name = ZINC09215725
REMARK  4 active torsions:
REMARK  status: ('A' for Active; 'I' for Inactive)
REMARK    1  A    between atoms: C_1  and  C_2
REMARK    2  A    between atoms: C_9  and  C_14
REMARK    3  A    between atoms: C_16  and  C_19
REMARK    4  A    between atoms: C_24  and  C_25
REMARK                            x       y       z     vdW  Elec       q    Type
REMARK                         _______ _______ _______ _____ _____    ______ ____
ROOT
ATOM      1  C   UNL     1      -1.473   2.062   1.453  0.00  0.00    +0.044 C 
ATOM      2  C   UNL     1      -1.398   0.569   1.263  0.00  0.00    -0.050 A 
ATOM      3  C   UNL     1      -1.583   0.025  -0.001  0.00  0.00    +0.005 A 
ATOM      4  C   UNL     1      -1.519  -1.337  -0.195  0.00  0.00    +0.026 A 
ATOM      5  C   UNL     1      -1.266  -2.181   0.883  0.00  0.00    +0.049 A 
ATOM      6  C   UNL     1      -1.079  -1.628   2.164  0.00  0.00    -0.001 A 
ATOM      7  C   UNL     1      -1.144  -0.237   2.335  0.00  0.00    +0.013 A 
ATOM      8  C   UNL     1      -0.821  -2.475   3.271  0.00  0.00    +0.027 A 
ATOM      9  C   UNL     1      -0.757  -3.827   3.077  0.00  0.00    +0.087 A 
ATOM     10  C   UNL     1      -0.956  -4.372   1.731  0.00  0.00    +0.260 A 
ATOM     11  O   UNL     1      -0.901  -5.575   1.549  0.00  0.00    -0.267 OA
ATOM     12  N   UNL     1      -1.200  -3.546   0.696  0.00  0.00    -0.322 N 
ATOM     13  H   UNL     1      -1.331  -3.915  -0.192  0.00  0.00    +0.169 HD
ENDROOT
BRANCH   9  14
ATOM     14  C   UNL     1      -0.488  -4.733   4.217  0.00  0.00    +0.208 A 
ATOM     15  N   UNL     1      -0.397  -6.071   4.148  0.00  0.00    -0.187 NA
ATOM     16  C   UNL     1      -0.150  -6.565   5.338  0.00  0.00    +0.259 A 
ATOM     17  O   UNL     1      -0.075  -5.545   6.211  0.00  0.00    -0.332 OA
ATOM     18  N   UNL     1      -0.293  -4.360   5.460  0.00  0.00    -0.055 NA
BRANCH  16  19
ATOM     19  C   UNL     1       0.016  -7.998   5.664  0.00  0.00    +0.042 A 
ATOM     20  C   UNL     1      -0.890  -8.939   5.172  0.00  0.00    +0.013 A 
ATOM     21  C   UNL     1      -0.728 -10.274   5.479  0.00  0.00    +0.001 A 
ATOM     22  C   UNL     1       0.329 -10.681   6.274  0.00  0.00    +0.000 A 
ATOM     23  C   UNL     1       1.230  -9.753   6.766  0.00  0.00    +0.004 A 
ATOM     24  C   UNL     1       1.083  -8.416   6.461  0.00  0.00    -0.038 A 
ATOM     25  C   UNL     1       2.070  -7.408   6.992  0.00  0.00    +0.044 C 
ENDBRANCH  16  19
ENDBRANCH   9  14
TORSDOF 2
