REMARK  Name = ZINC02762146
REMARK  11 active torsions:
REMARK  status: ('A' for Active; 'I' for Inactive)
REMARK    1  A    between atoms: C_1  and  C_2
REMARK    2  A    between atoms: C_2  and  S_3
REMARK    3  A    between atoms: S_3  and  C_4
REMARK    4  A    between atoms: C_4  and  C_5
REMARK    5  A    between atoms: C_5  and  O_6
REMARK    6  A    between atoms: O_6  and  C_7
REMARK    7  A    between atoms: C_7  and  C_9
REMARK    8  A    between atoms: C_10  and  C_36
REMARK    9  A    between atoms: C_14  and  C_16
REMARK   10  A    between atoms: C_20  and  O_22
REMARK   11  A    between atoms: C_26  and  C_29
REMARK                            x       y       z     vdW  Elec       q    Type
REMARK                         _______ _______ _______ _____ _____    ______ ____
ROOT
ATOM      1  C   UNL     1       1.881  -6.633   3.433  0.00  0.00    +0.065 C 
ATOM      2  C   UNL     1       2.728  -7.316   4.222  0.00  0.00    +0.016 C 
ATOM      3  N   UNL     1       2.904  -8.660   4.048  0.00  0.00    -0.321 N 
ATOM      4  C   UNL     1       1.975  -9.405   3.373  0.00  0.00    +0.016 C 
ATOM      5  C   UNL     1       1.089  -8.809   2.546  0.00  0.00    +0.024 C 
ATOM      6  C   UNL     1       1.108  -7.316   2.344  0.00  0.00    +0.092 C 
ATOM      7  C   UNL     1       0.119  -9.560   1.859  0.00  0.00    +0.162 C 
ATOM      8  O   UNL     1      -0.658  -8.994   1.117  0.00  0.00    -0.292 OA
ATOM      9  C   UNL     1       0.027 -11.052   2.025  0.00  0.00    +0.088 C 
ATOM     10  C   UNL     1       0.542 -11.432   3.418  0.00  0.00    +0.033 C 
ATOM     11  C   UNL     1       1.969 -10.900   3.570  0.00  0.00    +0.059 C 
ATOM     12  C   UNL     1       3.488  -6.595   5.305  0.00  0.00    +0.061 C 
ATOM     13  H   UNL     1       3.696  -9.091   4.407  0.00  0.00    +0.152 HD
ENDROOT
BRANCH  10  14
ATOM     14  C   UNL     1       0.538 -12.932   3.567  0.00  0.00    -0.025 A 
ATOM     15  C   UNL     1       1.295 -13.714   2.714  0.00  0.00    +0.005 A 
ATOM     16  C   UNL     1       1.291 -15.089   2.851  0.00  0.00    +0.000 A 
ATOM     17  C   UNL     1       0.531 -15.684   3.841  0.00  0.00    +0.001 A 
ATOM     18  C   UNL     1      -0.226 -14.903   4.694  0.00  0.00    +0.020 A 
ATOM     19  C   UNL     1      -0.218 -13.526   4.561  0.00  0.00    +0.044 A 
ATOM     20 CL   UNL     1      -1.164 -12.544   5.637  0.00  0.00    -0.083 Cl
ENDBRANCH  10  14
BRANCH   6  21
ATOM     21  C   UNL     1       1.750  -7.011   1.015  0.00  0.00    -0.032 A 
ATOM     22  C   UNL     1       3.061  -7.384   0.780  0.00  0.00    +0.005 A 
ATOM     23  C   UNL     1       3.654  -7.105  -0.438  0.00  0.00    +0.004 A 
ATOM     24  C   UNL     1       2.937  -6.453  -1.423  0.00  0.00    +0.045 A 
ATOM     25  C   UNL     1       1.622  -6.079  -1.190  0.00  0.00    +0.117 A 
ATOM     26  C   UNL     1       1.028  -6.365   0.031  0.00  0.00    +0.050 A 
BRANCH  25  27
ATOM     27  O   UNL     1       0.915  -5.438  -2.157  0.00  0.00    -0.507 OA
ATOM     28  H   UNL     1       0.433  -6.030  -2.750  0.00  0.00    +0.292 HD
ENDBRANCH  25  27
ENDBRANCH   6  21
BRANCH   1  29
ATOM     29  C   UNL     1       1.710  -5.243   3.637  0.00  0.00    +0.338 C 
ATOM     30  O   UNL     1       2.230  -4.701   4.594  0.00  0.00    -0.245 OA
BRANCH  29  31
ATOM     31  O   UNL     1       0.970  -4.520   2.771  0.00  0.00    -0.460 OA
BRANCH  31  32
ATOM     32  C   UNL     1       0.840  -3.122   3.039  0.00  0.00    +0.243 C 
BRANCH  32  33
ATOM     33  C   UNL     1      -0.027  -2.474   1.958  0.00  0.00    +0.110 C 
BRANCH  33  34
ATOM     34  S   UNL     1      -0.192  -0.700   2.298  0.00  0.00    -0.158 S 
BRANCH  34  36
ATOM     35  C   UNL     1      -1.455   1.416   1.111  0.00  0.00    +0.015 C 
ATOM     36  C   UNL     1      -1.234  -0.089   0.944  0.00  0.00    +0.066 C 
ENDBRANCH  34  36
ENDBRANCH  33  34
ENDBRANCH  32  33
ENDBRANCH  31  32
ENDBRANCH  29  31
ENDBRANCH   1  29
TORSDOF 9
