REMARK  Name = ZINC39687692
REMARK  5 active torsions:
REMARK  status: ('A' for Active; 'I' for Inactive)
REMARK    1  A    between atoms: C_1  and  C_2
REMARK    2  A    between atoms: C_7  and  N_8
REMARK    3  A    between atoms: C_11  and  N_14
REMARK    4  A    between atoms: C_15  and  C_17
REMARK    5  A    between atoms: C_28  and  C_30
REMARK                            x       y       z     vdW  Elec       q    Type
REMARK                         _______ _______ _______ _____ _____    ______ ____
ROOT
ATOM      1  C   UNL     1      -3.121   2.265   8.446  0.00  0.00    +0.100 C 
ATOM      2  C   UNL     1      -3.009   3.764   8.088  0.00  0.00    +0.121 C 
ATOM      3  N   UNL     1      -3.023   4.463   9.395  0.00  0.00    -0.300 N 
ATOM      4  C   UNL     1      -2.206   3.601  10.283  0.00  0.00    +0.115 C 
ATOM      5  C   UNL     1      -2.592   2.162   9.886  0.00  0.00    -0.004 C 
ATOM      6  C   UNL     1      -1.367   1.255   9.937  0.00  0.00    -0.010 C 
ATOM      7  C   UNL     1      -0.895   1.121  11.387  0.00  0.00    -0.082 C 
ATOM      8  N   UNL     1      -1.977   0.562  12.206  0.00  0.00    +0.379 N 
ATOM      9  C   UNL     1      -3.117   1.485  12.228  0.00  0.00    -0.082 C 
ATOM     10  C   UNL     1      -3.683   1.634  10.813  0.00  0.00    -0.010 C 
ATOM     11  C   UNL     1      -3.640   5.620   9.705  0.00  0.00    +0.219 C 
ATOM     12  O   UNL     1      -4.184   6.269   8.838  0.00  0.00    -0.275 OA
ATOM     13  H   UNL     1      -2.269  -0.322  11.817  0.00  0.00    -0.086 HD
ATOM     14  H   UNL     1      -1.644   0.418  13.148  0.00  0.00    -0.086 HD
ENDROOT
BRANCH  11  15
ATOM     15  C   UNL     1      -3.653   6.107  11.131  0.00  0.00    +0.079 C 
ATOM     16  C   UNL     1      -4.824   7.077  11.334  0.00  0.00    +0.017 C 
ATOM     17  C   UNL     1      -4.920   7.415  12.824  0.00  0.00    +0.027 C 
ATOM     18  C   UNL     1      -3.573   7.815  13.351  0.00  0.00    -0.031 C 
ATOM     19  C   UNL     1      -2.455   7.567  12.748  0.00  0.00    -0.030 C 
ATOM     20  C   UNL     1      -2.348   6.848  11.434  0.00  0.00    +0.039 C 
ENDBRANCH  11  15
BRANCH   1  22
ATOM     21  N   UNL     1      -2.627   0.171   7.224  0.00  0.00    -0.312 N 
ATOM     22  C   UNL     1      -2.271   1.438   7.515  0.00  0.00    +0.218 C 
ATOM     23  O   UNL     1      -1.267   1.913   7.028  0.00  0.00    -0.275 OA
ATOM     24  H   UNL     1      -3.430  -0.208   7.614  0.00  0.00    +0.149 HD
BRANCH  21  28
ATOM     25  N   UNL     1      -0.633  -3.046   5.420  0.00  0.00    -0.316 N 
ATOM     26  C   UNL     1      -1.805  -2.533   4.698  0.00  0.00    +0.108 C 
ATOM     27  C   UNL     1      -2.664  -1.717   5.669  0.00  0.00    +0.041 C 
ATOM     28  C   UNL     1      -1.801  -0.632   6.319  0.00  0.00    +0.076 C 
ATOM     29  C   UNL     1      -0.667  -1.287   7.111  0.00  0.00    +0.041 C 
ATOM     30  C   UNL     1       0.211  -2.099   6.161  0.00  0.00    +0.108 C 
BRANCH  25  37
ATOM     31  C   UNL     1       1.211  -3.980   3.465  0.00  0.00    +0.047 C 
ATOM     32  C   UNL     1       0.565  -4.902   4.468  0.00  0.00    -0.012 A 
ATOM     33  C   UNL     1       0.860  -6.253   4.470  0.00  0.00    +0.008 A 
ATOM     34  C   UNL     1       0.241  -7.065   5.412  0.00  0.00    +0.018 A 
ATOM     35  C   UNL     1      -0.643  -6.504   6.312  0.00  0.00    +0.084 A 
ATOM     36  N   UNL     1      -0.906  -5.211   6.286  0.00  0.00    -0.349 N 
ATOM     37  C   UNL     1      -0.332  -4.403   5.408  0.00  0.00    +0.102 A 
ATOM     38  H   UNL     1      -1.531  -4.843   6.929  0.00  0.00    +0.167 HD
ENDBRANCH  25  37
ENDBRANCH  21  28
ENDBRANCH   1  22
TORSDOF 4
