REMARK  Name = ZINC13301896
REMARK  8 active torsions:
REMARK  status: ('A' for Active; 'I' for Inactive)
REMARK    1  A    between atoms: C_1  and  O_2
REMARK    2  A    between atoms: O_2  and  C_3
REMARK    3  A    between atoms: C_3  and  C_5
REMARK    4  A    between atoms: C_8  and  S_11
REMARK    5  A    between atoms: S_11  and  N_14
REMARK    6  A    between atoms: N_14  and  C_15
REMARK    7  A    between atoms: N_14  and  C_18
REMARK    8  A    between atoms: C_15  and  C_16
REMARK                            x       y       z     vdW  Elec       q    Type
REMARK                         _______ _______ _______ _____ _____    ______ ____
ROOT
ATOM      1  S   UNL     1       5.148   4.285  -0.024  0.00  0.00    +0.062 S 
ATOM      2  O   UNL     1       4.865   5.560   0.536  0.00  0.00    -0.153 OA
ATOM      3  O   UNL     1       6.139   3.421   0.513  0.00  0.00    -0.153 OA
ENDROOT
BRANCH   1   7
ATOM      4  C   UNL     1       1.255   1.966   0.001  0.00  0.00    +0.059 A 
ATOM      5  C   UNL     1       1.239   3.363   0.003  0.00  0.00    +0.017 A 
ATOM      6  C   UNL     1       2.428   4.062   0.000  0.00  0.00    +0.029 A 
ATOM      7  C   UNL     1       3.634   3.384  -0.015  0.00  0.00    +0.106 A 
ATOM      8  C   UNL     1       3.656   2.000  -0.022  0.00  0.00    +0.029 A 
ATOM      9  C   UNL     1       2.475   1.288  -0.015  0.00  0.00    +0.017 A 
BRANCH   4  10
ATOM     10  C   UNL     1      -0.014   1.210   0.009  0.00  0.00    +0.339 C 
ATOM     11  O   UNL     1       0.002  -0.004   0.002  0.00  0.00    -0.245 OA
BRANCH  10  13
ATOM     12  C   UNL     1      -2.397   1.061   0.019  0.00  0.00    +0.280 C 
ATOM     13  O   UNL     1      -1.190   1.868   0.018  0.00  0.00    -0.464 OA
ENDBRANCH  10  13
ENDBRANCH   4  10
ENDBRANCH   1   7
BRANCH   1  14
ATOM     14  N   UNL     1       5.554   4.544  -1.609  0.00  0.00    -0.161 NA
BRANCH  14  15
ATOM     15  C   UNL     1       6.382   3.568  -2.321  0.00  0.00    +0.103 C 
ATOM     16  C   UNL     1       7.661   4.250  -2.836  0.00  0.00    +0.045 C 
ATOM     17  C   UNL     1       8.380   3.328  -3.849  0.00  0.00    +0.167 C 
ATOM     18  S   UNL     1       6.994   2.349  -4.558  0.00  0.00    -0.029 S 
ATOM     19  O   UNL     1       7.184   0.978  -4.237  0.00  0.00    -0.174 OA
ATOM     20  O   UNL     1       6.803   2.730  -5.914  0.00  0.00    -0.174 OA
ATOM     21  C   UNL     1       5.603   3.013  -3.548  0.00  0.00    +0.186 C 
ENDBRANCH  14  15
BRANCH  14  22
ATOM     22  C   UNL     1       5.084   5.748  -2.298  0.00  0.00    +0.234 C 
BRANCH  22  23
ATOM     23  C   UNL     1       6.146   6.815  -2.227  0.00  0.00    +0.371 C 
ATOM     24  O   UNL     1       7.189   6.591  -1.658  0.00  0.00    -0.245 OA
ATOM     25  O   UNL     1       5.935   8.012  -2.794  0.00  0.00    -0.245 OA
ENDBRANCH  22  23
ENDBRANCH  14  22
ENDBRANCH   1  14
TORSDOF 7
