REMARK  Name = ZINC33469776
REMARK  7 active torsions:
REMARK  status: ('A' for Active; 'I' for Inactive)
REMARK    1  A    between atoms: C_1  and  C_2
REMARK    2  A    between atoms: N_8  and  C_9
REMARK    3  A    between atoms: C_9  and  C_10
REMARK    4  A    between atoms: C_11  and  C_21
REMARK    5  A    between atoms: N_23  and  N_24
REMARK    6  A    between atoms: C_25  and  C_26
REMARK    7  A    between atoms: C_25  and  C_27
REMARK                            x       y       z     vdW  Elec       q    Type
REMARK                         _______ _______ _______ _____ _____    ______ ____
ROOT
ATOM      1  C   UNL     1       5.801  -0.656  -3.361  0.00  0.00    +0.063 A 
ATOM      2  C   UNL     1       6.215   0.628  -3.144  0.00  0.00    +0.170 A 
ATOM      3  N   UNL     1       7.286   0.599  -2.333  0.00  0.00    -0.124 NA
ATOM      4  N   UNL     1       7.566  -0.621  -2.030  0.00  0.00    -0.058 NA
ATOM      5  N   UNL     1       6.636  -1.458  -2.663  0.00  0.00    -0.194 N 
ATOM      6  C   UNL     1       6.584  -2.855  -2.588  0.00  0.00    +0.240 A 
ATOM      7  C   UNL     1       7.503  -3.708  -1.830  0.00  0.00    +0.206 A 
ATOM      8  N   UNL     1       7.140  -4.950  -1.996  0.00  0.00    -0.032 NA
ATOM      9  O   UNL     1       6.010  -4.962  -2.851  0.00  0.00    -0.239 OA
ATOM     10  N   UNL     1       5.713  -3.618  -3.186  0.00  0.00    -0.027 NA
ATOM     11  N   UNL     1       8.575  -3.269  -1.062  0.00  0.00    -0.337 N 
ATOM     12  H   UNL     1       9.206  -3.997  -0.530  0.00  0.00    +0.144 HD
ATOM     13  H   UNL     1       8.793  -2.193  -0.986  0.00  0.00    +0.144 HD
ENDROOT
BRANCH   2  14
ATOM     14  C   UNL     1       5.591   1.841  -3.705  0.00  0.00    +0.285 C 
ATOM     15  O   UNL     1       4.619   1.745  -4.431  0.00  0.00    -0.267 OA
ATOM     16  N   UNL     1       6.097   3.055  -3.413  0.00  0.00    -0.201 N 
ATOM     17  H   UNL     1       6.975   3.142  -2.757  0.00  0.00    +0.178 HD
BRANCH  16  18
ATOM     18  N   UNL     1       5.504   4.207  -3.946  0.00  0.00    -0.184 NA
ATOM     19  C   UNL     1       6.061   5.366  -3.767  0.00  0.00    +0.063 C 
ATOM     20  C   UNL     1       5.345   6.620  -4.197  0.00  0.00    +0.068 C 
BRANCH  19  21
ATOM     21  C   UNL     1       7.394   5.454  -3.142  0.00  0.00    -0.001 A 
ATOM     22  C   UNL     1       7.691   6.505  -2.271  0.00  0.00    +0.011 A 
ATOM     23  C   UNL     1       8.938   6.580  -1.686  0.00  0.00    +0.022 A 
ATOM     24  C   UNL     1       9.898   5.623  -1.968  0.00  0.00    +0.059 A 
ATOM     25  C   UNL     1       9.611   4.581  -2.836  0.00  0.00    +0.060 A 
ATOM     26  C   UNL     1       8.365   4.492  -3.424  0.00  0.00    +0.031 A 
ATOM     27 CL   UNL     1      10.821   3.385  -3.184  0.00  0.00    -0.082 Cl
ATOM     28 CL   UNL     1      11.466   5.728  -1.232  0.00  0.00    -0.082 Cl
ENDBRANCH  19  21
ENDBRANCH  16  18
ENDBRANCH   2  14
BRANCH   1  29
ATOM     29  C   UNL     1       4.635  -1.094  -4.209  0.00  0.00    -0.019 C 
BRANCH  29  36
ATOM     30  C   UNL     1       2.643  -2.991  -4.798  0.00  0.00    -0.013 C 
ATOM     31  C   UNL     1       2.279  -1.650  -4.158  0.00  0.00    -0.071 C 
ATOM     32  C   UNL     1       1.075  -1.836  -3.232  0.00  0.00    -0.016 C 
ATOM     33  C   UNL     1       0.728  -0.496  -2.578  0.00  0.00    -0.003 C 
ATOM     34  C   UNL     1       1.950   0.023  -1.816  0.00  0.00    -0.019 C 
ATOM     35  C   UNL     1       3.129   0.156  -2.783  0.00  0.00    -0.078 C 
ATOM     36  N   UNL     1       3.422  -1.153  -3.381  0.00  0.00    +0.385 N 
ATOM     37  H   UNL     1       3.605  -1.863  -2.562  0.00  0.00    -0.081 HD
ENDBRANCH  29  36
ENDBRANCH   1  29
TORSDOF 5
