REMARK  Name = ZINC36823555
REMARK  10 active torsions:
REMARK  status: ('A' for Active; 'I' for Inactive)
REMARK    1  A    between atoms: C_1  and  C_2
REMARK    2  A    between atoms: C_3  and  O_30
REMARK    3  A    between atoms: C_12  and  C_13
REMARK    4  A    between atoms: C_13  and  S_14
REMARK    5  A    between atoms: S_14  and  C_15
REMARK    6  A    between atoms: C_18  and  C_20
REMARK    7  A    between atoms: C_23  and  O_28
REMARK    8  A    between atoms: C_24  and  O_26
REMARK    9  A    between atoms: O_26  and  C_27
REMARK   10  A    between atoms: O_28  and  C_29
REMARK                            x       y       z     vdW  Elec       q    Type
REMARK                         _______ _______ _______ _____ _____    ______ ____
ROOT
ATOM      1  S   UNL     1      -1.575  -4.984   2.040  0.00  0.00    -0.061 S 
ENDROOT
BRANCH   1   2
ATOM      2  C   UNL     1      -1.390  -6.735   2.111  0.00  0.00    +0.278 A 
ATOM      3  N   UNL     1      -0.292  -7.389   2.414  0.00  0.00    -0.101 NA
ATOM      4  N   UNL     1      -0.520  -8.654   2.368  0.00  0.00    -0.106 NA
ATOM      5  C   UNL     1      -1.771  -8.859   2.034  0.00  0.00    +0.249 A 
ATOM      6  O   UNL     1      -2.350  -7.649   1.870  0.00  0.00    -0.411 OA
BRANCH   5   7
ATOM      7  C   UNL     1      -2.429 -10.172   1.873  0.00  0.00    +0.042 A 
ATOM      8  C   UNL     1      -3.775 -10.240   1.505  0.00  0.00    +0.017 A 
ATOM      9  C   UNL     1      -4.387 -11.466   1.355  0.00  0.00    +0.050 A 
ATOM     10  C   UNL     1      -3.670 -12.634   1.568  0.00  0.00    +0.162 A 
ATOM     11  C   UNL     1      -2.328 -12.574   1.935  0.00  0.00    +0.162 A 
ATOM     12  C   UNL     1      -1.705 -11.348   2.081  0.00  0.00    +0.062 A 
BRANCH  11  13
ATOM     13  O   UNL     1      -1.627 -13.721   2.144  0.00  0.00    -0.491 OA
ATOM     14  C   UNL     1      -0.255 -13.584   2.518  0.00  0.00    +0.277 C 
ENDBRANCH  11  13
BRANCH  10  15
ATOM     15  O   UNL     1      -4.278 -13.841   1.419  0.00  0.00    -0.491 OA
ATOM     16  C   UNL     1      -5.657 -13.830   1.041  0.00  0.00    +0.277 C 
ENDBRANCH  10  15
ENDBRANCH   5   7
ENDBRANCH   1   2
BRANCH   1  17
ATOM     17  C   UNL     1       0.071  -4.351   2.466  0.00  0.00    +0.115 C 
BRANCH  17  29
ATOM     18  C   UNL     1      -0.018   1.503   0.010  0.00  0.00    +0.051 C 
ATOM     19  C   UNL     1       0.002  -0.004   0.002  0.00  0.00    +0.034 A 
ATOM     20  C   UNL     1       0.006  -0.693  -1.200  0.00  0.00    +0.123 A 
ATOM     21  C   UNL     1       0.024  -2.086  -1.219  0.00  0.00    +0.046 A 
ATOM     22  C   UNL     1       0.039  -2.792  -0.051  0.00  0.00    +0.015 A 
ATOM     23  C   UNL     1       0.036  -2.113   1.173  0.00  0.00    +0.022 A 
ATOM     24  C   UNL     1       0.023  -0.706   1.198  0.00  0.00    +0.146 A 
ATOM     25  O   UNL     1       0.025  -0.054   2.380  0.00  0.00    -0.422 OA
ATOM     26  C   UNL     1       0.045  -0.719   3.546  0.00  0.00    +0.338 A 
ATOM     27  O   UNL     1       0.046  -0.089   4.588  0.00  0.00    -0.245 OA
ATOM     28  C   UNL     1       0.065  -2.128   3.595  0.00  0.00    +0.097 A 
ATOM     29  C   UNL     1       0.051  -2.845   2.441  0.00  0.00    -0.020 A 
BRANCH  20  30
ATOM     30  O   UNL     1      -0.009  -0.004  -2.370  0.00  0.00    -0.506 OA
ATOM     31  H   UNL     1       0.870   0.207  -2.713  0.00  0.00    +0.292 HD
ENDBRANCH  20  30
ENDBRANCH  17  29
ENDBRANCH   1  17
TORSDOF 7
