REMARK  Name = ZINC02281990
REMARK  5 active torsions:
REMARK  status: ('A' for Active; 'I' for Inactive)
REMARK    1  A    between atoms: C_4  and  C_7
REMARK    2  A    between atoms: C_7  and  N_8
REMARK    3  A    between atoms: C_17  and  S_18
REMARK    4  A    between atoms: S_18  and  C_19
REMARK    5  A    between atoms: C_19  and  C_20
REMARK                            x       y       z     vdW  Elec       q    Type
REMARK                         _______ _______ _______ _____ _____    ______ ____
ROOT
ATOM      1  N   UNL     1       0.002  -0.004   0.002  0.00  0.00    -0.273 N 
ATOM      2  C   UNL     1      -0.016   1.352   0.009  0.00  0.00    +0.260 A 
ATOM      3  O   UNL     1      -1.107   1.891   0.033  0.00  0.00    -0.267 OA
ATOM      4  C   UNL     1       1.173   2.104   0.002  0.00  0.00    +0.048 A 
ATOM      5  C   UNL     1       2.389   1.470   0.121  0.00  0.00    +0.068 A 
ATOM      6  N   UNL     1       2.389   0.110   0.344  0.00  0.00    -0.255 N 
ATOM      7  C   UNL     1       1.223  -0.626   0.195  0.00  0.00    +0.240 A 
ATOM      8  N   UNL     1       1.531  -1.886   0.241  0.00  0.00    -0.109 NA
ATOM      9  N   UNL     1       2.883  -1.981   0.599  0.00  0.00    -0.120 NA
ATOM     10  C   UNL     1       3.361  -0.758   0.716  0.00  0.00    +0.198 A 
ATOM     11  C   UNL     1       3.616   2.264  -0.037  0.00  0.00    +0.003 A 
ATOM     12  C   UNL     1       4.792   1.715  -0.547  0.00  0.00    +0.010 A 
ATOM     13  C   UNL     1       5.929   2.493  -0.645  0.00  0.00    +0.001 A 
ATOM     14  C   UNL     1       5.901   3.823  -0.262  0.00  0.00    +0.000 A 
ATOM     15  C   UNL     1       4.720   4.394   0.180  0.00  0.00    +0.004 A 
ATOM     16  C   UNL     1       3.581   3.628   0.267  0.00  0.00    -0.037 A 
ATOM     17  C   UNL     1       2.266   4.231   0.689  0.00  0.00    +0.047 C 
ATOM     18  C   UNL     1       1.145   3.605  -0.147  0.00  0.00    +0.007 C 
ATOM     19  C   UNL     1       1.362   3.954  -1.623  0.00  0.00    +0.012 C 
ATOM     20  C   UNL     1       1.354   5.471  -1.811  0.00  0.00    +0.001 C 
ATOM     21  C   UNL     1       0.026   6.050  -1.324  0.00  0.00    +0.000 C 
ATOM     22  C   UNL     1      -0.178   5.704   0.152  0.00  0.00    +0.001 C 
ATOM     23  C   UNL     1      -0.196   4.178   0.308  0.00  0.00    +0.012 C 
ENDROOT
BRANCH   1  24
ATOM     24  C   UNL     1      -1.226  -0.775  -0.202  0.00  0.00    +0.163 C 
BRANCH  24  28
ATOM     25  C   UNL     1      -1.778  -1.495  -4.377  0.00  0.00    +0.000 A 
ATOM     26  C   UNL     1      -1.065  -2.396  -3.608  0.00  0.00    +0.000 A 
ATOM     27  C   UNL     1      -0.886  -2.163  -2.258  0.00  0.00    +0.005 A 
ATOM     28  C   UNL     1      -1.420  -1.029  -1.675  0.00  0.00    -0.028 A 
ATOM     29  C   UNL     1      -2.138  -0.130  -2.442  0.00  0.00    +0.005 A 
ATOM     30  C   UNL     1      -2.312  -0.360  -3.794  0.00  0.00    +0.000 A 
ENDBRANCH  24  28
ENDBRANCH   1  24
BRANCH  10  31
ATOM     31  S   UNL     1       4.971  -0.362   1.314  0.00  0.00    -0.076 S 
BRANCH  31  32
ATOM     32  C   UNL     1       5.710  -1.976   1.686  0.00  0.00    +0.172 C 
BRANCH  32  33
ATOM     33  C   UNL     1       7.107  -1.779   2.214  0.00  0.00    +0.221 C 
ATOM     34  O   UNL     1       7.560  -0.660   2.328  0.00  0.00    -0.275 OA
ATOM     35  N   UNL     1       7.854  -2.847   2.559  0.00  0.00    -0.329 N 
ATOM     36  H   UNL     1       7.492  -3.742   2.468  0.00  0.00    +0.145 HD
ATOM     37  H   UNL     1       8.754  -2.720   2.898  0.00  0.00    +0.145 HD
ENDBRANCH  32  33
ENDBRANCH  31  32
ENDBRANCH  10  31
TORSDOF 5
