REMARK  Name = ZINC03390952
REMARK  5 active torsions:
REMARK  status: ('A' for Active; 'I' for Inactive)
REMARK    1  A    between atoms: C_8  and  C_10
REMARK    2  A    between atoms: N_12  and  N_13
REMARK    3  A    between atoms: C_14  and  C_16
REMARK    4  A    between atoms: C_19  and  S_22
REMARK    5  A    between atoms: S_22  and  N_25
REMARK                            x       y       z     vdW  Elec       q    Type
REMARK                         _______ _______ _______ _____ _____    ______ ____
ROOT
ATOM      1  N   UNL     1      -3.478  -1.346   0.027  0.00  0.00    -0.230 N 
ATOM      2  C   UNL     1      -4.739  -0.871   0.042  0.00  0.00    +0.260 C 
ATOM      3  O   UNL     1      -4.936   0.329   0.051  0.00  0.00    -0.269 OA
ATOM      4  H   UNL     1      -3.321  -2.304   0.020  0.00  0.00    +0.173 HD
ENDROOT
BRANCH   2   5
ATOM      5  C   UNL     1      -5.883  -1.807   0.047  0.00  0.00    +0.038 A 
ATOM      6  C   UNL     1      -5.660  -3.185   0.032  0.00  0.00    +0.015 A 
ATOM      7  C   UNL     1      -6.732  -4.054   0.043  0.00  0.00    +0.029 A 
ATOM      8  C   UNL     1      -8.025  -3.562   0.057  0.00  0.00    +0.106 A 
ATOM      9  C   UNL     1      -8.253  -2.197   0.067  0.00  0.00    +0.029 A 
ATOM     10  C   UNL     1      -7.190  -1.318   0.062  0.00  0.00    +0.015 A 
BRANCH   8  11
ATOM     11  S   UNL     1      -9.388  -4.679   0.064  0.00  0.00    +0.061 S 
ATOM     12  O   UNL     1      -8.908  -5.903   0.603  0.00  0.00    -0.153 OA
ATOM     13  O   UNL     1     -10.486  -3.976   0.629  0.00  0.00    -0.153 OA
BRANCH  11  14
ATOM     14  N   UNL     1      -9.782  -4.980  -1.516  0.00  0.00    -0.177 NA
ATOM     15  C   UNL     1     -10.755  -4.128  -2.163  0.00  0.00    +0.109 C 
ATOM     16  C   UNL     1     -12.175  -4.693  -1.946  0.00  0.00    +0.017 C 
ATOM     17  C   UNL     1     -12.362  -5.920  -2.736  0.00  0.00    +0.001 C 
ATOM     18  C   UNL     1     -11.434  -7.066  -2.346  0.00  0.00    +0.001 C 
ATOM     19  C   UNL     1     -10.119  -6.913  -3.070  0.00  0.00    +0.017 C 
ATOM     20  C   UNL     1      -9.129  -6.111  -2.205  0.00  0.00    +0.109 C 
ENDBRANCH  11  14
ENDBRANCH   8  11
ENDBRANCH   2   5
BRANCH   1  23
ATOM     21  C   UNL     1      -1.134  -0.934   0.007  0.00  0.00    +0.268 C 
ATOM     22  O   UNL     1      -0.937  -2.135  -0.001  0.00  0.00    -0.268 OA
ATOM     23  N   UNL     1      -2.395  -0.459   0.022  0.00  0.00    -0.230 N 
ATOM     24  H   UNL     1      -2.552   0.498   0.029  0.00  0.00    +0.173 HD
BRANCH  21  32
ATOM     25  C   UNL     1       4.460   1.781  -0.031  0.00  0.00    +0.001 A 
ATOM     26  C   UNL     1       3.898   3.053  -0.019  0.00  0.00    +0.001 A 
ATOM     27  C   UNL     1       2.525   3.189  -0.005  0.00  0.00    +0.016 A 
ATOM     28  C   UNL     1       1.730   2.062  -0.003  0.00  0.00    +0.021 A 
ATOM     29  C   UNL     1       2.275   0.756  -0.016  0.00  0.00    +0.008 A 
ATOM     30  C   UNL     1       3.690   0.663  -0.030  0.00  0.00    +0.010 A 
ATOM     31  C   UNL     1       1.332  -0.290  -0.012  0.00  0.00    +0.068 A 
ATOM     32  C   UNL     1       0.002  -0.004   0.002  0.00  0.00    +0.095 A 
ATOM     33  S   UNL     1      -0.022   1.780   0.012  0.00  0.00    -0.082 S 
ATOM     34 CL   UNL     1       1.867  -1.942  -0.027  0.00  0.00    -0.082 Cl
ENDBRANCH  21  32
ENDBRANCH   1  23
TORSDOF 5
