REMARK  Name = ZINC43220743
REMARK  7 active torsions:
REMARK  status: ('A' for Active; 'I' for Inactive)
REMARK    1  A    between atoms: C_1  and  C_2
REMARK    2  A    between atoms: C_2  and  N_3
REMARK    3  A    between atoms: N_6  and  C_9
REMARK    4  A    between atoms: C_9  and  C_11
REMARK    5  A    between atoms: C_9  and  C_17
REMARK    6  A    between atoms: C_18  and  C_30
REMARK    7  A    between atoms: C_24  and  N_27
REMARK                            x       y       z     vdW  Elec       q    Type
REMARK                         _______ _______ _______ _____ _____    ______ ____
ROOT
ATOM      1  C   UNL     1       3.433  -2.512  -3.697  0.00  0.00    +0.138 C 
ENDROOT
BRANCH   1   2
ATOM      2  C   UNL     1       3.308  -4.012  -3.760  0.00  0.00    +0.004 A 
ATOM      3  C   UNL     1       3.450  -4.869  -2.736  0.00  0.00    +0.019 A 
ATOM      4  N   UNL     1       3.265  -6.153  -3.173  0.00  0.00    -0.358 N 
ATOM      5  H   UNL     1       3.318  -6.944  -2.615  0.00  0.00    +0.166 HD
ATOM      6  C   UNL     1       2.994  -6.154  -4.523  0.00  0.00    +0.047 A 
ATOM      7  C   UNL     1       3.002  -4.812  -4.949  0.00  0.00    +0.007 A 
ATOM      8  C   UNL     1       2.748  -4.505  -6.286  0.00  0.00    +0.043 A 
ATOM      9  C   UNL     1       2.489  -5.509  -7.176  0.00  0.00    +0.127 A 
ATOM     10  C   UNL     1       2.476  -6.833  -6.760  0.00  0.00    +0.035 A 
ATOM     11  C   UNL     1       2.732  -7.160  -5.446  0.00  0.00    +0.028 A 
ATOM     12  C   UNL     1       3.765  -4.475  -1.316  0.00  0.00    +0.063 C 
BRANCH   9  13
ATOM     13  N   UNL     1       2.220  -5.183  -8.594  0.00  0.00    +0.056 N 
ATOM     14  O   UNL     1       2.230  -4.031  -8.962  0.00  0.00    -0.126 OA
ATOM     15  O   UNL     1       1.990  -6.067  -9.386  0.00  0.00    -0.126 OA
ENDBRANCH   9  13
ENDBRANCH   1   2
BRANCH   1  19
ATOM     16  N   UNL     1       0.690  -0.478  -1.207  0.00  0.00    +0.381 N 
ATOM     17  C   UNL     1       2.100  -0.069  -1.160  0.00  0.00    -0.063 C 
ATOM     18  C   UNL     1       2.812  -0.546  -2.427  0.00  0.00    +0.067 C 
ATOM     19  N   UNL     1       2.711  -2.009  -2.521  0.00  0.00    -0.294 NA
ATOM     20  C   UNL     1       1.305  -2.435  -2.544  0.00  0.00    +0.067 C 
ATOM     21  C   UNL     1       0.605  -1.943  -1.275  0.00  0.00    -0.063 C 
ATOM     22  H   UNL     1       0.251  -0.077  -2.022  0.00  0.00    -0.082 HD
BRANCH  16  24
ATOM     23  C   UNL     1      -0.019   1.526   0.010  0.00  0.00    -0.017 C 
ATOM     24  C   UNL     1       0.002  -0.004   0.002  0.00  0.00    -0.082 C 
ENDBRANCH  16  24
ENDBRANCH   1  19
BRANCH   1  25
ATOM     25  C   UNL     1       4.888  -2.133  -3.594  0.00  0.00    +0.063 A 
ATOM     26  C   UNL     1       5.646  -2.014  -4.744  0.00  0.00    +0.025 A 
ATOM     27  C   UNL     1       6.984  -1.665  -4.638  0.00  0.00    +0.003 A 
ATOM     28  C   UNL     1       7.511  -1.448  -3.374  0.00  0.00    +0.020 A 
ATOM     29  C   UNL     1       6.692  -1.586  -2.269  0.00  0.00    +0.111 A 
ATOM     30  N   UNL     1       5.422  -1.914  -2.409  0.00  0.00    -0.258 NA
ENDBRANCH   1  25
TORSDOF 5
