REMARK  Name = ZINC11919751
REMARK  8 active torsions:
REMARK  status: ('A' for Active; 'I' for Inactive)
REMARK    1  A    between atoms: C_1  and  N_53
REMARK    2  A    between atoms: C_6  and  O_14
REMARK    3  A    between atoms: O_14  and  C_15
REMARK    4  A    between atoms: C_16  and  C_18
REMARK    5  A    between atoms: C_23  and  O_31
REMARK    6  A    between atoms: C_24  and  O_29
REMARK    7  A    between atoms: O_29  and  C_30
REMARK    8  A    between atoms: O_31  and  C_32
REMARK                            x       y       z     vdW  Elec       q    Type
REMARK                         _______ _______ _______ _____ _____    ______ ____
ROOT
ATOM      1  C   UNL     1       1.458  -1.904  -0.395  0.00  0.00    -0.095 C 
ATOM      2  C   UNL     1       2.568   0.210   0.015  0.00  0.00    -0.073 C 
ATOM      3  C   UNL     1       2.536   1.678  -0.413  0.00  0.00    +0.018 C 
ATOM      4  C   UNL     1       1.223   2.301  -0.013  0.00  0.00    -0.026 A 
ATOM      5  C   UNL     1       0.129   1.532   0.321  0.00  0.00    -0.007 A 
ATOM      6  C   UNL     1      -1.065   2.147   0.683  0.00  0.00    +0.167 A 
ATOM      7  C   UNL     1      -1.162   3.532   0.704  0.00  0.00    +0.209 A 
ATOM      8  C   UNL     1      -0.055   4.305   0.371  0.00  0.00    +0.184 A 
ATOM      9  C   UNL     1       1.131   3.685   0.013  0.00  0.00    +0.067 A 
ATOM     10 BR   UNL     1       2.638   4.734  -0.442  0.00  0.00    -0.046 Br
ATOM     11  O   UNL     1      -0.396   5.623   0.473  0.00  0.00    -0.451 OA
ATOM     12  C   UNL     1      -1.598   5.649   1.265  0.00  0.00    +0.467 C 
ATOM     13  O   UNL     1      -2.199   4.365   1.016  0.00  0.00    -0.449 OA
ATOM     14  C   UNL     1       0.183   0.026   0.313  0.00  0.00    +0.012 C 
ATOM     15  N   UNL     1       1.335  -0.432  -0.483  0.00  0.00    +0.385 N 
ATOM     16  H   UNL     1       1.191  -0.166  -1.464  0.00  0.00    -0.081 HD
ENDROOT
BRANCH  14  17
ATOM     17  C   UNL     1      -1.100  -0.522  -0.314  0.00  0.00    +0.199 C 
ATOM     18  C   UNL     1      -1.218  -0.056  -1.744  0.00  0.00    +0.009 A 
ATOM     19  C   UNL     1      -1.303   1.186  -2.326  0.00  0.00    +0.012 A 
ATOM     20  C   UNL     1      -1.405   1.304  -3.704  0.00  0.00    +0.050 A 
ATOM     21  C   UNL     1      -1.422   0.172  -4.502  0.00  0.00    +0.162 A 
ATOM     22  C   UNL     1      -1.337  -1.091  -3.925  0.00  0.00    +0.176 A 
ATOM     23  C   UNL     1      -1.234  -1.211  -2.533  0.00  0.00    +0.111 A 
ATOM     24  C   UNL     1      -1.129  -2.375  -1.640  0.00  0.00    +0.344 C 
ATOM     25  O   UNL     1      -1.115  -3.533  -2.008  0.00  0.00    -0.245 OA
ATOM     26  O   UNL     1      -1.052  -1.974  -0.360  0.00  0.00    -0.454 OA
BRANCH  22  27
ATOM     27  O   UNL     1      -1.353  -2.201  -4.706  0.00  0.00    -0.491 OA
ATOM     28  C   UNL     1      -0.091  -2.687  -5.168  0.00  0.00    +0.277 C 
ENDBRANCH  22  27
BRANCH  21  29
ATOM     29  O   UNL     1      -1.522   0.296  -5.852  0.00  0.00    -0.491 OA
ATOM     30  C   UNL     1      -1.605   1.622  -6.378  0.00  0.00    +0.277 C 
ENDBRANCH  21  29
ENDBRANCH  14  17
BRANCH   6  31
ATOM     31  O   UNL     1      -2.144   1.389   1.014  0.00  0.00    -0.491 OA
ATOM     32  C   UNL     1      -2.356   1.133   2.404  0.00  0.00    +0.277 C 
ENDBRANCH   6  31
TORSDOF 4
