REMARK  Name = ZINC02746969
REMARK  12 active torsions:
REMARK  status: ('A' for Active; 'I' for Inactive)
REMARK    1  A    between atoms: C_1  and  C_2
REMARK    2  A    between atoms: C_2  and  C_3
REMARK    3  A    between atoms: C_4  and  C_29
REMARK    4  A    between atoms: C_6  and  N_14
REMARK    5  A    between atoms: C_7  and  C_8
REMARK    6  A    between atoms: C_8  and  O_10
REMARK    7  A    between atoms: O_10  and  C_11
REMARK    8  A    between atoms: C_11  and  C_12
REMARK    9  A    between atoms: C_11  and  C_13
REMARK   10  A    between atoms: C_15  and  C_17
REMARK   11  A    between atoms: C_19  and  S_25
REMARK   12  A    between atoms: S_25  and  N_28
REMARK                            x       y       z     vdW  Elec       q    Type
REMARK                         _______ _______ _______ _____ _____    ______ ____
ROOT
ATOM      1  N   UNL     1      -4.362   2.023  -4.464  0.00  0.00    -0.275 N 
ATOM      2  C   UNL     1      -3.484   3.034  -4.614  0.00  0.00    +0.250 C 
ATOM      3  O   UNL     1      -3.515   3.723  -5.615  0.00  0.00    -0.270 OA
ATOM      4  H   UNL     1      -4.337   1.472  -3.666  0.00  0.00    +0.156 HD
ENDROOT
BRANCH   2   5
ATOM      5  C   UNL     1      -2.483   3.304  -3.562  0.00  0.00    +0.057 A 
ATOM      6  C   UNL     1      -2.440   2.510  -2.414  0.00  0.00    +0.044 A 
ATOM      7  C   UNL     1      -1.507   2.771  -1.433  0.00  0.00    +0.124 A 
ATOM      8  C   UNL     1      -0.605   3.811  -1.589  0.00  0.00    +0.069 A 
ATOM      9  C   UNL     1      -0.637   4.599  -2.727  0.00  0.00    +0.042 A 
ATOM     10  C   UNL     1      -1.571   4.352  -3.715  0.00  0.00    +0.055 A 
ATOM     11 CL   UNL     1      -1.610   5.340  -5.141  0.00  0.00    -0.083 Cl
ATOM     12 CL   UNL     1       0.571   4.128  -0.352  0.00  0.00    -0.081 Cl
BRANCH   7  13
ATOM     13  S   UNL     1      -1.456   1.774   0.019  0.00  0.00    +0.057 S 
ATOM     14  O   UNL     1      -2.472   0.792  -0.128  0.00  0.00    -0.153 OA
ATOM     15  O   UNL     1      -1.413   2.667   1.123  0.00  0.00    -0.153 OA
BRANCH  13  16
ATOM     16  N   UNL     1      -0.011   0.966   0.007  0.00  0.00    -0.203 NA
ATOM     17  H   UNL     1       0.002  -0.004   0.002  0.00  0.00    +0.144 HD
ATOM     18  H   UNL     1       0.822   1.462   0.002  0.00  0.00    +0.144 HD
ENDBRANCH  13  16
ENDBRANCH   7  13
ENDBRANCH   2   5
BRANCH   1  22
ATOM     19  C   UNL     1      -7.133   0.746  -6.643  0.00  0.00    -0.022 A 
ATOM     20  C   UNL     1      -6.907   1.666  -7.597  0.00  0.00    -0.008 A 
ATOM     21  S   UNL     1      -5.545   2.609  -6.945  0.00  0.00    -0.078 S 
ATOM     22  C   UNL     1      -5.301   1.769  -5.450  0.00  0.00    +0.087 A 
ATOM     23  C   UNL     1      -6.280   0.782  -5.478  0.00  0.00    +0.091 A 
ATOM     24  C   UNL     1      -7.637   1.858  -8.902  0.00  0.00    +0.052 C 
BRANCH  19  26
ATOM     25  C   UNL     1      -9.523   0.272  -6.182  0.00  0.00    +0.009 C 
ATOM     26  C   UNL     1      -8.228  -0.279  -6.783  0.00  0.00    +0.033 C 
ENDBRANCH  19  26
BRANCH  23  27
ATOM     27  C   UNL     1      -6.439  -0.174  -4.380  0.00  0.00    +0.342 C 
ATOM     28  O   UNL     1      -7.180   0.084  -3.450  0.00  0.00    -0.245 OA
BRANCH  27  29
ATOM     29  O   UNL     1      -5.764  -1.342  -4.399  0.00  0.00    -0.458 OA
BRANCH  29  30
ATOM     30  C   UNL     1      -5.969  -2.241  -3.278  0.00  0.00    +0.171 C 
ATOM     31  C   UNL     1      -5.798  -3.688  -3.747  0.00  0.00    +0.052 C 
ATOM     32  C   UNL     1      -4.945  -1.935  -2.184  0.00  0.00    +0.052 C 
ENDBRANCH  29  30
ENDBRANCH  27  29
ENDBRANCH  23  27
ENDBRANCH   1  22
TORSDOF 8
