REMARK  Name = ZINC38796721
REMARK  7 active torsions:
REMARK  status: ('A' for Active; 'I' for Inactive)
REMARK    1  A    between atoms: C_4  and  N_7
REMARK    2  A    between atoms: C_10  and  C_13
REMARK    3  A    between atoms: C_13  and  S_14
REMARK    4  A    between atoms: S_14  and  C_15
REMARK    5  A    between atoms: C_19  and  C_28
REMARK    6  A    between atoms: N_20  and  C_21
REMARK    7  A    between atoms: C_21  and  C_22
REMARK                            x       y       z     vdW  Elec       q    Type
REMARK                         _______ _______ _______ _____ _____    ______ ____
ROOT
ATOM      1  C   UNL     1       7.541  -6.309   2.191  0.00  0.00    +0.237 C 
ATOM      2  N   UNL     1       7.109  -7.559   1.543  0.00  0.00    -0.237 N 
ATOM      3  N   UNL     1       7.905  -7.710   0.401  0.00  0.00    -0.169 NA
ATOM      4  C   UNL     1       8.752  -6.723   0.279  0.00  0.00    +0.147 C 
ATOM      5  N   UNL     1       8.619  -5.803   1.325  0.00  0.00    -0.283 N 
ATOM      6  H   UNL     1       6.411  -8.159   1.848  0.00  0.00    +0.171 HD
ENDROOT
BRANCH   4   7
ATOM      7  C   UNL     1       9.680  -6.602  -0.767  0.00  0.00    +0.022 C 
ATOM      8  C   UNL     1       9.794  -7.420  -1.892  0.00  0.00    +0.006 A 
ATOM      9  C   UNL     1       9.073  -8.554  -2.324  0.00  0.00    +0.010 A 
ATOM     10  C   UNL     1       9.412  -9.164  -3.489  0.00  0.00    +0.001 A 
ATOM     11  C   UNL     1      10.463  -8.696  -4.280  0.00  0.00    +0.002 A 
ATOM     12  C   UNL     1      11.198  -7.613  -3.927  0.00  0.00    +0.026 A 
ATOM     13  C   UNL     1      10.903  -6.923  -2.723  0.00  0.00    +0.043 A 
ATOM     14  N   UNL     1      11.457  -5.863  -2.167  0.00  0.00    -0.380 N 
ATOM     15  C   UNL     1      10.760  -5.553  -0.915  0.00  0.00    +0.152 C 
ATOM     16  H   UNL     1      12.205  -5.364  -2.531  0.00  0.00    +0.160 HD
ENDBRANCH   4   7
BRANCH   1  17
ATOM     17  S   UNL     1       6.171  -5.123   2.259  0.00  0.00    -0.112 S 
BRANCH  17  18
ATOM     18  C   UNL     1       5.668  -4.934   0.526  0.00  0.00    +0.128 C 
BRANCH  18  22
ATOM     19  N   UNL     1       3.756  -0.446   0.041  0.00  0.00    -0.294 N 
ATOM     20  C   UNL     1       3.718  -1.822   0.205  0.00  0.00    +0.163 A 
ATOM     21  N   UNL     1       4.726  -2.665   0.280  0.00  0.00    -0.229 NA
ATOM     22  C   UNL     1       4.521  -3.961   0.440  0.00  0.00    +0.060 A 
ATOM     23  C   UNL     1       3.233  -4.375   0.521  0.00  0.00    +0.072 A 
ATOM     24  S   UNL     1       2.371  -2.820   0.364  0.00  0.00    -0.060 S 
ATOM     25  H   UNL     1       4.602   0.001  -0.117  0.00  0.00    +0.154 HD
BRANCH  19  29
ATOM     26  C   UNL     1       0.236   1.772   0.229  0.00  0.00    +0.000 A 
ATOM     27  C   UNL     1       0.386   0.647   1.019  0.00  0.00    +0.002 A 
ATOM     28  C   UNL     1       1.551  -0.090   0.959  0.00  0.00    +0.023 A 
ATOM     29  C   UNL     1       2.575   0.298   0.104  0.00  0.00    +0.033 A 
ATOM     30  C   UNL     1       2.421   1.429  -0.689  0.00  0.00    +0.023 A 
ATOM     31  C   UNL     1       1.253   2.162  -0.624  0.00  0.00    +0.002 A 
ENDBRANCH  19  29
ENDBRANCH  18  22
ENDBRANCH  17  18
ENDBRANCH   1  17
BRANCH   5  32
ATOM     32  C   UNL     1       9.396  -4.577   1.522  0.00  0.00    +0.140 C 
BRANCH  32  33
ATOM     33  C   UNL     1       8.780  -3.444   0.698  0.00  0.00    +0.136 C 
ATOM     34  C   UNL     1       9.675  -2.189   0.780  0.00  0.00    +0.035 C 
ATOM     35  C   UNL     1       8.631  -1.044   0.872  0.00  0.00    +0.031 C 
ATOM     36  C   UNL     1       7.509  -1.734   1.689  0.00  0.00    +0.160 C 
ATOM     37  O   UNL     1       7.497  -3.098   1.232  0.00  0.00    -0.375 OA
ENDBRANCH  32  33
ENDBRANCH   5  32
TORSDOF 7
