REMARK  Name = ZINC06148001
REMARK  10 active torsions:
REMARK  status: ('A' for Active; 'I' for Inactive)
REMARK    1  A    between atoms: C_1  and  C_2
REMARK    2  A    between atoms: C_2  and  O_3
REMARK    3  A    between atoms: O_3  and  C_4
REMARK    4  A    between atoms: C_4  and  C_6
REMARK    5  A    between atoms: C_8  and  C_20
REMARK    6  A    between atoms: C_14  and  C_15
REMARK    7  A    between atoms: C_14  and  O_19
REMARK    8  A    between atoms: C_23  and  O_26
REMARK    9  A    between atoms: O_26  and  C_27
REMARK   10  A    between atoms: C_27  and  C_28
REMARK                            x       y       z     vdW  Elec       q    Type
REMARK                         _______ _______ _______ _____ _____    ______ ____
ROOT
ATOM      1  C   UNL     1      -1.108   1.728  -3.720  0.00  0.00    +0.181 C 
ATOM      2  C   UNL     1      -0.073   1.278  -4.757  0.00  0.00    +0.121 C 
ATOM      3  N   UNL     1       1.193   1.969  -4.503  0.00  0.00    -0.319 N 
ATOM      4  C   UNL     1       1.223   3.186  -3.941  0.00  0.00    +0.133 C 
ATOM      5  S   UNL     1       2.740   3.938  -3.687  0.00  0.00    -0.019 S 
ATOM      6  N   UNL     1       0.111   3.838  -3.570  0.00  0.00    -0.291 N 
ATOM      7  C   UNL     1      -1.217   3.255  -3.770  0.00  0.00    +0.244 C 
ATOM      8  H   UNL     1       2.027   1.537  -4.745  0.00  0.00    +0.148 HD
ATOM      9  H   UNL     1       0.188   4.714  -3.160  0.00  0.00    +0.151 HD
ENDROOT
BRANCH   2  10
ATOM     10  C   UNL     1       0.135  -0.210  -4.648  0.00  0.00    -0.026 A 
ATOM     11  C   UNL     1       1.026  -0.717  -3.720  0.00  0.00    +0.009 A 
ATOM     12  C   UNL     1       1.214  -2.082  -3.615  0.00  0.00    +0.046 A 
ATOM     13  C   UNL     1       0.517  -2.943  -4.449  0.00  0.00    +0.121 A 
ATOM     14  C   UNL     1      -0.372  -2.432  -5.383  0.00  0.00    +0.046 A 
ATOM     15  C   UNL     1      -0.561  -1.067  -5.481  0.00  0.00    +0.009 A 
BRANCH  13  16
ATOM     16  O   UNL     1       0.704  -4.286  -4.351  0.00  0.00    -0.487 OA
BRANCH  16  17
ATOM     17  C   UNL     1       1.635  -4.741  -3.367  0.00  0.00    +0.264 C 
BRANCH  17  18
ATOM     18  C   UNL     1       1.710  -6.245  -3.404  0.00  0.00    -0.010 A 
ATOM     19  C   UNL     1       0.865  -7.000  -2.612  0.00  0.00    +0.007 A 
ATOM     20  C   UNL     1       0.931  -8.380  -2.649  0.00  0.00    +0.000 A 
ATOM     21  C   UNL     1       1.849  -9.006  -3.473  0.00  0.00    +0.000 A 
ATOM     22  C   UNL     1       2.697  -8.252  -4.262  0.00  0.00    +0.000 A 
ATOM     23  C   UNL     1       2.628  -6.871  -4.227  0.00  0.00    +0.007 A 
ENDBRANCH  17  18
ENDBRANCH  16  17
ENDBRANCH  13  16
ENDBRANCH   2  10
BRANCH   7  24
ATOM     24  C   UNL     1      -2.159   3.737  -2.666  0.00  0.00    +0.436 C 
ATOM     25  F   UNL     1      -1.597   3.453  -1.416  0.00  0.00    -0.166 F 
ATOM     26  F   UNL     1      -2.353   5.117  -2.787  0.00  0.00    -0.166 F 
ATOM     27  F   UNL     1      -3.389   3.082  -2.783  0.00  0.00    -0.166 F 
ENDBRANCH   7  24
BRANCH   1  28
ATOM     28  C   UNL     1      -0.667   1.297  -2.345  0.00  0.00    +0.317 C 
ATOM     29  O   UNL     1       0.380   1.696  -1.893  0.00  0.00    -0.250 OA
BRANCH  28  30
ATOM     30  O   UNL     1      -1.437   0.469  -1.622  0.00  0.00    -0.465 OA
BRANCH  30  32
ATOM     31  C   UNL     1      -1.954  -0.845   0.362  0.00  0.00    +0.048 C 
ATOM     32  C   UNL     1      -0.950   0.096  -0.306  0.00  0.00    +0.229 C 
ENDBRANCH  30  32
ENDBRANCH  28  30
ENDBRANCH   1  28
BRANCH   7  33
ATOM     33  O   UNL     1      -1.727   3.656  -5.043  0.00  0.00    -0.364 OA
ATOM     34  H   UNL     1      -1.822   4.613  -5.146  0.00  0.00    +0.212 HD
ENDBRANCH   7  33
TORSDOF 9
