REMARK  Name = ZINC40319383
REMARK  17 active torsions:
REMARK  status: ('A' for Active; 'I' for Inactive)
REMARK    1  A    between atoms: C_1  and  C_2
REMARK    2  A    between atoms: C_2  and  C_4
REMARK    3  A    between atoms: C_8  and  O_10
REMARK    4  A    between atoms: O_10  and  C_11
REMARK    5  A    between atoms: C_11  and  C_12
REMARK    6  A    between atoms: C_12  and  C_14
REMARK    7  A    between atoms: C_12  and  O_37
REMARK    8  A    between atoms: C_14  and  N_15
REMARK    9  A    between atoms: N_15  and  C_16
REMARK   10  A    between atoms: N_15  and  C_29
REMARK   11  A    between atoms: C_16  and  C_17
REMARK   12  A    between atoms: C_19  and  O_27
REMARK   13  A    between atoms: C_20  and  O_25
REMARK   14  A    between atoms: C_21  and  O_23
REMARK   15  A    between atoms: O_23  and  C_24
REMARK   16  A    between atoms: O_25  and  C_26
REMARK   17  A    between atoms: O_27  and  C_28
REMARK                            x       y       z     vdW  Elec       q    Type
REMARK                         _______ _______ _______ _____ _____    ______ ____
ROOT
ATOM      1  N   UNL     1      -5.362  -8.735   1.474  0.00  0.00    +0.387 N 
ATOM      2  H   UNL     1      -5.717  -9.586   1.884  0.00  0.00    -0.081 HD
ENDROOT
BRANCH   1   3
ATOM      3  C   UNL     1      -3.896  -8.724   1.560  0.00  0.00    -0.045 C 
ATOM      4  C   UNL     1      -3.354 -10.150   1.367  0.00  0.00    +0.009 C 
ATOM      5  C   UNL     1      -1.860 -10.206   1.770  0.00  0.00    +0.164 C 
ATOM      6  S   UNL     1      -1.732  -8.870   3.028  0.00  0.00    -0.033 S 
ATOM      7  O   UNL     1      -0.845  -7.868   2.550  0.00  0.00    -0.174 OA
ATOM      8  O   UNL     1      -1.503  -9.456   4.302  0.00  0.00    -0.174 OA
ATOM      9  C   UNL     1      -3.456  -8.225   2.965  0.00  0.00    +0.151 C 
ENDBRANCH   1   3
BRANCH   1  10
ATOM     10  C   UNL     1      -5.904  -7.579   2.200  0.00  0.00    -0.043 C 
BRANCH  10  11
ATOM     11  C   UNL     1      -7.093  -8.025   3.054  0.00  0.00    +0.135 C 
BRANCH  11  12
ATOM     12  O   UNL     1      -6.702  -9.126   3.877  0.00  0.00    -0.390 OA
ATOM     13  H   UNL     1      -6.034  -8.904   4.540  0.00  0.00    +0.210 HD
ENDBRANCH  11  12
BRANCH  11  14
ATOM     14  C   UNL     1      -7.548  -6.864   3.940  0.00  0.00    +0.258 C 
BRANCH  14  15
ATOM     15  O   UNL     1      -8.728  -7.242   4.652  0.00  0.00    -0.489 OA
BRANCH  15  20
ATOM     16  C   UNL     1     -10.960  -5.663   7.069  0.00  0.00    +0.021 A 
ATOM     17  C   UNL     1     -10.351  -4.410   7.195  0.00  0.00    +0.011 A 
ATOM     18  C   UNL     1      -9.212  -4.123   6.473  0.00  0.00    +0.004 A 
ATOM     19  C   UNL     1      -8.669  -5.070   5.622  0.00  0.00    +0.046 A 
ATOM     20  C   UNL     1      -9.267  -6.317   5.490  0.00  0.00    +0.121 A 
ATOM     21  C   UNL     1     -10.407  -6.620   6.213  0.00  0.00    +0.057 A 
BRANCH  16  23
ATOM     22  C   UNL     1     -12.770  -4.940   8.760  0.00  0.00    +0.091 C 
ATOM     23  C   UNL     1     -12.176  -5.974   7.838  0.00  0.00    +0.160 C 
ATOM     24  O   UNL     1     -12.699  -7.063   7.731  0.00  0.00    -0.292 OA
ENDBRANCH  16  23
ENDBRANCH  15  20
ENDBRANCH  14  15
ENDBRANCH  11  14
ENDBRANCH  10  11
ENDBRANCH   1  10
BRANCH   1  25
ATOM     25  C   UNL     1      -5.771  -8.663   0.064  0.00  0.00    -0.042 C 
BRANCH  25  26
ATOM     26  C   UNL     1      -5.469  -9.975  -0.614  0.00  0.00    -0.057 A 
ATOM     27  C   UNL     1      -5.186 -10.003  -1.966  0.00  0.00    +0.051 A 
ATOM     28  C   UNL     1      -4.908 -11.207  -2.594  0.00  0.00    +0.165 A 
ATOM     29  C   UNL     1      -4.914 -12.388  -1.861  0.00  0.00    +0.204 A 
ATOM     30  C   UNL     1      -5.199 -12.356  -0.501  0.00  0.00    +0.165 A 
ATOM     31  C   UNL     1      -5.471 -11.147   0.120  0.00  0.00    +0.051 A 
BRANCH  30  32
ATOM     32  O   UNL     1      -5.207 -13.509   0.220  0.00  0.00    -0.491 OA
ATOM     33  C   UNL     1      -5.508 -13.401   1.613  0.00  0.00    +0.277 C 
ENDBRANCH  30  32
BRANCH  29  34
ATOM     34  O   UNL     1      -4.643 -13.573  -2.473  0.00  0.00    -0.488 OA
ATOM     35  C   UNL     1      -3.275 -13.986  -2.510  0.00  0.00    +0.277 C 
ENDBRANCH  29  34
BRANCH  28  36
ATOM     36  O   UNL     1      -4.630 -11.234  -3.925  0.00  0.00    -0.491 OA
ATOM     37  C   UNL     1      -4.641  -9.982  -4.615  0.00  0.00    +0.277 C 
ENDBRANCH  28  36
ENDBRANCH  25  26
ENDBRANCH   1  25
TORSDOF 13
