REMARK  Name = ZINC07018858
REMARK  4 active torsions:
REMARK  status: ('A' for Active; 'I' for Inactive)
REMARK    1  A    between atoms: N_13  and  C_17
REMARK    2  A    between atoms: C_17  and  C_18
REMARK    3  A    between atoms: N_20  and  C_21
REMARK    4  A    between atoms: C_21  and  C_27
REMARK                            x       y       z     vdW  Elec       q    Type
REMARK                         _______ _______ _______ _____ _____    ______ ____
ROOT
ATOM      1  C   UNL     1      -0.017   1.375   0.010  0.00  0.00    +0.000 A 
ATOM      2  C   UNL     1       1.174   2.078   0.002  0.00  0.00    +0.000 A 
ATOM      3  C   UNL     1       2.373   1.395  -0.016  0.00  0.00    +0.006 A 
ATOM      4  C   UNL     1       2.394   0.006  -0.026  0.00  0.00    -0.012 A 
ATOM      5  C   UNL     1       1.207  -0.694  -0.013  0.00  0.00    -0.042 A 
ATOM      6  C   UNL     1       0.002  -0.004   0.002  0.00  0.00    +0.004 A 
ATOM      7  C   UNL     1       1.157  -2.199  -0.006  0.00  0.00    +0.035 C 
ATOM      8  C   UNL     1       2.490  -2.786  -0.467  0.00  0.00    +0.008 C 
ATOM      9  C   UNL     1       3.614  -2.143   0.354  0.00  0.00    +0.040 C 
ATOM     10  C   UNL     1       3.731  -0.680  -0.054  0.00  0.00    +0.138 C 
ATOM     11  C   UNL     1       4.347  -0.566  -1.430  0.00  0.00    +0.251 C 
ATOM     12  O   UNL     1       3.905  -1.003  -2.470  0.00  0.00    -0.272 OA
ATOM     13  N   UNL     1       5.493   0.123  -1.256  0.00  0.00    -0.215 N 
ATOM     14  C   UNL     1       5.679   0.456   0.027  0.00  0.00    +0.310 C 
ATOM     15  O   UNL     1       6.641   1.080   0.431  0.00  0.00    -0.252 OA
ATOM     16  N   UNL     1       4.682   0.021   0.820  0.00  0.00    -0.281 N 
ATOM     17  H   UNL     1       4.606   0.146   1.779  0.00  0.00    +0.152 HD
ENDROOT
BRANCH  13  18
ATOM     18  C   UNL     1       6.420   0.467  -2.338  0.00  0.00    +0.213 C 
BRANCH  18  19
ATOM     19  C   UNL     1       6.037   1.802  -2.922  0.00  0.00    +0.232 C 
ATOM     20  O   UNL     1       5.084   2.407  -2.479  0.00  0.00    -0.274 OA
ATOM     21  N   UNL     1       6.753   2.324  -3.938  0.00  0.00    -0.296 N 
ATOM     22  H   UNL     1       7.515   1.839  -4.293  0.00  0.00    +0.150 HD
BRANCH  21  23
ATOM     23  C   UNL     1       6.381   3.622  -4.506  0.00  0.00    +0.121 C 
ATOM     24  C   UNL     1       4.956   3.547  -5.059  0.00  0.00    +0.041 C 
ATOM     25  C   UNL     1       4.568   4.902  -5.652  0.00  0.00    +0.003 C 
ATOM     26  C   UNL     1       5.535   5.261  -6.782  0.00  0.00    +0.000 C 
ATOM     27  C   UNL     1       6.960   5.336  -6.229  0.00  0.00    +0.003 C 
ATOM     28  C   UNL     1       7.348   3.980  -5.636  0.00  0.00    +0.041 C 
BRANCH  23  29
ATOM     29  C   UNL     1       6.447   4.653  -3.458  0.00  0.00    +0.088 C 
ATOM     30  N   UNL     1       6.498   5.449  -2.649  0.00  0.00    -0.194 NA
ENDBRANCH  23  29
ENDBRANCH  21  23
ENDBRANCH  18  19
ENDBRANCH  13  18
TORSDOF 4
