REMARK  Name = ZINC39595198
REMARK  6 active torsions:
REMARK  status: ('A' for Active; 'I' for Inactive)
REMARK    1  A    between atoms: C_9  and  C_11
REMARK    2  A    between atoms: C_15  and  C_24
REMARK    3  A    between atoms: N_26  and  C_27
REMARK    4  A    between atoms: C_27  and  C_28
REMARK    5  A    between atoms: C_28  and  C_30
REMARK    6  A    between atoms: C_28  and  N_36
REMARK                            x       y       z     vdW  Elec       q    Type
REMARK                         _______ _______ _______ _____ _____    ______ ____
ROOT
ATOM      1  C   UNL     1       5.056  -2.594  -0.059  0.00  0.00    +0.265 C 
ATOM      2  O   UNL     1       5.150  -3.803   0.024  0.00  0.00    -0.268 OA
ATOM      3  N   UNL     1       6.165  -1.838  -0.176  0.00  0.00    -0.295 N 
ATOM      4  C   UNL     1       6.262  -0.359  -0.161  0.00  0.00    +0.121 C 
ATOM      5  C   UNL     1       7.545  -0.060   0.647  0.00  0.00    +0.100 C 
ATOM      6  C   UNL     1       8.395  -1.335   0.519  0.00  0.00    -0.004 C 
ATOM      7  C   UNL     1       7.565  -2.298  -0.342  0.00  0.00    +0.115 C 
ATOM      8  C   UNL     1       8.642  -1.946   1.895  0.00  0.00    -0.010 C 
ATOM      9  C   UNL     1       9.537  -3.180   1.748  0.00  0.00    -0.082 C 
ATOM     10  N   UNL     1      10.809  -2.792   1.128  0.00  0.00    +0.379 N 
ATOM     11  C   UNL     1      10.572  -2.291  -0.231  0.00  0.00    -0.082 C 
ATOM     12  C   UNL     1       9.721  -1.020  -0.168  0.00  0.00    -0.010 C 
ATOM     13  H   UNL     1      11.244  -2.068   1.680  0.00  0.00    -0.086 HD
ATOM     14  H   UNL     1      11.421  -3.594   1.087  0.00  0.00    -0.086 HD
ENDROOT
BRANCH   1  23
ATOM     15  C   UNL     1      -0.013   1.252   0.049  0.00  0.00    +0.001 A 
ATOM     16  C   UNL     1       1.164   1.999   0.028  0.00  0.00    +0.002 A 
ATOM     17  C   UNL     1       2.381   1.392   0.003  0.00  0.00    +0.028 A 
ATOM     18  C   UNL     1       2.460  -0.014  -0.002  0.00  0.00    +0.072 A 
ATOM     19  C   UNL     1       1.260  -0.772   0.020  0.00  0.00    +0.000 A 
ATOM     20  C   UNL     1       0.022  -0.109   0.045  0.00  0.00    +0.010 A 
ATOM     21  C   UNL     1       1.336  -2.177   0.015  0.00  0.00    +0.012 A 
ATOM     22  C   UNL     1       2.572  -2.756  -0.011  0.00  0.00    +0.033 A 
ATOM     23  C   UNL     1       3.720  -1.951  -0.032  0.00  0.00    +0.126 A 
ATOM     24  N   UNL     1       3.639  -0.634  -0.026  0.00  0.00    -0.242 NA
ENDBRANCH   1  23
BRANCH   5  25
ATOM     25  C   UNL     1       8.273   1.120   0.058  0.00  0.00    +0.218 C 
ATOM     26  O   UNL     1       8.126   1.401  -1.112  0.00  0.00    -0.275 OA
ATOM     27  N   UNL     1       9.088   1.864   0.833  0.00  0.00    -0.316 N 
ATOM     28  H   UNL     1       9.206   1.639   1.769  0.00  0.00    +0.149 HD
BRANCH  27  29
ATOM     29  C   UNL     1       9.796   3.012   0.260  0.00  0.00    +0.093 C 
BRANCH  29  30
ATOM     30  C   UNL     1      10.547   3.752   1.369  0.00  0.00    -0.019 C 
BRANCH  30  31
ATOM     31  C   UNL     1       9.563   4.258   2.392  0.00  0.00    -0.041 A 
ATOM     32  C   UNL     1       9.371   3.571   3.581  0.00  0.00    +0.005 A 
ATOM     33  C   UNL     1       8.455   4.074   4.492  0.00  0.00    +0.020 A 
ATOM     34  C   UNL     1       7.769   5.234   4.188  0.00  0.00    +0.111 A 
ATOM     35  N   UNL     1       7.976   5.860   3.046  0.00  0.00    -0.263 NA
ATOM     36  C   UNL     1       8.844   5.415   2.159  0.00  0.00    +0.112 A 
ENDBRANCH  30  31
BRANCH  30  37
ATOM     37  N   UNL     1      11.279   4.887   0.790  0.00  0.00    +0.385 N 
ATOM     38  C   UNL     1      12.169   5.496   1.812  0.00  0.00    -0.078 C 
ATOM     39  C   UNL     1      13.229   6.240   0.960  0.00  0.00    -0.020 C 
ATOM     40  C   UNL     1      13.443   5.284  -0.236  0.00  0.00    -0.020 C 
ATOM     41  C   UNL     1      12.170   4.420  -0.294  0.00  0.00    -0.078 C 
ATOM     42  H   UNL     1      10.632   5.575   0.437  0.00  0.00    -0.081 HD
ENDBRANCH  30  37
ENDBRANCH  29  30
ENDBRANCH  27  29
ENDBRANCH   5  25
TORSDOF 6
