REMARK  Name = ZINC19258537
REMARK  5 active torsions:
REMARK  status: ('A' for Active; 'I' for Inactive)
REMARK    1  A    between atoms: C_1  and  C_2
REMARK    2  A    between atoms: C_2  and  N_3
REMARK    3  A    between atoms: N_3  and  C_4
REMARK    4  A    between atoms: N_3  and  C_9
REMARK    5  A    between atoms: C_4  and  C_5
REMARK                            x       y       z     vdW  Elec       q    Type
REMARK                         _______ _______ _______ _____ _____    ______ ____
ROOT
ATOM      1  N   UNL     1       3.226  -1.121  -1.843  0.00  0.00    +0.383 N 
ATOM      2  H   UNL     1       3.396  -2.185  -1.622  0.00  0.00    -0.081 HD
ENDROOT
BRANCH   1   3
ATOM      3  C   UNL     1       3.272  -0.383  -0.573  0.00  0.00    -0.068 C 
ATOM      4  C   UNL     1       2.191  -0.920   0.368  0.00  0.00    -0.015 C 
ATOM      5  C   UNL     1       2.239  -0.152   1.690  0.00  0.00    -0.002 C 
ATOM      6  C   UNL     1       1.992   1.335   1.426  0.00  0.00    -0.000 C 
ATOM      7  C   UNL     1       3.073   1.871   0.485  0.00  0.00    -0.002 C 
ATOM      8  C   UNL     1       3.026   1.103  -0.837  0.00  0.00    -0.015 C 
ENDBRANCH   1   3
BRANCH   1  10
ATOM      9  C   UNL     1       1.017  -2.159  -2.034  0.00  0.00    -0.017 C 
ATOM     10  C   UNL     1       1.907  -0.996  -2.477  0.00  0.00    -0.082 C 
ENDBRANCH   1  10
BRANCH   1  11
ATOM     11  C   UNL     1       4.291  -0.672  -2.750  0.00  0.00    -0.044 C 
BRANCH  11  12
ATOM     12  C   UNL     1       4.471  -1.698  -3.871  0.00  0.00    +0.127 C 
ATOM     13  C   UNL     1       5.891  -2.177  -4.178  0.00  0.00    +0.189 C 
ATOM     14  O   UNL     1       4.932  -3.002  -3.513  0.00  0.00    -0.374 OA
ENDBRANCH  11  12
ENDBRANCH   1  11
TORSDOF 4
