REMARK  Name = ZINC65517904
REMARK  7 active torsions:
REMARK  status: ('A' for Active; 'I' for Inactive)
REMARK    1  A    between atoms: C_4  and  C_7
REMARK    2  A    between atoms: C_7  and  N_8
REMARK    3  A    between atoms: C_12  and  C_14
REMARK    4  A    between atoms: C_14  and  N_15
REMARK    5  A    between atoms: N_18  and  C_19
REMARK    6  A    between atoms: C_19  and  C_20
REMARK    7  A    between atoms: C_23  and  N_26
REMARK                            x       y       z     vdW  Elec       q    Type
REMARK                         _______ _______ _______ _____ _____    ______ ____
ROOT
ATOM      1  N   UNL     1       7.397  -3.360   4.106  0.00  0.00    -0.299 N 
ATOM      2  C   UNL     1       8.485  -4.122   4.333  0.00  0.00    +0.300 C 
ATOM      3  O   UNL     1       9.187  -4.471   3.404  0.00  0.00    -0.253 OA
ATOM      4  N   UNL     1       8.794  -4.497   5.590  0.00  0.00    -0.295 N 
ATOM      5  H   UNL     1       6.836  -3.081   4.847  0.00  0.00    +0.150 HD
ATOM      6  H   UNL     1       8.234  -4.219   6.331  0.00  0.00    +0.151 HD
ENDROOT
BRANCH   1   7
ATOM      7  C   UNL     1       7.060  -2.951   2.740  0.00  0.00    +0.107 C 
BRANCH   7  12
ATOM      8  N   UNL     1       4.153  -0.953   1.342  0.00  0.00    +0.383 N 
ATOM      9  C   UNL     1       4.424   0.329   2.003  0.00  0.00    -0.078 C 
ATOM     10  C   UNL     1       4.807   0.083   3.464  0.00  0.00    -0.018 C 
ATOM     11  C   UNL     1       6.060  -0.796   3.517  0.00  0.00    +0.001 C 
ATOM     12  C   UNL     1       5.790  -2.099   2.760  0.00  0.00    -0.011 C 
ATOM     13  C   UNL     1       5.371  -1.772   1.325  0.00  0.00    -0.073 C 
ATOM     14  H   UNL     1       3.427  -1.441   1.844  0.00  0.00    -0.081 HD
BRANCH   8  15
ATOM     15  C   UNL     1       3.711  -0.707  -0.038  0.00  0.00    -0.043 C 
BRANCH  15  19
ATOM     16  C   UNL     1      -0.017   1.378   0.010  0.00  0.00    +0.000 A 
ATOM     17  C   UNL     1       1.171   2.086   0.002  0.00  0.00    +0.000 A 
ATOM     18  C   UNL     1       2.377   1.411  -0.013  0.00  0.00    +0.002 A 
ATOM     19  C   UNL     1       2.396   0.029  -0.020  0.00  0.00    -0.064 A 
ATOM     20  C   UNL     1       1.208  -0.679  -0.012  0.00  0.00    +0.002 A 
ATOM     21  C   UNL     1       0.002  -0.004   0.002  0.00  0.00    +0.000 A 
ENDBRANCH  15  19
ENDBRANCH   8  15
ENDBRANCH   7  12
ENDBRANCH   1   7
BRANCH   4  22
ATOM     22  C   UNL     1       9.977  -5.325   5.837  0.00  0.00    +0.141 C 
BRANCH  22  23
ATOM     23  C   UNL     1      10.097  -5.603   7.313  0.00  0.00    -0.030 A 
ATOM     24  C   UNL     1      10.811  -4.739   8.123  0.00  0.00    +0.007 A 
ATOM     25  C   UNL     1      10.921  -4.994   9.477  0.00  0.00    +0.033 A 
ATOM     26  C   UNL     1      10.316  -6.111  10.022  0.00  0.00    +0.126 A 
ATOM     27  C   UNL     1       9.601  -6.974   9.213  0.00  0.00    +0.033 A 
ATOM     28  C   UNL     1       9.488  -6.717   7.859  0.00  0.00    +0.007 A 
BRANCH  26  29
ATOM     29  N   UNL     1      10.435  -6.384  11.472  0.00  0.00    +0.056 N 
ATOM     30  O   UNL     1      11.061  -5.629  12.180  0.00  0.00    -0.126 OA
ATOM     31  O   UNL     1       9.906  -7.361  11.948  0.00  0.00    -0.126 OA
ENDBRANCH  26  29
ENDBRANCH  22  23
ENDBRANCH   4  22
TORSDOF 7
