REMARK  Name = ZINC24773317
REMARK  5 active torsions:
REMARK  status: ('A' for Active; 'I' for Inactive)
REMARK    1  A    between atoms: C_6  and  S_7
REMARK    2  A    between atoms: S_7  and  C_8
REMARK    3  A    between atoms: C_8  and  C_9
REMARK    4  A    between atoms: C_24  and  O_32
REMARK    5  A    between atoms: C_27  and  C_29
REMARK                            x       y       z     vdW  Elec       q    Type
REMARK                         _______ _______ _______ _____ _____    ______ ____
ROOT
ATOM      1  C   UNL     1      -3.867   1.748  -3.528  0.00  0.00    +0.142 A 
ATOM      2  N   UNL     1      -3.455   1.536  -2.291  0.00  0.00    -0.216 NA
ATOM      3  C   UNL     1      -4.089   2.034  -1.242  0.00  0.00    +0.134 A 
ATOM      4  C   UNL     1      -5.257   2.821  -1.448  0.00  0.00    +0.051 A 
ATOM      5  C   UNL     1      -6.117   3.463  -0.453  0.00  0.00    -0.025 A 
ATOM      6  C   UNL     1      -7.174   4.160  -0.916  0.00  0.00    -0.004 A 
ATOM      7  S   UNL     1      -7.085   4.017  -2.681  0.00  0.00    -0.073 S 
ATOM      8  C   UNL     1      -5.630   3.007  -2.794  0.00  0.00    +0.114 A 
ATOM      9  N   UNL     1      -4.939   2.473  -3.782  0.00  0.00    -0.224 NA
ATOM     10  C   UNL     1      -8.196   4.902  -0.110  0.00  0.00    +0.043 C 
ATOM     11  C   UNL     1      -8.081   4.449   1.353  0.00  0.00    +0.005 C 
ATOM     12  C   UNL     1      -6.606   4.479   1.762  0.00  0.00    +0.005 C 
ATOM     13  C   UNL     1      -5.847   3.361   1.046  0.00  0.00    +0.037 C 
ATOM     14  N   UNL     1      -3.626   1.789   0.039  0.00  0.00    -0.300 N 
ATOM     15  C   UNL     1      -4.056   0.448   0.518  0.00  0.00    +0.138 C 
ATOM     16  C   UNL     1      -3.055   0.138   1.659  0.00  0.00    +0.134 C 
ATOM     17  C   UNL     1      -1.729   0.728   1.125  0.00  0.00    +0.064 C 
ATOM     18  C   UNL     1      -2.148   1.772   0.074  0.00  0.00    +0.163 C 
ENDROOT
BRANCH  18  19
ATOM     19  C   UNL     1      -1.627   3.131   0.464  0.00  0.00    +0.231 C 
ATOM     20  O   UNL     1      -2.403   4.037   0.686  0.00  0.00    -0.274 OA
ATOM     21  N   UNL     1      -0.300   3.340   0.566  0.00  0.00    -0.328 N 
ATOM     22  H   UNL     1       0.080   4.333   0.851  0.00  0.00    +0.145 HD
ATOM     23  H   UNL     1       0.404   2.519   0.365  0.00  0.00    +0.145 HD
ENDBRANCH  18  19
BRANCH  16  24
ATOM     24  O   UNL     1      -2.937  -1.272   1.860  0.00  0.00    -0.390 OA
ATOM     25  H   UNL     1      -2.263  -1.662   2.636  0.00  0.00    +0.210 HD
ENDBRANCH  16  24
BRANCH   1  26
ATOM     26  C   UNL     1      -3.094   1.149  -4.675  0.00  0.00    +0.150 C 
BRANCH  26  27
ATOM     27  S   UNL     1      -3.755  -0.498  -5.053  0.00  0.00    -0.117 S 
BRANCH  27  33
ATOM     28  C   UNL     1      -1.751  -0.247  -6.899  0.00  0.00    +0.016 A 
ATOM     29  C   UNL     1      -0.970  -0.691  -7.948  0.00  0.00    +0.021 A 
ATOM     30  C   UNL     1      -1.200  -1.938  -8.505  0.00  0.00    +0.041 A 
ATOM     31  C   UNL     1      -2.208  -2.745  -8.008  0.00  0.00    +0.021 A 
ATOM     32  C   UNL     1      -2.988  -2.309  -6.955  0.00  0.00    +0.016 A 
ATOM     33  C   UNL     1      -2.761  -1.058  -6.395  0.00  0.00    +0.008 A 
ATOM     34 CL   UNL     1      -0.221  -2.489  -9.828  0.00  0.00    -0.084 Cl
ENDBRANCH  27  33
ENDBRANCH  26  27
ENDBRANCH   1  26
TORSDOF 5
