REMARK  Name = ZINC39597926
REMARK  8 active torsions:
REMARK  status: ('A' for Active; 'I' for Inactive)
REMARK    1  A    between atoms: C_1  and  C_2
REMARK    2  A    between atoms: C_2  and  O_3
REMARK    3  A    between atoms: O_3  and  C_4
REMARK    4  A    between atoms: C_8  and  C_10
REMARK    5  A    between atoms: C_14  and  C_23
REMARK    6  A    between atoms: N_25  and  C_26
REMARK    7  A    between atoms: C_26  and  C_27
REMARK    8  A    between atoms: C_27  and  C_28
REMARK                            x       y       z     vdW  Elec       q    Type
REMARK                         _______ _______ _______ _____ _____    ______ ____
ROOT
ATOM      1  C   UNL     1      -4.293  -4.372   0.009  0.00  0.00    +0.247 C 
ATOM      2  O   UNL     1      -5.269  -3.658   0.127  0.00  0.00    -0.270 OA
ATOM      3  N   UNL     1      -4.444  -5.707  -0.101  0.00  0.00    -0.296 N 
ATOM      4  C   UNL     1      -3.383  -6.742  -0.123  0.00  0.00    +0.121 C 
ATOM      5  C   UNL     1      -3.959  -7.909   0.710  0.00  0.00    +0.100 C 
ATOM      6  C   UNL     1      -5.485  -7.727   0.637  0.00  0.00    -0.004 C 
ATOM      7  C   UNL     1      -5.708  -6.472  -0.219  0.00  0.00    +0.115 C 
ATOM      8  C   UNL     1      -6.130  -8.941  -0.025  0.00  0.00    -0.010 C 
ATOM      9  C   UNL     1      -7.651  -8.763  -0.033  0.00  0.00    -0.082 C 
ATOM     10  N   UNL     1      -8.136  -8.616   1.345  0.00  0.00    +0.379 N 
ATOM     11  C   UNL     1      -7.582  -7.395   1.943  0.00  0.00    -0.082 C 
ATOM     12  C   UNL     1      -6.059  -7.515   2.034  0.00  0.00    -0.010 C 
ATOM     13  H   UNL     1      -9.144  -8.560   1.341  0.00  0.00    -0.086 HD
ATOM     14  H   UNL     1      -7.849  -9.415   1.888  0.00  0.00    -0.086 HD
ENDROOT
BRANCH   1  19
ATOM     15  C   UNL     1      -0.624  -3.887  -0.654  0.00  0.00    +0.121 A 
ATOM     16  C   UNL     1      -0.405  -2.654  -0.055  0.00  0.00    +0.046 A 
ATOM     17  C   UNL     1      -1.445  -1.984   0.561  0.00  0.00    +0.004 A 
ATOM     18  C   UNL     1      -2.709  -2.537   0.585  0.00  0.00    +0.013 A 
ATOM     19  C   UNL     1      -2.940  -3.776  -0.015  0.00  0.00    +0.040 A 
ATOM     20  C   UNL     1      -1.890  -4.448  -0.642  0.00  0.00    +0.058 A 
BRANCH  15  21
ATOM     21  O   UNL     1       0.403  -4.541  -1.258  0.00  0.00    -0.492 OA
BRANCH  21  23
ATOM     22  C   UNL     1       2.703  -4.784  -1.957  0.00  0.00    +0.048 C 
ATOM     23  C   UNL     1       1.682  -3.904  -1.234  0.00  0.00    +0.225 C 
ENDBRANCH  21  23
ENDBRANCH  15  21
ENDBRANCH   1  19
BRANCH   5  24
ATOM     24  C   UNL     1      -3.485  -7.819   2.137  0.00  0.00    +0.218 C 
ATOM     25  O   UNL     1      -3.330  -6.735   2.658  0.00  0.00    -0.275 OA
ATOM     26  N   UNL     1      -3.234  -8.944   2.836  0.00  0.00    -0.315 N 
ATOM     27  H   UNL     1      -3.358  -9.812   2.419  0.00  0.00    +0.149 HD
BRANCH  26  28
ATOM     28  C   UNL     1      -2.773  -8.857   4.223  0.00  0.00    +0.109 C 
BRANCH  28  29
ATOM     29  C   UNL     1      -2.564 -10.267   4.781  0.00  0.00    +0.056 C 
BRANCH  29  30
ATOM     30  C   UNL     1      -2.090 -10.177   6.208  0.00  0.00    -0.021 A 
ATOM     31  C   UNL     1      -2.932 -10.042   7.399  0.00  0.00    +0.003 A 
ATOM     32  C   UNL     1      -4.309  -9.958   7.609  0.00  0.00    +0.010 A 
ATOM     33  C   UNL     1      -4.796  -9.834   8.880  0.00  0.00    +0.001 A 
ATOM     34  C   UNL     1      -3.931  -9.790   9.965  0.00  0.00    +0.002 A 
ATOM     35  C   UNL     1      -2.568  -9.871   9.780  0.00  0.00    +0.026 A 
ATOM     36  C   UNL     1      -2.051  -9.998   8.496  0.00  0.00    +0.047 A 
ATOM     37  N   UNL     1      -0.773 -10.101   7.994  0.00  0.00    -0.360 N 
ATOM     38  C   UNL     1      -0.816 -10.212   6.631  0.00  0.00    +0.087 A 
ATOM     39  H   UNL     1       0.037 -10.098   8.527  0.00  0.00    +0.165 HD
ENDBRANCH  29  30
ENDBRANCH  28  29
ENDBRANCH  26  28
ENDBRANCH   5  24
TORSDOF 7
