REMARK  Name = ZINC20833714
REMARK  10 active torsions:
REMARK  status: ('A' for Active; 'I' for Inactive)
REMARK    1  A    between atoms: C_1  and  C_2
REMARK    2  A    between atoms: C_2  and  C_30
REMARK    3  A    between atoms: C_4  and  N_10
REMARK    4  A    between atoms: C_6  and  C_8
REMARK    5  A    between atoms: C_6  and  C_9
REMARK    6  A    between atoms: C_11  and  C_13
REMARK    7  A    between atoms: C_13  and  S_14
REMARK    8  A    between atoms: S_14  and  C_15
REMARK    9  A    between atoms: N_20  and  N_21
REMARK   10  A    between atoms: C_22  and  C_23
REMARK                            x       y       z     vdW  Elec       q    Type
REMARK                         _______ _______ _______ _____ _____    ______ ____
ROOT
ATOM      1  S   UNL     1      -0.297   7.784  -4.052  0.00  0.00    -0.075 S 
ENDROOT
BRANCH   1   2
ATOM      2  C   UNL     1      -0.267   9.541  -3.919  0.00  0.00    +0.211 A 
ATOM      3  N   UNL     1      -0.510  10.427  -4.930  0.00  0.00    -0.186 NA
ATOM      4  C   UNL     1      -0.390  11.691  -4.422  0.00  0.00    +0.232 A 
ATOM      5  N   UNL     1      -0.085  11.589  -3.151  0.00  0.00    -0.245 N 
ATOM      6  N   UNL     1      -0.012  10.227  -2.831  0.00  0.00    -0.144 NA
ATOM      7  N   UNL     1      -0.561  12.873  -5.128  0.00  0.00    -0.205 N 
ATOM      8  H   UNL     1      -0.818  12.843  -6.197  0.00  0.00    +0.177 HD
ATOM      9  H   UNL     1       0.063  12.496  -2.547  0.00  0.00    +0.192 HD
BRANCH   7  10
ATOM     10  N   UNL     1      -0.407  14.105  -4.479  0.00  0.00    -0.188 NA
ATOM     11  C   UNL     1      -0.567  15.211  -5.139  0.00  0.00    +0.138 C 
BRANCH  11  12
ATOM     12  C   UNL     1      -0.405  16.508  -4.456  0.00  0.00    -0.005 A 
ATOM     13  C   UNL     1      -0.085  16.549  -3.097  0.00  0.00    +0.010 A 
ATOM     14  C   UNL     1       0.071  17.765  -2.465  0.00  0.00    +0.016 A 
ATOM     15  C   UNL     1      -0.101  18.943  -3.173  0.00  0.00    +0.018 A 
ATOM     16  C   UNL     1      -0.423  18.909  -4.519  0.00  0.00    +0.016 A 
ATOM     17  C   UNL     1      -0.577  17.700  -5.164  0.00  0.00    +0.010 A 
ATOM     18 BR   UNL     1       0.107  20.606  -2.296  0.00  0.00    -0.050 Br
ENDBRANCH  11  12
ENDBRANCH   7  10
ENDBRANCH   1   2
BRANCH   1  19
ATOM     19  C   UNL     1       0.105   7.210  -2.379  0.00  0.00    +0.173 C 
BRANCH  19  21
ATOM     20  N   UNL     1       0.389   5.051  -1.207  0.00  0.00    -0.312 N 
ATOM     21  C   UNL     1       0.113   5.703  -2.353  0.00  0.00    +0.224 C 
ATOM     22  O   UNL     1      -0.129   5.078  -3.364  0.00  0.00    -0.275 OA
ATOM     23  H   UNL     1       0.608   5.617  -0.290  0.00  0.00    +0.149 HD
BRANCH  20  27
ATOM     24  C   UNL     1      -0.944   0.975  -2.269  0.00  0.00    -0.010 C 
ATOM     25  C   UNL     1      -1.042   1.551  -0.852  0.00  0.00    -0.072 C 
ATOM     26  C   UNL     1      -1.022   3.076  -0.918  0.00  0.00    +0.009 C 
ATOM     27  C   UNL     1       0.396   3.583  -1.181  0.00  0.00    +0.070 C 
ATOM     28  C   UNL     1       1.298   3.104  -0.042  0.00  0.00    +0.009 C 
ATOM     29  C   UNL     1       1.320   1.577  -0.002  0.00  0.00    -0.072 C 
ATOM     30  N   UNL     1      -0.012   1.005   0.008  0.00  0.00    +0.386 N 
ATOM     31  C   UNL     1       2.035   1.156   1.301  0.00  0.00    -0.010 C 
ATOM     32  C   UNL     1       2.151   1.041  -1.172  0.00  0.00    -0.010 C 
ATOM     33  C   UNL     1      -2.415   1.129  -0.282  0.00  0.00    -0.010 C 
ATOM     34  H   UNL     1      -0.328   1.088   1.058  0.00  0.00    -0.084 HD
ATOM     35  H   UNL     1       0.152  -0.053  -0.244  0.00  0.00    -0.084 HD
ENDBRANCH  20  27
ENDBRANCH  19  21
ENDBRANCH   1  19
TORSDOF 6
