REMARK  Name = ZINC02440754
REMARK  12 active torsions:
REMARK  status: ('A' for Active; 'I' for Inactive)
REMARK    1  A    between atoms: C_1  and  C_2
REMARK    2  A    between atoms: C_2  and  C_3
REMARK    3  A    between atoms: C_3  and  O_4
REMARK    4  A    between atoms: O_4  and  C_5
REMARK    5  A    between atoms: C_5  and  C_7
REMARK    6  A    between atoms: C_10  and  O_13
REMARK    7  A    between atoms: O_13  and  C_14
REMARK    8  A    between atoms: C_15  and  C_35
REMARK    9  A    between atoms: C_23  and  O_34
REMARK   10  A    between atoms: C_24  and  C_25
REMARK   11  A    between atoms: C_25  and  N_26
REMARK   12  A    between atoms: C_31  and  C_33
REMARK                            x       y       z     vdW  Elec       q    Type
REMARK                         _______ _______ _______ _____ _____    ______ ____
ROOT
ATOM      1  C   UNL     1       6.665  -3.050   0.087  0.00  0.00    +0.213 A 
ATOM      2  C   UNL     1       5.366  -3.204  -0.239  0.00  0.00    +0.148 A 
ATOM      3  O   UNL     1       4.667  -2.267  -0.892  0.00  0.00    -0.456 OA
ATOM      4  C   UNL     1       5.212  -1.095  -1.276  0.00  0.00    +0.144 A 
ATOM      5  C   UNL     1       6.562  -0.825  -0.989  0.00  0.00    +0.068 A 
ATOM      6  C   UNL     1       7.341  -1.848  -0.270  0.00  0.00    +0.235 A 
ATOM      7  O   UNL     1       8.515  -1.673   0.008  0.00  0.00    -0.283 OA
ATOM      8  C   UNL     1       7.136   0.385  -1.380  0.00  0.00    +0.019 A 
ATOM      9  C   UNL     1       6.382   1.310  -2.044  0.00  0.00    +0.046 A 
ATOM     10  C   UNL     1       5.045   1.049  -2.338  0.00  0.00    +0.122 A 
ATOM     11  C   UNL     1       4.459  -0.145  -1.951  0.00  0.00    +0.020 A 
ATOM     12  C   UNL     1       4.672  -4.484   0.150  0.00  0.00    +0.090 C 
ENDROOT
BRANCH  10  13
ATOM     13  O   UNL     1       4.309   1.975  -3.003  0.00  0.00    -0.506 OA
ATOM     14  H   UNL     1       3.254   1.774  -3.238  0.00  0.00    +0.292 HD
ENDBRANCH  10  13
BRANCH   1  15
ATOM     15  O   UNL     1       7.327  -4.036   0.752  0.00  0.00    -0.449 OA
BRANCH  15  19
ATOM     16  C   UNL     1       9.242  -6.930  -1.482  0.00  0.00    +0.059 A 
ATOM     17  C   UNL     1       9.285  -6.981  -0.085  0.00  0.00    +0.018 A 
ATOM     18  C   UNL     1       8.644  -6.013   0.656  0.00  0.00    +0.047 A 
ATOM     19  C   UNL     1       7.957  -4.987   0.018  0.00  0.00    +0.129 A 
ATOM     20  C   UNL     1       7.907  -4.937  -1.371  0.00  0.00    +0.047 A 
ATOM     21  C   UNL     1       8.550  -5.897  -2.120  0.00  0.00    +0.018 A 
BRANCH  16  22
ATOM     22  C   UNL     1       9.927  -7.964  -2.280  0.00  0.00    +0.339 C 
ATOM     23  O   UNL     1      10.529  -8.861  -1.724  0.00  0.00    -0.245 OA
BRANCH  22  24
ATOM     24  O   UNL     1       9.886  -7.914  -3.626  0.00  0.00    -0.461 OA
BRANCH  24  25
ATOM     25  C   UNL     1      10.582  -8.965  -4.346  0.00  0.00    +0.232 C 
BRANCH  25  27
ATOM     26  C   UNL     1      11.158  -9.849  -6.611  0.00  0.00    +0.007 C 
ATOM     27  C   UNL     1      10.424  -8.742  -5.852  0.00  0.00    +0.038 C 
ENDBRANCH  25  27
ENDBRANCH  24  25
ENDBRANCH  22  24
ENDBRANCH  16  22
ENDBRANCH  15  19
ENDBRANCH   1  15
BRANCH  11  28
ATOM     28  C   UNL     1       3.010  -0.413  -2.269  0.00  0.00    -0.035 C 
BRANCH  28  29
ATOM     29  N   UNL     1       2.170   0.066  -1.163  0.00  0.00    +0.384 N 
ATOM     30  C   UNL     1       2.308   1.517  -0.987  0.00  0.00    -0.078 C 
ATOM     31  C   UNL     1       1.536   1.957   0.258  0.00  0.00    -0.019 C 
ATOM     32  C   UNL     1       0.060   1.583   0.097  0.00  0.00    -0.003 C 
ATOM     33  C   UNL     1      -0.053   0.073  -0.133  0.00  0.00    -0.016 C 
ATOM     34  C   UNL     1       0.765  -0.313  -1.368  0.00  0.00    -0.071 C 
ATOM     35  C   UNL     1       0.672  -1.824  -1.589  0.00  0.00    -0.013 C 
ATOM     36  H   UNL     1       2.516  -0.419  -0.238  0.00  0.00    -0.081 HD
ENDBRANCH  28  29
ENDBRANCH  11  28
TORSDOF 9
