REMARK  Name = ZINC10047940
REMARK  9 active torsions:
REMARK  status: ('A' for Active; 'I' for Inactive)
REMARK    1  A    between atoms: C_1  and  C_2
REMARK    2  A    between atoms: C_3  and  C_4
REMARK    3  A    between atoms: C_4  and  N_5
REMARK    4  A    between atoms: C_11  and  C_16
REMARK    5  A    between atoms: C_13  and  C_15
REMARK    6  A    between atoms: N_19  and  C_24
REMARK    7  A    between atoms: N_22  and  C_23
REMARK    8  A    between atoms: C_24  and  C_25
REMARK    9  A    between atoms: C_25  and  N_61
REMARK                            x       y       z     vdW  Elec       q    Type
REMARK                         _______ _______ _______ _____ _____    ______ ____
ROOT
ATOM      1  N   UNL     1       1.165  -2.576  -6.974  0.00  0.00    -0.189 N 
ATOM      2  C   UNL     1       1.031  -1.550  -6.058  0.00  0.00    +0.222 A 
ATOM      3  N   UNL     1       1.663  -0.407  -5.986  0.00  0.00    -0.195 NA
ATOM      4  C   UNL     1       1.213   0.294  -4.941  0.00  0.00    +0.170 A 
ATOM      5  C   UNL     1       0.228  -0.465  -4.312  0.00  0.00    +0.153 A 
ATOM      6  N   UNL     1       0.127  -1.635  -5.035  0.00  0.00    -0.296 N 
ATOM      7  C   UNL     1      -0.737  -2.795  -4.828  0.00  0.00    +0.133 C 
ATOM      8  C   UNL     1      -0.680  -3.688  -6.037  0.00  0.00    +0.057 C 
ATOM      9  N   UNL     1       0.174  -3.571  -6.969  0.00  0.00    -0.184 NA
ATOM     10  C   UNL     1      -1.702  -4.790  -6.150  0.00  0.00    +0.064 C 
ATOM     11  C   UNL     1      -2.177  -2.326  -4.609  0.00  0.00    +0.037 C 
ATOM     12  C   UNL     1      -0.411   0.057  -3.172  0.00  0.00    +0.282 A 
ATOM     13  O   UNL     1      -1.277  -0.587  -2.604  0.00  0.00    -0.265 OA
ATOM     14  N   UNL     1      -0.059   1.275  -2.714  0.00  0.00    -0.261 N 
ATOM     15  C   UNL     1       0.890   2.000  -3.331  0.00  0.00    +0.333 A 
ATOM     16  O   UNL     1       1.179   3.097  -2.892  0.00  0.00    -0.246 OA
ATOM     17  N   UNL     1       1.531   1.538  -4.421  0.00  0.00    -0.280 N 
ATOM     18  C   UNL     1       2.563   2.356  -5.063  0.00  0.00    +0.155 C 
ENDROOT
BRANCH   1  19
ATOM     19  C   UNL     1       2.293  -2.625  -7.908  0.00  0.00    +0.162 C 
BRANCH  19  22
ATOM     20  C   UNL     1       5.091  -5.178  -7.276  0.00  0.00    +0.035 C 
ATOM     21  C   UNL     1       3.953  -4.416  -7.903  0.00  0.00    -0.033 C 
ATOM     22  C   UNL     1       3.432  -3.388  -7.281  0.00  0.00    -0.011 C 
ENDBRANCH  19  22
ENDBRANCH   1  19
BRANCH  14  23
ATOM     23  C   UNL     1      -0.724   1.819  -1.527  0.00  0.00    +0.111 C 
BRANCH  23  24
ATOM     24  C   UNL     1       0.047   1.402  -0.274  0.00  0.00    -0.057 C 
BRANCH  24  30
ATOM     25  C   UNL     1      -0.553   3.415   0.930  0.00  0.00    -0.079 C 
ATOM     26  C   UNL     1      -1.379   3.953   2.101  0.00  0.00    -0.019 C 
ATOM     27  C   UNL     1      -0.828   3.385   3.412  0.00  0.00    -0.004 C 
ATOM     28  C   UNL     1      -0.864   1.856   3.352  0.00  0.00    -0.019 C 
ATOM     29  C   UNL     1      -0.052   1.378   2.145  0.00  0.00    -0.079 C 
ATOM     30  N   UNL     1      -0.648   1.939   0.914  0.00  0.00    +0.381 N 
ATOM     31  H   UNL     1      -1.638   1.670   0.871  0.00  0.00    -0.082 HD
ENDBRANCH  24  30
ENDBRANCH  23  24
ENDBRANCH  14  23
TORSDOF 5
