REMARK  Name = ZINC09963330
REMARK  16 active torsions:
REMARK  status: ('A' for Active; 'I' for Inactive)
REMARK    1  A    between atoms: C_1  and  C_2
REMARK    2  A    between atoms: C_2  and  C_3
REMARK    3  A    between atoms: C_2  and  C_4
REMARK    4  A    between atoms: C_4  and  N_5
REMARK    5  A    between atoms: N_5  and  C_6
REMARK    6  A    between atoms: N_5  and  C_32
REMARK    7  A    between atoms: C_6  and  C_7
REMARK    8  A    between atoms: C_7  and  C_8
REMARK    9  A    between atoms: C_8  and  N_9
REMARK   10  A    between atoms: C_10  and  C_12
REMARK   11  A    between atoms: C_12  and  N_13
REMARK   12  A    between atoms: C_16  and  S_24
REMARK   13  A    between atoms: S_24  and  N_27
REMARK   14  A    between atoms: C_32  and  C_33
REMARK   15  A    between atoms: C_33  and  C_34
REMARK   16  A    between atoms: C_33  and  C_35
REMARK                            x       y       z     vdW  Elec       q    Type
REMARK                         _______ _______ _______ _____ _____    ______ ____
ROOT
ATOM      1  N   UNL     1     -10.509  -4.129  -1.828  0.00  0.00    -0.256 N 
ATOM      2  C   UNL     1     -11.205  -4.508  -0.670  0.00  0.00    +0.081 A 
ATOM      3  C   UNL     1     -10.525  -4.802   0.500  0.00  0.00    +0.055 A 
ATOM      4  C   UNL     1     -11.229  -5.175   1.630  0.00  0.00    +0.107 A 
ATOM      5  C   UNL     1     -12.610  -5.253   1.594  0.00  0.00    +0.032 A 
ATOM      6  C   UNL     1     -13.295  -4.959   0.429  0.00  0.00    +0.049 A 
ATOM      7  C   UNL     1     -12.596  -4.585  -0.706  0.00  0.00    +0.143 A 
ATOM      8  O   UNL     1     -13.253  -4.290  -1.859  0.00  0.00    -0.481 OA
ATOM      9  C   UNL     1     -12.668  -3.288  -2.695  0.00  0.00    +0.325 C 
ATOM     10  C   UNL     1     -11.189  -3.546  -2.838  0.00  0.00    +0.258 C 
ATOM     11  O   UNL     1     -10.613  -3.234  -3.859  0.00  0.00    -0.271 OA
ENDROOT
BRANCH   4  12
ATOM     12  S   UNL     1     -10.367  -5.550   3.119  0.00  0.00    +0.061 S 
ATOM     13  O   UNL     1     -11.217  -6.399   3.878  0.00  0.00    -0.153 OA
ATOM     14  O   UNL     1      -9.051  -5.931   2.741  0.00  0.00    -0.153 OA
BRANCH  12  15
ATOM     15  N   UNL     1     -10.224  -4.138   3.972  0.00  0.00    -0.177 NA
ATOM     16  C   UNL     1      -9.114  -3.180   3.863  0.00  0.00    +0.109 C 
ATOM     17  C   UNL     1      -9.396  -2.036   4.860  0.00  0.00    +0.018 C 
ATOM     18  C   UNL     1     -10.362  -2.696   5.880  0.00  0.00    +0.018 C 
ATOM     19  C   UNL     1     -11.191  -3.630   4.961  0.00  0.00    +0.109 C 
ENDBRANCH  12  15
ENDBRANCH   4  12
BRANCH   1  20
ATOM     20  C   UNL     1      -9.066  -4.358  -1.936  0.00  0.00    +0.209 C 
BRANCH  20  22
ATOM     21  N   UNL     1      -6.979  -3.144  -1.400  0.00  0.00    -0.314 N 
ATOM     22  C   UNL     1      -8.326  -3.159  -1.401  0.00  0.00    +0.231 C 
ATOM     23  O   UNL     1      -8.943  -2.208  -0.972  0.00  0.00    -0.274 OA
ATOM     24  H   UNL     1      -6.485  -3.905  -1.744  0.00  0.00    +0.149 HD
BRANCH  21  25
ATOM     25  C   UNL     1      -6.259  -1.979  -0.880  0.00  0.00    +0.102 C 
BRANCH  25  26
ATOM     26  C   UNL     1      -4.752  -2.217  -0.994  0.00  0.00    +0.000 C 
BRANCH  26  27
ATOM     27  C   UNL     1      -4.001  -1.000  -0.451  0.00  0.00    -0.077 C 
BRANCH  27  28
ATOM     28  N   UNL     1      -2.554  -1.230  -0.559  0.00  0.00    +0.380 N 
ATOM     29  H   UNL     1      -2.316  -2.101  -0.109  0.00  0.00    -0.082 HD
BRANCH  28  30
ATOM     30  C   UNL     1      -1.833  -0.128   0.093  0.00  0.00    -0.076 C 
BRANCH  30  32
ATOM     31  C   UNL     1      -0.840   0.657   2.247  0.00  0.00    +0.005 C 
ATOM     32  C   UNL     1      -1.715  -0.413   1.592  0.00  0.00    -0.034 C 
ATOM     33  C   UNL     1      -3.107  -0.393   2.226  0.00  0.00    +0.005 C 
ENDBRANCH  30  32
ENDBRANCH  28  30
BRANCH  28  34
ATOM     34  C   UNL     1      -2.173  -1.292  -1.977  0.00  0.00    -0.076 C 
BRANCH  34  35
ATOM     35  C   UNL     1      -0.695  -1.671  -2.092  0.00  0.00    -0.034 C 
ATOM     36  C   UNL     1      -0.479  -3.066  -1.502  0.00  0.00    +0.005 C 
ATOM     37  C   UNL     1      -0.282  -1.670  -3.565  0.00  0.00    +0.005 C 
ENDBRANCH  34  35
ENDBRANCH  28  34
ENDBRANCH  27  28
ENDBRANCH  26  27
ENDBRANCH  25  26
ENDBRANCH  21  25
ENDBRANCH  20  22
ENDBRANCH   1  20
TORSDOF 12
