REMARK  Name = ZINC44876994
REMARK  9 active torsions:
REMARK  status: ('A' for Active; 'I' for Inactive)
REMARK    1  A    between atoms: C_1  and  C_2
REMARK    2  A    between atoms: N_5  and  C_8
REMARK    3  A    between atoms: C_8  and  C_9
REMARK    4  A    between atoms: C_12  and  C_15
REMARK    5  A    between atoms: C_15  and  N_16
REMARK    6  A    between atoms: N_16  and  S_17
REMARK    7  A    between atoms: S_17  and  C_20
REMARK    8  A    between atoms: C_23  and  O_26
REMARK    9  A    between atoms: O_26  and  C_27
REMARK                            x       y       z     vdW  Elec       q    Type
REMARK                         _______ _______ _______ _____ _____    ______ ____
ROOT
ATOM      1  N   UNL     1       1.748  -4.245   8.679  0.00  0.00    -0.186 NA
ATOM      2  H   UNL     1       1.714  -3.405   8.194  0.00  0.00    +0.148 HD
ENDROOT
BRANCH   1   3
ATOM      3  S   UNL     1       2.573  -4.341  10.111  0.00  0.00    +0.059 S 
ATOM      4  O   UNL     1       3.136  -3.056  10.342  0.00  0.00    -0.153 OA
ATOM      5  O   UNL     1       1.702  -4.969  11.041  0.00  0.00    -0.153 OA
BRANCH   3   6
ATOM      6  C   UNL     1       3.924  -5.444   9.861  0.00  0.00    +0.105 A 
ATOM      7  C   UNL     1       3.761  -6.798  10.094  0.00  0.00    +0.032 A 
ATOM      8  C   UNL     1       4.818  -7.665   9.898  0.00  0.00    +0.048 A 
ATOM      9  C   UNL     1       6.044  -7.178   9.468  0.00  0.00    +0.129 A 
ATOM     10  C   UNL     1       6.204  -5.819   9.235  0.00  0.00    +0.048 A 
ATOM     11  C   UNL     1       5.143  -4.957   9.427  0.00  0.00    +0.032 A 
BRANCH   9  12
ATOM     12  O   UNL     1       7.085  -8.029   9.275  0.00  0.00    -0.456 OA
BRANCH  12  13
ATOM     13  C   UNL     1       6.879  -9.352   9.508  0.00  0.00    +0.128 A 
ATOM     14  C   UNL     1       6.440 -10.179   8.484  0.00  0.00    +0.046 A 
ATOM     15  C   UNL     1       6.232 -11.523   8.724  0.00  0.00    +0.004 A 
ATOM     16  C   UNL     1       6.460 -12.045   9.984  0.00  0.00    +0.000 A 
ATOM     17  C   UNL     1       6.897 -11.223  11.007  0.00  0.00    +0.004 A 
ATOM     18  C   UNL     1       7.113  -9.880  10.770  0.00  0.00    +0.046 A 
ENDBRANCH  12  13
ENDBRANCH   9  12
ENDBRANCH   3   6
ENDBRANCH   1   3
BRANCH   1  19
ATOM     19  C   UNL     1       1.068  -5.427   8.145  0.00  0.00    +0.141 C 
BRANCH  19  23
ATOM     20  C   UNL     1      -1.657  -4.242   5.077  0.00  0.00    -0.064 A 
ATOM     21  C   UNL     1      -0.351  -4.561   4.756  0.00  0.00    +0.002 A 
ATOM     22  C   UNL     1       0.531  -4.944   5.749  0.00  0.00    +0.005 A 
ATOM     23  C   UNL     1       0.107  -5.008   7.063  0.00  0.00    -0.032 A 
ATOM     24  C   UNL     1      -1.199  -4.688   7.384  0.00  0.00    +0.005 A 
ATOM     25  C   UNL     1      -2.080  -4.301   6.391  0.00  0.00    +0.002 A 
BRANCH  20  26
ATOM     26  C   UNL     1      -2.619  -3.823   3.994  0.00  0.00    -0.043 C 
BRANCH  26  31
ATOM     27  C   UNL     1      -2.158   1.572   2.205  0.00  0.00    +0.007 C 
ATOM     28  C   UNL     1      -2.194   0.043   2.254  0.00  0.00    -0.018 C 
ATOM     29  C   UNL     1      -3.574  -0.421   2.730  0.00  0.00    -0.016 C 
ATOM     30  C   UNL     1      -3.578  -1.946   2.853  0.00  0.00    -0.078 C 
ATOM     31  N   UNL     1      -2.558  -2.366   3.821  0.00  0.00    +0.382 N 
ATOM     32  C   UNL     1      -1.225  -1.987   3.337  0.00  0.00    -0.078 C 
ATOM     33  C   UNL     1      -1.130  -0.463   3.233  0.00  0.00    -0.016 C 
ATOM     34  H   UNL     1      -2.732  -1.917   4.708  0.00  0.00    -0.081 HD
ENDBRANCH  26  31
ENDBRANCH  20  26
ENDBRANCH  19  23
ENDBRANCH   1  19
TORSDOF 8
