REMARK  Name = ZINC08782324
REMARK  11 active torsions:
REMARK  status: ('A' for Active; 'I' for Inactive)
REMARK    1  A    between atoms: C_1  and  C_2
REMARK    2  A    between atoms: C_3  and  C_9
REMARK    3  A    between atoms: C_4  and  O_8
REMARK    4  A    between atoms: C_9  and  C_10
REMARK    5  A    between atoms: C_9  and  C_27
REMARK    6  A    between atoms: C_13  and  O_17
REMARK    7  A    between atoms: O_17  and  C_18
REMARK    8  A    between atoms: C_18  and  C_19
REMARK    9  A    between atoms: C_24  and  C_25
REMARK   10  A    between atoms: C_28  and  C_34
REMARK   11  A    between atoms: C_32  and  O_33
REMARK                            x       y       z     vdW  Elec       q    Type
REMARK                         _______ _______ _______ _____ _____    ______ ____
ROOT
ATOM      1  C   UNL     1      -0.014  -0.337  -2.547  0.00  0.00    +0.093 C 
ENDROOT
BRANCH   1   4
ATOM      2  C   UNL     1      -0.975   1.854  -0.470  0.00  0.00    +0.068 C 
ATOM      3  C   UNL     1      -0.741   0.396  -0.172  0.00  0.00    +0.068 A 
ATOM      4  C   UNL     1      -0.317  -0.570  -1.090  0.00  0.00    +0.048 A 
ATOM      5  C   UNL     1      -0.227  -1.757  -0.433  0.00  0.00    +0.213 A 
ATOM      6  N   UNL     1      -0.583  -1.541   0.852  0.00  0.00    -0.247 N 
ATOM      7  H   UNL     1      -0.613  -2.209   1.556  0.00  0.00    +0.192 HD
ATOM      8  N   UNL     1      -0.895  -0.183   0.991  0.00  0.00    -0.176 NA
BRANCH   5   9
ATOM      9  O   UNL     1       0.151  -2.945  -0.972  0.00  0.00    -0.492 OA
ATOM     10  H   UNL     1       1.090  -3.147  -0.856  0.00  0.00    +0.294 HD
ENDBRANCH   5   9
ENDBRANCH   1   4
BRANCH   1  11
ATOM     11  C   UNL     1      -1.035  -1.053  -3.393  0.00  0.00    -0.034 A 
ATOM     12  C   UNL     1      -1.052  -2.435  -3.434  0.00  0.00    +0.008 A 
ATOM     13  C   UNL     1      -1.986  -3.094  -4.209  0.00  0.00    +0.047 A 
ATOM     14  C   UNL     1      -2.910  -2.368  -4.947  0.00  0.00    +0.135 A 
ATOM     15  C   UNL     1      -2.892  -0.981  -4.905  0.00  0.00    +0.060 A 
ATOM     16  C   UNL     1      -1.958  -0.327  -4.124  0.00  0.00    +0.023 A 
ATOM     17 BR   UNL     1      -4.148   0.013  -5.910  0.00  0.00    -0.047 Br
BRANCH  14  18
ATOM     18  O   UNL     1      -3.830  -3.014  -5.711  0.00  0.00    -0.486 OA
BRANCH  18  19
ATOM     19  C   UNL     1      -3.789  -4.442  -5.706  0.00  0.00    +0.265 C 
BRANCH  19  20
ATOM     20  C   UNL     1      -4.875  -4.979  -6.603  0.00  0.00    +0.007 A 
ATOM     21  C   UNL     1      -5.710  -4.109  -7.274  0.00  0.00    +0.008 A 
ATOM     22  C   UNL     1      -6.708  -4.600  -8.097  0.00  0.00    +0.000 A 
ATOM     23  C   UNL     1      -6.875  -5.965  -8.253  0.00  0.00    +0.001 A 
ATOM     24  C   UNL     1      -6.048  -6.846  -7.588  0.00  0.00    +0.019 A 
ATOM     25  C   UNL     1      -5.035  -6.357  -6.761  0.00  0.00    +0.058 A 
BRANCH  25  26
ATOM     26  C   UNL     1      -4.168  -7.265  -6.072  0.00  0.00    +0.100 C 
ATOM     27  N   UNL     1      -3.480  -7.986  -5.526  0.00  0.00    -0.191 NA
ENDBRANCH  25  26
ENDBRANCH  19  20
ENDBRANCH  18  19
ENDBRANCH  14  18
ENDBRANCH   1  11
BRANCH   1  28
ATOM     28  C   UNL     1       1.361  -0.865  -2.865  0.00  0.00    +0.048 A 
ATOM     29  C   UNL     1       2.438  -0.827  -2.047  0.00  0.00    +0.041 A 
ATOM     30  N   UNL     1       3.472  -1.399  -2.699  0.00  0.00    -0.278 N 
ATOM     31  N   UNL     1       3.019  -1.804  -3.961  0.00  0.00    -0.136 NA
ATOM     32  H   UNL     1       4.371  -1.511  -2.353  0.00  0.00    +0.189 HD
ATOM     33  C   UNL     1       1.750  -1.489  -4.060  0.00  0.00    +0.236 A 
ATOM     34  C   UNL     1       2.475  -0.248  -0.656  0.00  0.00    +0.065 C 
BRANCH  33  35
ATOM     35  O   UNL     1       0.951  -1.723  -5.136  0.00  0.00    -0.491 OA
ATOM     36  H   UNL     1       1.002  -1.041  -5.820  0.00  0.00    +0.294 HD
ENDBRANCH  33  35
ENDBRANCH   1  28
TORSDOF 9
