REMARK  Name = ZINC14021849
REMARK  5 active torsions:
REMARK  status: ('A' for Active; 'I' for Inactive)
REMARK    1  A    between atoms: C_1  and  C_2
REMARK    2  A    between atoms: C_5  and  S_8
REMARK    3  A    between atoms: S_8  and  N_11
REMARK    4  A    between atoms: C_15  and  C_18
REMARK    5  A    between atoms: C_24  and  C_26
REMARK                            x       y       z     vdW  Elec       q    Type
REMARK                         _______ _______ _______ _____ _____    ______ ____
ROOT
ATOM      1  N   UNL     1      -0.872   1.871   1.353  0.00  0.00    -0.176 NA
ATOM      2  C   UNL     1      -1.852   0.960   1.960  0.00  0.00    +0.109 C 
ATOM      3  C   UNL     1      -3.193   1.690   2.083  0.00  0.00    +0.018 C 
ATOM      4  C   UNL     1      -2.990   2.998   2.852  0.00  0.00    +0.015 C 
ATOM      5  C   UNL     1      -2.019   3.897   2.084  0.00  0.00    +0.091 C 
ATOM      6  C   UNL     1      -0.660   3.190   1.965  0.00  0.00    +0.122 C 
ENDROOT
BRANCH   5   7
ATOM      7  C   UNL     1      -1.844   5.197   2.826  0.00  0.00    +0.225 C 
ATOM      8  O   UNL     1      -0.745   5.530   3.215  0.00  0.00    -0.275 OA
ATOM      9  N   UNL     1      -2.909   5.990   3.056  0.00  0.00    -0.238 N 
ATOM     10  C   UNL     1      -2.749   7.186   3.738  0.00  0.00    +0.314 A 
ATOM     11  N   UNL     1      -1.624   7.661   4.216  0.00  0.00    -0.092 NA
ATOM     12  N   UNL     1      -1.845   8.793   4.786  0.00  0.00    -0.106 NA
ATOM     13  C   UNL     1      -3.121   9.081   4.701  0.00  0.00    +0.250 A 
ATOM     14  O   UNL     1      -3.720   8.070   4.035  0.00  0.00    -0.405 OA
ATOM     15  H   UNL     1      -3.788   5.724   2.744  0.00  0.00    +0.159 HD
BRANCH  13  16
ATOM     16  C   UNL     1      -3.783  10.290   5.235  0.00  0.00    +0.039 A 
ATOM     17  C   UNL     1      -5.157  10.469   5.065  0.00  0.00    +0.014 A 
ATOM     18  C   UNL     1      -5.770  11.597   5.571  0.00  0.00    +0.021 A 
ATOM     19  C   UNL     1      -5.024  12.555   6.236  0.00  0.00    +0.041 A 
ATOM     20  C   UNL     1      -3.659  12.385   6.402  0.00  0.00    +0.021 A 
ATOM     21  C   UNL     1      -3.036  11.259   5.906  0.00  0.00    +0.014 A 
ATOM     22 CL   UNL     1      -5.801  13.974   6.864  0.00  0.00    -0.084 Cl
ENDBRANCH  13  16
ENDBRANCH   5   7
BRANCH   1  23
ATOM     23  S   UNL     1      -0.017   1.417   0.010  0.00  0.00    +0.061 S 
ATOM     24  O   UNL     1       0.002  -0.004   0.002  0.00  0.00    -0.153 OA
ATOM     25  O   UNL     1       1.172   2.195   0.003  0.00  0.00    -0.153 OA
BRANCH  23  30
ATOM     26  C   UNL     1      -3.225   3.125  -4.807  0.00  0.00    +0.044 C 
ATOM     27  C   UNL     1      -2.423   2.698  -3.604  0.00  0.00    -0.050 A 
ATOM     28  C   UNL     1      -1.494   3.559  -3.052  0.00  0.00    +0.005 A 
ATOM     29  C   UNL     1      -0.759   3.168  -1.948  0.00  0.00    +0.029 A 
ATOM     30  C   UNL     1      -0.954   1.915  -1.397  0.00  0.00    +0.105 A 
ATOM     31  C   UNL     1      -1.879   1.052  -1.952  0.00  0.00    +0.029 A 
ATOM     32  C   UNL     1      -2.617   1.445  -3.053  0.00  0.00    +0.005 A 
ENDBRANCH  23  30
ENDBRANCH   1  23
TORSDOF 4
