REMARK  Name = ZINC06707009
REMARK  5 active torsions:
REMARK  status: ('A' for Active; 'I' for Inactive)
REMARK    1  A    between atoms: C_1  and  C_2
REMARK    2  A    between atoms: C_6  and  N_9
REMARK    3  A    between atoms: C_7  and  C_8
REMARK    4  A    between atoms: N_9  and  S_10
REMARK    5  A    between atoms: S_10  and  C_13
REMARK                            x       y       z     vdW  Elec       q    Type
REMARK                         _______ _______ _______ _____ _____    ______ ____
ROOT
ATOM      1  S   UNL     1       0.788  -4.277   2.472  0.00  0.00    +0.072 S 
ATOM      2  O   UNL     1       0.558  -4.774   3.783  0.00  0.00    -0.150 OA
ATOM      3  O   UNL     1       0.396  -4.991   1.307  0.00  0.00    -0.150 OA
ENDROOT
BRANCH   1   4
ATOM      4  C   UNL     1       2.524  -4.003   2.334  0.00  0.00    +0.109 A 
ATOM      5  C   UNL     1       3.122  -3.996   1.083  0.00  0.00    +0.032 A 
ATOM      6  C   UNL     1       4.479  -3.783   0.953  0.00  0.00    +0.049 A 
ATOM      7  C   UNL     1       5.256  -3.574   2.085  0.00  0.00    +0.139 A 
ATOM      8  C   UNL     1       4.646  -3.583   3.351  0.00  0.00    +0.019 A 
ATOM      9  C   UNL     1       3.269  -3.795   3.461  0.00  0.00    +0.040 A 
ATOM     10  C   UNL     1       5.474  -3.361   4.541  0.00  0.00    +0.018 A 
ATOM     11  C   UNL     1       6.804  -3.156   4.367  0.00  0.00    +0.092 A 
ATOM     12  C   UNL     1       7.350  -3.160   3.065  0.00  0.00    +0.337 A 
ATOM     13  O   UNL     1       8.545  -2.975   2.922  0.00  0.00    -0.245 OA
ATOM     14  O   UNL     1       6.586  -3.364   1.981  0.00  0.00    -0.422 OA
ENDBRANCH   1   4
BRANCH   1  15
ATOM     15  N   UNL     1       0.051  -2.796   2.390  0.00  0.00    -0.216 N 
ATOM     16  H   UNL     1      -0.487  -2.481   3.133  0.00  0.00    +0.174 HD
BRANCH  15  22
ATOM     17  C   UNL     1       0.515   1.662   0.375  0.00  0.00    +0.044 C 
ATOM     18  C   UNL     1       0.432   0.163   0.245  0.00  0.00    -0.046 A 
ATOM     19  C   UNL     1       0.507  -0.428  -1.004  0.00  0.00    +0.004 A 
ATOM     20  C   UNL     1       0.431  -1.803  -1.127  0.00  0.00    +0.002 A 
ATOM     21  C   UNL     1       0.280  -2.591  -0.004  0.00  0.00    +0.025 A 
ATOM     22  C   UNL     1       0.204  -2.002   1.252  0.00  0.00    +0.051 A 
ATOM     23  C   UNL     1       0.286  -0.620   1.373  0.00  0.00    -0.025 A 
ATOM     24  C   UNL     1       0.210   0.024   2.733  0.00  0.00    +0.046 C 
ENDBRANCH  15  22
ENDBRANCH   1  15
TORSDOF 3
