REMARK  Name = ZINC14013402
REMARK  6 active torsions:
REMARK  status: ('A' for Active; 'I' for Inactive)
REMARK    1  A    between atoms: C_1  and  C_2
REMARK    2  A    between atoms: C_5  and  N_9
REMARK    3  A    between atoms: C_7  and  C_8
REMARK    4  A    between atoms: C_21  and  C_23
REMARK    5  A    between atoms: C_23  and  C_24
REMARK    6  A    between atoms: N_26  and  C_27
REMARK                            x       y       z     vdW  Elec       q    Type
REMARK                         _______ _______ _______ _____ _____    ______ ____
ROOT
ATOM      1  N   UNL     1      -1.794  -3.068   0.131  0.00  0.00    -0.214 N 
ATOM      2  C   UNL     1      -0.915  -2.029   0.075  0.00  0.00    +0.171 A 
ATOM      3  C   UNL     1       0.374  -2.586   0.096  0.00  0.00    +0.103 A 
ATOM      4  C   UNL     1       0.216  -3.987   0.166  0.00  0.00    +0.150 A 
ATOM      5  N   UNL     1      -1.059  -4.259   0.185  0.00  0.00    -0.172 NA
ATOM      6  C   UNL     1       1.490  -1.723   0.048  0.00  0.00    +0.266 A 
ATOM      7  O   UNL     1       2.618  -2.183   0.065  0.00  0.00    -0.267 OA
ATOM      8  N   UNL     1       1.301  -0.365  -0.018  0.00  0.00    -0.283 N 
ATOM      9  C   UNL     1       0.013   0.088  -0.034  0.00  0.00    +0.174 A 
ATOM     10  N   UNL     1      -1.038  -0.700   0.010  0.00  0.00    -0.203 NA
ATOM     11  S   UNL     1       0.096   1.865  -0.121  0.00  0.00    -0.085 S 
ATOM     12  C   UNL     1       1.914   2.077  -0.141  0.00  0.00    +0.103 C 
ATOM     13  C   UNL     1       2.383   0.617  -0.072  0.00  0.00    +0.112 C 
ENDROOT
BRANCH   1  18
ATOM     14  C   UNL     1      -7.452  -2.646   0.138  0.00  0.00    +0.044 C 
ATOM     15  C   UNL     1      -5.949  -2.758   0.136  0.00  0.00    -0.047 A 
ATOM     16  C   UNL     1      -5.185  -1.798   0.773  0.00  0.00    +0.006 A 
ATOM     17  C   UNL     1      -3.808  -1.901   0.778  0.00  0.00    +0.028 A 
ATOM     18  C   UNL     1      -3.190  -2.964   0.132  0.00  0.00    +0.068 A 
ATOM     19  C   UNL     1      -3.961  -3.926  -0.507  0.00  0.00    +0.031 A 
ATOM     20  C   UNL     1      -5.338  -3.821  -0.503  0.00  0.00    -0.046 A 
ATOM     21  C   UNL     1      -6.175  -4.865  -1.196  0.00  0.00    +0.044 C 
ENDBRANCH   1  18
BRANCH  13  22
ATOM     22  C   UNL     1       3.256   0.447   1.173  0.00  0.00    +0.122 C 
BRANCH  22  23
ATOM     23  C   UNL     1       4.462   1.344   1.067  0.00  0.00    +0.219 C 
ATOM     24  O   UNL     1       4.586   2.084   0.114  0.00  0.00    -0.275 OA
ATOM     25  N   UNL     1       5.404   1.323   2.030  0.00  0.00    -0.284 N 
ATOM     26  H   UNL     1       5.346   0.676   2.751  0.00  0.00    +0.155 HD
BRANCH  25  27
ATOM     27  C   UNL     1       6.467   2.234   1.991  0.00  0.00    +0.052 A 
ATOM     28  C   UNL     1       6.955   2.680   0.770  0.00  0.00    +0.026 A 
ATOM     29  C   UNL     1       8.000   3.582   0.734  0.00  0.00    +0.022 A 
ATOM     30  C   UNL     1       8.568   4.034   1.912  0.00  0.00    +0.042 A 
ATOM     31  C   UNL     1       8.088   3.587   3.130  0.00  0.00    +0.041 A 
ATOM     32  C   UNL     1       7.038   2.688   3.173  0.00  0.00    +0.064 A 
ATOM     33 CL   UNL     1       6.436   2.128   4.701  0.00  0.00    -0.082 Cl
ATOM     34 CL   UNL     1       9.887   5.162   1.862  0.00  0.00    -0.083 Cl
ENDBRANCH  25  27
ENDBRANCH  22  23
ENDBRANCH  13  22
TORSDOF 4
