REMARK  Name = ZINC38597570
REMARK  6 active torsions:
REMARK  status: ('A' for Active; 'I' for Inactive)
REMARK    1  A    between atoms: C_9  and  C_12
REMARK    2  A    between atoms: N_14  and  C_15
REMARK    3  A    between atoms: C_15  and  C_16
REMARK    4  A    between atoms: C_16  and  C_18
REMARK    5  A    between atoms: C_16  and  N_23
REMARK    6  A    between atoms: N_26  and  C_29
REMARK                            x       y       z     vdW  Elec       q    Type
REMARK                         _______ _______ _______ _____ _____    ______ ____
ROOT
ATOM      1  C   UNL     1       6.537  -5.785  -0.574  0.00  0.00    +0.017 C 
ENDROOT
BRANCH   1   2
ATOM      2  N   UNL     1       5.485  -6.753  -0.237  0.00  0.00    +0.389 N 
ATOM      3  C   UNL     1       5.540  -7.052   1.200  0.00  0.00    -0.059 C 
ATOM      4  C   UNL     1       4.373  -7.972   1.573  0.00  0.00    +0.086 C 
ATOM      5  N   UNL     1       4.417  -9.158   0.704  0.00  0.00    -0.333 N 
ATOM      6  C   UNL     1       4.528  -8.949  -0.748  0.00  0.00    +0.086 C 
ATOM      7  C   UNL     1       5.688  -7.983  -1.012  0.00  0.00    -0.059 C 
ATOM      8  H   UNL     1       4.584  -6.360  -0.462  0.00  0.00    -0.081 HD
BRANCH   5   9
ATOM      9  C   UNL     1       4.354 -10.447   1.242  0.00  0.00    +0.030 A 
ATOM     10  C   UNL     1       4.126 -10.623   2.601  0.00  0.00    +0.026 A 
ATOM     11  C   UNL     1       4.064 -11.897   3.130  0.00  0.00    +0.040 A 
ATOM     12  C   UNL     1       4.228 -12.998   2.308  0.00  0.00    +0.124 A 
ATOM     13  C   UNL     1       4.455 -12.826   0.953  0.00  0.00    +0.040 A 
ATOM     14  C   UNL     1       4.513 -11.553   0.418  0.00  0.00    +0.026 A 
ATOM     15  F   UNL     1       4.167 -14.244   2.828  0.00  0.00    -0.205 F 
ENDBRANCH   5   9
ENDBRANCH   1   2
BRANCH   1  16
ATOM     16  C   UNL     1       7.888  -6.407  -0.330  0.00  0.00    +0.093 A 
ATOM     17  C   UNL     1       8.920  -6.410  -1.194  0.00  0.00    +0.043 A 
ATOM     18  C   UNL     1       9.982  -7.097  -0.560  0.00  0.00    +0.041 A 
ATOM     19  C   UNL     1       9.535  -7.472   0.652  0.00  0.00    +0.195 A 
ATOM     20  O   UNL     1       8.269  -7.046   0.788  0.00  0.00    -0.469 OA
ENDBRANCH   1  16
BRANCH   1  21
ATOM     21  C   UNL     1       6.384  -4.539   0.301  0.00  0.00    +0.096 C 
BRANCH  21  24
ATOM     22  C   UNL     1       4.641  -2.936   0.875  0.00  0.00    +0.257 C 
ATOM     23  O   UNL     1       5.390  -2.463   1.703  0.00  0.00    -0.272 OA
ATOM     24  N   UNL     1       5.043  -3.978   0.120  0.00  0.00    -0.313 N 
ATOM     25  H   UNL     1       4.444  -4.356  -0.542  0.00  0.00    +0.149 HD
BRANCH  22  34
ATOM     26  C   UNL     1      -0.744   0.204   2.074  0.00  0.00    +0.004 A 
ATOM     27  C   UNL     1       0.343   1.003   2.377  0.00  0.00    +0.004 A 
ATOM     28  C   UNL     1       1.627   0.526   2.194  0.00  0.00    +0.049 A 
ATOM     29  C   UNL     1       1.829  -0.756   1.704  0.00  0.00    +0.163 A 
ATOM     30  C   UNL     1       0.736  -1.558   1.397  0.00  0.00    +0.162 A 
ATOM     31  C   UNL     1      -0.550  -1.074   1.586  0.00  0.00    +0.049 A 
ATOM     32  O   UNL     1       0.911  -2.816   0.908  0.00  0.00    -0.484 OA
ATOM     33  C   UNL     1       2.207  -3.400   1.084  0.00  0.00    +0.283 C 
ATOM     34  C   UNL     1       3.262  -2.358   0.689  0.00  0.00    +0.296 C 
ATOM     35  O   UNL     1       3.099  -1.213   1.532  0.00  0.00    -0.473 OA
ENDBRANCH  22  34
ENDBRANCH  21  24
ENDBRANCH   1  21
TORSDOF 6
