REMARK  Name = ZINC41027169
REMARK  6 active torsions:
REMARK  status: ('A' for Active; 'I' for Inactive)
REMARK    1  A    between atoms: C_3  and  C_11
REMARK    2  A    between atoms: C_4  and  N_10
REMARK    3  A    between atoms: C_6  and  C_7
REMARK    4  A    between atoms: C_11  and  S_12
REMARK    5  A    between atoms: S_12  and  C_13
REMARK    6  A    between atoms: C_19  and  N_21
REMARK                            x       y       z     vdW  Elec       q    Type
REMARK                         _______ _______ _______ _____ _____    ______ ____
ROOT
ATOM      1  C   UNL     1      -0.017   1.391   0.010  0.00  0.00    +0.013 A 
ATOM      2  C   UNL     1       1.169   2.098   0.002  0.00  0.00    +0.007 A 
ATOM      3  C   UNL     1       2.378   1.428  -0.013  0.00  0.00    -0.016 A 
ATOM      4  C   UNL     1       2.408   0.038  -0.021  0.00  0.00    +0.029 A 
ATOM      5  C   UNL     1       1.222  -0.680  -0.013  0.00  0.00    +0.036 A 
ATOM      6  C   UNL     1       0.002  -0.004   0.002  0.00  0.00    +0.038 A 
ENDROOT
BRANCH   6   7
ATOM      7  C   UNL     1      -1.267  -0.763   0.011  0.00  0.00    +0.242 C 
ATOM      8  O   UNL     1      -1.248  -1.978   0.004  0.00  0.00    -0.270 OA
ATOM      9  N   UNL     1      -2.444  -0.107   0.026  0.00  0.00    -0.325 N 
ATOM     10  H   UNL     1      -2.459   0.862   0.031  0.00  0.00    +0.145 HD
ATOM     11  H   UNL     1      -3.277  -0.605   0.031  0.00  0.00    +0.145 HD
ENDBRANCH   6   7
BRANCH   4  12
ATOM     12  N   UNL     1       3.632  -0.634  -0.036  0.00  0.00    -0.358 N 
ATOM     13  H   UNL     1       4.462  -0.131  -0.042  0.00  0.00    +0.142 HD
ATOM     14  H   UNL     1       3.653  -1.604  -0.042  0.00  0.00    +0.142 HD
ENDBRANCH   4  12
BRANCH   3  15
ATOM     15  C   UNL     1       3.668   2.207  -0.022  0.00  0.00    +0.114 C 
BRANCH  15  16
ATOM     16  S   UNL     1       4.202   2.511   1.685  0.00  0.00    -0.083 S 
BRANCH  16  17
ATOM     17  C   UNL     1       5.702   3.418   1.507  0.00  0.00    +0.171 A 
ATOM     18  N   UNL     1       6.381   3.810   2.621  0.00  0.00    -0.302 N 
ATOM     19  H   UNL     1       6.038   3.588   3.501  0.00  0.00    +0.171 HD
ATOM     20  C   UNL     1       7.532   4.506   2.503  0.00  0.00    +0.254 A 
ATOM     21  O   UNL     1       8.147   4.860   3.497  0.00  0.00    -0.268 OA
ATOM     22  C   UNL     1       8.007   4.813   1.225  0.00  0.00    +0.113 A 
ATOM     23  C   UNL     1       7.278   4.391   0.122  0.00  0.00    +0.124 A 
ATOM     24  N   UNL     1       6.146   3.700   0.299  0.00  0.00    -0.209 NA
BRANCH  23  25
ATOM     25  N   UNL     1       7.721   4.679  -1.153  0.00  0.00    -0.343 N 
ATOM     26  H   UNL     1       8.543   5.178  -1.280  0.00  0.00    +0.144 HD
ATOM     27  H   UNL     1       7.210   4.384  -1.923  0.00  0.00    +0.144 HD
ENDBRANCH  23  25
ENDBRANCH  16  17
ENDBRANCH  15  16
ENDBRANCH   3  15
TORSDOF 6
