REMARK  Name = ZINC36017134
REMARK  17 active torsions:
REMARK  status: ('A' for Active; 'I' for Inactive)
REMARK    1  A    between atoms: C_1  and  C_2
REMARK    2  A    between atoms: C_2  and  N_3
REMARK    3  A    between atoms: C_4  and  C_26
REMARK    4  A    between atoms: C_5  and  C_21
REMARK    5  A    between atoms: C_6  and  C_11
REMARK    6  A    between atoms: C_13  and  O_19
REMARK    7  A    between atoms: C_15  and  O_17
REMARK    8  A    between atoms: O_17  and  C_18
REMARK    9  A    between atoms: O_19  and  C_20
REMARK   10  A    between atoms: C_21  and  O_23
REMARK   11  A    between atoms: O_23  and  C_24
REMARK   12  A    between atoms: C_24  and  C_25
REMARK   13  A    between atoms: C_26  and  N_27
REMARK   14  A    between atoms: C_31  and  C_34
REMARK   15  A    between atoms: N_37  and  C_38
REMARK   16  A    between atoms: C_38  and  C_39
REMARK   17  A    between atoms: C_38  and  C_40
REMARK                            x       y       z     vdW  Elec       q    Type
REMARK                         _______ _______ _______ _____ _____    ______ ____
ROOT
ATOM      1  N   UNL     1       0.772  -0.630  -1.032  0.00  0.00    -0.258 N 
ATOM      2  C   UNL     1       0.327  -0.625  -2.322  0.00  0.00    +0.041 C 
ATOM      3  C   UNL     1       1.137  -0.986  -3.341  0.00  0.00    +0.080 C 
ATOM      4  C   UNL     1       2.556  -1.395  -3.001  0.00  0.00    +0.144 C 
ATOM      5  N   UNL     1       2.937  -1.366  -1.579  0.00  0.00    -0.288 N 
ATOM      6  C   UNL     1       2.015  -0.977  -0.676  0.00  0.00    +0.307 C 
ATOM      7  O   UNL     1       2.321  -0.946   0.500  0.00  0.00    -0.252 OA
ATOM      8  H   UNL     1       3.831  -1.617  -1.299  0.00  0.00    +0.151 HD
ENDROOT
BRANCH   4   9
ATOM      9  C   UNL     1       2.769  -2.798  -3.509  0.00  0.00    -0.016 A 
ATOM     10  C   UNL     1       2.295  -3.874  -2.783  0.00  0.00    +0.051 A 
ATOM     11  C   UNL     1       2.490  -5.167  -3.249  0.00  0.00    +0.124 A 
ATOM     12  C   UNL     1       3.161  -5.378  -4.444  0.00  0.00    +0.091 A 
ATOM     13  C   UNL     1       3.635  -4.297  -5.170  0.00  0.00    +0.124 A 
ATOM     14  C   UNL     1       3.433  -3.006  -4.703  0.00  0.00    +0.051 A 
BRANCH  13  15
ATOM     15  O   UNL     1       4.294  -4.501  -6.341  0.00  0.00    -0.495 OA
ATOM     16  C   UNL     1       4.461  -5.856  -6.764  0.00  0.00    +0.277 C 
ENDBRANCH  13  15
BRANCH  11  17
ATOM     17  O   UNL     1       2.024  -6.224  -2.534  0.00  0.00    -0.495 OA
ATOM     18  C   UNL     1       2.260  -7.526  -3.074  0.00  0.00    +0.277 C 
ENDBRANCH  11  17
ENDBRANCH   4   9
BRANCH   1  20
ATOM     19  C   UNL     1      -0.062   1.284   0.242  0.00  0.00    +0.025 C 
ATOM     20  C   UNL     1      -0.162  -0.226   0.023  0.00  0.00    +0.111 C 
ENDBRANCH   1  20
BRANCH   3  21
ATOM     21  C   UNL     1       0.677  -0.982  -4.678  0.00  0.00    +0.339 C 
ATOM     22  O   UNL     1       0.293  -2.016  -5.192  0.00  0.00    -0.245 OA
BRANCH  21  23
ATOM     23  O   UNL     1       0.664   0.168  -5.384  0.00  0.00    -0.462 OA
BRANCH  23  24
ATOM     24  C   UNL     1       0.187   0.098  -6.729  0.00  0.00    +0.229 C 
ATOM     25  C   UNL     1       0.246   1.488  -7.364  0.00  0.00    +0.048 C 
ENDBRANCH  23  24
ENDBRANCH  21  23
ENDBRANCH   3  21
BRANCH   2  26
ATOM     26  C   UNL     1      -1.092  -0.211  -2.616  0.00  0.00    +0.136 C 
BRANCH  26  27
ATOM     27  N   UNL     1      -2.018  -1.200  -2.049  0.00  0.00    -0.294 NA
ATOM     28  C   UNL     1      -1.879  -2.498  -2.723  0.00  0.00    +0.104 C 
ATOM     29  C   UNL     1      -2.725  -3.544  -1.989  0.00  0.00    +0.125 C 
ATOM     30  N   UNL     1      -4.103  -3.042  -1.885  0.00  0.00    -0.280 N 
ATOM     31  C   UNL     1      -4.313  -1.690  -1.346  0.00  0.00    +0.088 C 
ATOM     32  C   UNL     1      -3.405  -0.717  -2.105  0.00  0.00    +0.107 C 
ATOM     33  C   UNL     1      -5.776  -1.284  -1.530  0.00  0.00    +0.029 C 
ATOM     34  C   UNL     1      -5.147  -3.800  -2.274  0.00  0.00    +0.303 C 
ATOM     35  O   UNL     1      -6.272  -3.338  -2.265  0.00  0.00    -0.253 OA
ATOM     36  N   UNL     1      -4.944  -5.072  -2.675  0.00  0.00    -0.297 N 
ATOM     37  H   UNL     1      -4.058  -5.462  -2.618  0.00  0.00    +0.150 HD
BRANCH  36  38
ATOM     38  C   UNL     1      -6.062  -5.863  -3.194  0.00  0.00    +0.068 C 
ATOM     39  C   UNL     1      -6.240  -5.577  -4.687  0.00  0.00    +0.027 C 
ATOM     40  C   UNL     1      -5.771  -7.351  -2.992  0.00  0.00    +0.027 C 
ENDBRANCH  36  38
ENDBRANCH  26  27
ENDBRANCH   2  26
TORSDOF 10
