REMARK  Name = ZINC23883375
REMARK  4 active torsions:
REMARK  status: ('A' for Active; 'I' for Inactive)
REMARK    1  A    between atoms: C_6  and  C_10
REMARK    2  A    between atoms: C_10  and  N_11
REMARK    3  A    between atoms: N_14  and  S_17
REMARK    4  A    between atoms: S_17  and  C_20
REMARK                            x       y       z     vdW  Elec       q    Type
REMARK                         _______ _______ _______ _____ _____    ______ ____
ROOT
ATOM      1  N   UNL     1       2.421   7.088  -1.365  0.00  0.00    -0.294 NA
ATOM      2  C   UNL     1       3.279   6.207  -2.169  0.00  0.00    +0.102 C 
ATOM      3  C   UNL     1       3.230   6.651  -3.635  0.00  0.00    +0.125 C 
ATOM      4  N   UNL     1       3.571   8.080  -3.701  0.00  0.00    -0.174 NA
ATOM      5  C   UNL     1       2.846   9.010  -2.821  0.00  0.00    +0.125 C 
ATOM      6  C   UNL     1       2.910   8.473  -1.388  0.00  0.00    +0.102 C 
ENDROOT
BRANCH   4   7
ATOM      7  S   UNL     1       4.739   8.628  -4.739  0.00  0.00    +0.061 S 
ATOM      8  O   UNL     1       4.833   7.672  -5.786  0.00  0.00    -0.153 OA
ATOM      9  O   UNL     1       4.455   9.999  -4.983  0.00  0.00    -0.153 OA
BRANCH   7  10
ATOM     10  C   UNL     1       6.272   8.578  -3.871  0.00  0.00    +0.109 A 
ATOM     11  C   UNL     1       6.692   9.680  -3.150  0.00  0.00    +0.032 A 
ATOM     12  C   UNL     1       7.892   9.646  -2.463  0.00  0.00    +0.051 A 
ATOM     13  C   UNL     1       8.677   8.507  -2.507  0.00  0.00    +0.162 A 
ATOM     14  C   UNL     1       8.257   7.402  -3.235  0.00  0.00    +0.164 A 
ATOM     15  C   UNL     1       7.054   7.438  -3.918  0.00  0.00    +0.078 A 
ATOM     16  O   UNL     1       9.038   6.283  -3.272  0.00  0.00    -0.488 OA
ATOM     17  C   UNL     1      10.276   6.408  -3.974  0.00  0.00    +0.232 C 
ATOM     18  C   UNL     1      11.351   6.993  -3.072  0.00  0.00    +0.082 C 
ATOM     19  C   UNL     1      11.039   8.419  -2.649  0.00  0.00    +0.232 C 
ATOM     20  O   UNL     1       9.864   8.461  -1.837  0.00  0.00    -0.488 OA
ENDBRANCH   7  10
ENDBRANCH   4   7
BRANCH   1  21
ATOM     21  C   UNL     1       2.304   6.594   0.014  0.00  0.00    +0.139 C 
BRANCH  21  27
ATOM     22  C   UNL     1      -1.240   1.758   0.018  0.00  0.00    +0.005 A 
ATOM     23  C   UNL     1      -0.013   1.076   0.008  0.00  0.00    +0.018 A 
ATOM     24  C   UNL     1       1.149   1.763   0.001  0.00  0.00    +0.092 A 
ATOM     25  N   UNL     1       1.148   3.128   0.007  0.00  0.00    -0.308 N 
ATOM     26  C   UNL     1       2.156   4.054   0.002  0.00  0.00    +0.115 A 
ATOM     27  C   UNL     1       1.576   5.274   0.014  0.00  0.00    +0.048 A 
ATOM     28  N   UNL     1       0.250   5.117   0.026  0.00  0.00    -0.342 N 
ATOM     29  C   UNL     1      -0.034   3.822   0.022  0.00  0.00    +0.115 A 
ATOM     30  C   UNL     1      -1.255   3.119   0.031  0.00  0.00    +0.045 A 
ATOM     31  H   UNL     1      -0.408   5.998   0.037  0.00  0.00    +0.167 HD
ENDBRANCH  21  27
ENDBRANCH   1  21
TORSDOF 4
