REMARK  Name = ZINC64482306
REMARK  10 active torsions:
REMARK  status: ('A' for Active; 'I' for Inactive)
REMARK    1  A    between atoms: C_1  and  C_2
REMARK    2  A    between atoms: C_7  and  C_37
REMARK    3  A    between atoms: C_8  and  C_15
REMARK    4  A    between atoms: C_15  and  C_16
REMARK    5  A    between atoms: C_19  and  S_22
REMARK    6  A    between atoms: N_20  and  C_21
REMARK    7  A    between atoms: S_22  and  C_23
REMARK    8  A    between atoms: C_23  and  C_24
REMARK    9  A    between atoms: N_26  and  C_27
REMARK   10  A    between atoms: C_27  and  C_28
REMARK                            x       y       z     vdW  Elec       q    Type
REMARK                         _______ _______ _______ _____ _____    ______ ____
ROOT
ATOM      1  C   UNL     1      -1.118  -4.571  -4.565  0.00  0.00    +0.138 A 
ATOM      2  N   UNL     1      -2.174  -4.195  -5.229  0.00  0.00    -0.133 NA
ATOM      3  N   UNL     1      -1.831  -3.734  -6.379  0.00  0.00    -0.122 NA
ATOM      4  C   UNL     1      -0.526  -3.791  -6.511  0.00  0.00    +0.192 A 
ATOM      5  N   UNL     1      -0.030  -4.323  -5.356  0.00  0.00    -0.309 N 
ATOM      6  C   UNL     1       1.376  -4.577  -5.031  0.00  0.00    +0.152 C 
ENDROOT
BRANCH   1   7
ATOM      7  C   UNL     1      -1.098  -5.163  -3.179  0.00  0.00    +0.118 C 
BRANCH   7  14
ATOM      8  C   UNL     1      -0.530   1.724  -0.312  0.00  0.00    +0.043 C 
ATOM      9  C   UNL     1      -0.389   0.225  -0.251  0.00  0.00    -0.050 C 
ATOM     10  C   UNL     1      -1.476  -0.547  -0.203  0.00  0.00    +0.018 C 
ATOM     11  C   UNL     1      -1.316  -2.045  -0.151  0.00  0.00    +0.190 C 
ATOM     12  N   UNL     1      -2.474  -2.705  -0.726  0.00  0.00    -0.325 N 
ATOM     13  C   UNL     1      -2.381  -3.681  -1.669  0.00  0.00    +0.011 C 
ATOM     14  C   UNL     1      -1.183  -4.058  -2.159  0.00  0.00    +0.039 C 
ATOM     15  H   UNL     1      -3.356  -2.438  -0.424  0.00  0.00    +0.148 HD
ATOM     16  C   UNL     1      -0.009  -3.413  -1.714  0.00  0.00    +0.250 C 
ATOM     17  O   UNL     1       1.073  -3.764  -2.150  0.00  0.00    -0.270 OA
ATOM     18  N   UNL     1      -0.077  -2.418  -0.829  0.00  0.00    -0.252 N 
ATOM     19  C   UNL     1       1.076  -1.693  -0.540  0.00  0.00    +0.080 C 
ATOM     20  C   UNL     1       0.946  -0.389  -0.249  0.00  0.00    +0.018 C 
ATOM     21  C   UNL     1      -3.633  -4.351  -2.171  0.00  0.00    +0.061 C 
ENDBRANCH   7  14
ENDBRANCH   1   7
BRANCH   4  22
ATOM     22  S   UNL     1       0.408  -3.274  -7.913  0.00  0.00    -0.077 S 
BRANCH  22  23
ATOM     23  C   UNL     1      -0.845  -2.667  -9.076  0.00  0.00    +0.173 C 
BRANCH  23  24
ATOM     24  C   UNL     1      -0.171  -2.188 -10.336  0.00  0.00    +0.223 C 
ATOM     25  O   UNL     1       1.036  -2.250 -10.439  0.00  0.00    -0.275 OA
ATOM     26  N   UNL     1      -0.908  -1.691 -11.348  0.00  0.00    -0.311 N 
ATOM     27  H   UNL     1      -1.874  -1.641 -11.265  0.00  0.00    +0.149 HD
BRANCH  26  28
ATOM     28  C   UNL     1      -0.253  -1.225 -12.572  0.00  0.00    +0.151 C 
BRANCH  28  29
ATOM     29  C   UNL     1      -1.310  -0.713 -13.553  0.00  0.00    +0.191 C 
ATOM     30  N   UNL     1      -2.105   0.350 -12.927  0.00  0.00    -0.362 N 
ATOM     31  C   UNL     1      -3.343  -0.052 -12.901  0.00  0.00    +0.060 A 
ATOM     32  C   UNL     1      -4.583   0.562 -12.406  0.00  0.00    +0.027 A 
ATOM     33  C   UNL     1      -5.747  -0.108 -12.517  0.00  0.00    +0.002 A 
ATOM     34  C   UNL     1      -5.833  -1.388 -13.092  0.00  0.00    +0.002 A 
ATOM     35  C   UNL     1      -4.758  -2.042 -13.576  0.00  0.00    +0.027 A 
ATOM     36  C   UNL     1      -3.434  -1.407 -13.510  0.00  0.00    +0.060 A 
ATOM     37  N   UNL     1      -2.249  -1.790 -13.889  0.00  0.00    -0.362 N 
ATOM     38  H   UNL     1      -1.770   1.197 -12.594  0.00  0.00    +0.162 HD
ATOM     39  H   UNL     1      -2.028  -2.633 -14.316  0.00  0.00    +0.162 HD
ENDBRANCH  28  29
ENDBRANCH  26  28
ENDBRANCH  23  24
ENDBRANCH  22  23
ENDBRANCH   4  22
TORSDOF 7
