REMARK  Name = ZINC32926887
REMARK  8 active torsions:
REMARK  status: ('A' for Active; 'I' for Inactive)
REMARK    1  A    between atoms: C_1  and  C_2
REMARK    2  A    between atoms: C_2  and  N_3
REMARK    3  A    between atoms: N_3  and  C_4
REMARK    4  A    between atoms: N_3  and  C_14
REMARK    5  A    between atoms: C_4  and  C_5
REMARK    6  A    between atoms: C_10  and  N_11
REMARK    7  A    between atoms: C_14  and  N_15
REMARK    8  A    between atoms: N_27  and  C_30
REMARK                            x       y       z     vdW  Elec       q    Type
REMARK                         _______ _______ _______ _____ _____    ______ ____
ROOT
ATOM      1  N   UNL     1      -3.572  -1.632   0.485  0.00  0.00    -0.255 N 
ATOM      2  C   UNL     1      -2.393  -0.997   0.638  0.00  0.00    +0.182 A 
ATOM      3  S   UNL     1      -0.839  -1.699   0.486  0.00  0.00    -0.011 S 
ATOM      4  N   UNL     1      -2.660   0.293   0.933  0.00  0.00    -0.257 N 
ATOM      5  C   UNL     1      -1.812   1.369   1.187  0.00  0.00    +0.064 A 
ATOM      6  C   UNL     1      -0.434   1.213   1.160  0.00  0.00    +0.027 A 
ATOM      7  C   UNL     1       0.385   2.296   1.415  0.00  0.00    +0.002 A 
ATOM      8  C   UNL     1      -0.158   3.539   1.697  0.00  0.00    +0.001 A 
ATOM      9  C   UNL     1      -1.526   3.712   1.728  0.00  0.00    +0.015 A 
ATOM     10  C   UNL     1      -2.363   2.627   1.473  0.00  0.00    +0.064 A 
ATOM     11  C   UNL     1      -3.830   2.771   1.502  0.00  0.00    +0.263 A 
ATOM     12  O   UNL     1      -4.341   3.847   1.747  0.00  0.00    -0.267 OA
ATOM     13  N   UNL     1      -4.597   1.693   1.244  0.00  0.00    -0.280 N 
ATOM     14  C   UNL     1      -4.027   0.459   0.963  0.00  0.00    +0.238 A 
ATOM     15  N   UNL     1      -4.586  -0.690   0.695  0.00  0.00    -0.133 NA
ATOM     16  C   UNL     1      -6.056   1.824   1.264  0.00  0.00    +0.155 C 
ENDROOT
BRANCH   1  17
ATOM     17  C   UNL     1      -3.758  -3.048   0.157  0.00  0.00    +0.072 C 
BRANCH  17  18
ATOM     18  N   UNL     1      -3.828  -3.832   1.397  0.00  0.00    +0.395 N 
ATOM     19  H   UNL     1      -4.586  -3.371   2.047  0.00  0.00    -0.079 HD
BRANCH  18  21
ATOM     20  C   UNL     1      -1.482  -4.523   1.278  0.00  0.00    -0.017 C 
ATOM     21  C   UNL     1      -2.545  -3.804   2.111  0.00  0.00    -0.079 C 
ENDBRANCH  18  21
BRANCH  18  22
ATOM     22  C   UNL     1      -4.248  -5.213   1.124  0.00  0.00    -0.038 C 
BRANCH  22  23
ATOM     23  C   UNL     1      -4.542  -5.916   2.424  0.00  0.00    -0.034 A 
ATOM     24  C   UNL     1      -3.656  -6.855   2.918  0.00  0.00    +0.004 A 
ATOM     25  C   UNL     1      -3.924  -7.496   4.114  0.00  0.00    +0.000 A 
ATOM     26  C   UNL     1      -5.082  -7.205   4.810  0.00  0.00    +0.002 A 
ATOM     27  C   UNL     1      -5.971  -6.270   4.313  0.00  0.00    +0.033 A 
ATOM     28  C   UNL     1      -5.701  -5.625   3.120  0.00  0.00    +0.128 A 
BRANCH  28  29
ATOM     29  N   UNL     1      -6.652  -4.624   2.588  0.00  0.00    +0.057 N 
ATOM     30  O   UNL     1      -7.673  -4.368   3.201  0.00  0.00    -0.126 OA
ATOM     31  O   UNL     1      -6.415  -4.056   1.537  0.00  0.00    -0.126 OA
ENDBRANCH  28  29
ENDBRANCH  22  23
ENDBRANCH  18  22
ENDBRANCH  17  18
ENDBRANCH   1  17
TORSDOF 6
