REMARK  Name = ZINC39559489
REMARK  5 active torsions:
REMARK  status: ('A' for Active; 'I' for Inactive)
REMARK    1  A    between atoms: C_3  and  C_8
REMARK    2  A    between atoms: C_9  and  C_10
REMARK    3  A    between atoms: N_12  and  C_13
REMARK    4  A    between atoms: C_13  and  C_14
REMARK    5  A    between atoms: N_16  and  C_17
REMARK                            x       y       z     vdW  Elec       q    Type
REMARK                         _______ _______ _______ _____ _____    ______ ____
ROOT
ATOM      1  C   UNL     1       9.679   1.363  -0.082  0.00  0.00    +0.234 C 
ATOM      2  O   UNL     1       9.470   0.168  -0.077  0.00  0.00    -0.274 OA
ATOM      3  N   UNL     1      10.944   1.826  -0.094  0.00  0.00    -0.284 N 
ATOM      4  H   UNL     1      11.111   2.779  -0.166  0.00  0.00    +0.155 HD
ENDROOT
BRANCH   3   5
ATOM      5  C   UNL     1      12.019   0.931  -0.003  0.00  0.00    +0.036 A 
ATOM      6  C   UNL     1      13.168   1.295   0.690  0.00  0.00    +0.025 A 
ATOM      7  C   UNL     1      14.229   0.418   0.783  0.00  0.00    +0.029 A 
ATOM      8  C   UNL     1      14.151  -0.830   0.183  0.00  0.00    +0.067 A 
ATOM      9  C   UNL     1      12.999  -1.198  -0.513  0.00  0.00    +0.069 A 
ATOM     10  C   UNL     1      11.932  -0.317  -0.600  0.00  0.00    +0.051 A 
ATOM     11  N   UNL     1      13.214  -2.487  -0.996  0.00  0.00    -0.306 N 
ATOM     12  H   UNL     1      12.587  -3.009  -1.520  0.00  0.00    +0.170 HD
ATOM     13  C   UNL     1      14.441  -2.885  -0.610  0.00  0.00    +0.325 A 
ATOM     14  O   UNL     1      14.940  -3.965  -0.867  0.00  0.00    -0.247 OA
ATOM     15  N   UNL     1      15.032  -1.908   0.103  0.00  0.00    -0.306 N 
ATOM     16  H   UNL     1      15.919  -1.947   0.493  0.00  0.00    +0.170 HD
ENDBRANCH   3   5
BRANCH   1  17
ATOM     17  C   UNL     1       8.523   2.329  -0.075  0.00  0.00    +0.200 C 
BRANCH  17  20
ATOM     18  C   UNL     1       6.088   2.243  -0.054  0.00  0.00    +0.237 C 
ATOM     19  O   UNL     1       6.074   3.460  -0.057  0.00  0.00    -0.271 OA
ATOM     20  N   UNL     1       7.262   1.583  -0.062  0.00  0.00    -0.303 N 
ATOM     21  H   UNL     1       7.273   0.613  -0.059  0.00  0.00    +0.149 HD
BRANCH  18  23
ATOM     22  C   UNL     1       3.653   2.158  -0.033  0.00  0.00    +0.013 C 
ATOM     23  C   UNL     1       4.828   1.497  -0.041  0.00  0.00    +0.068 C 
BRANCH  22  26
ATOM     24  C   UNL     1      -0.017   1.381   0.000  0.00  0.00    +0.002 A 
ATOM     25  C   UNL     1       1.166   2.090  -0.011  0.00  0.00    +0.008 A 
ATOM     26  C   UNL     1       2.386   1.408  -0.020  0.00  0.00    -0.024 A 
ATOM     27  C   UNL     1       2.398   0.010  -0.017  0.00  0.00    +0.023 A 
ATOM     28  C   UNL     1       1.207  -0.686  -0.005  0.00  0.00    +0.018 A 
ATOM     29  C   UNL     1       0.002  -0.003   0.004  0.00  0.00    +0.015 A 
ATOM     30 BR   UNL     1       1.219  -2.577  -0.001  0.00  0.00    -0.050 Br
ENDBRANCH  22  26
ENDBRANCH  18  23
ENDBRANCH  17  20
ENDBRANCH   1  17
TORSDOF 5
