REMARK  Name = ZINC35486201
REMARK  18 active torsions:
REMARK  status: ('A' for Active; 'I' for Inactive)
REMARK    1  A    between atoms: C_1  and  C_2
REMARK    2  A    between atoms: C_2  and  N_3
REMARK    3  A    between atoms: N_3  and  C_4
REMARK    4  A    between atoms: N_3  and  C_6
REMARK    5  A    between atoms: C_4  and  C_5
REMARK    6  A    between atoms: C_6  and  C_7
REMARK    7  A    between atoms: C_7  and  N_8
REMARK    8  A    between atoms: C_9  and  C_25
REMARK    9  A    between atoms: C_16  and  C_24
REMARK   10  A    between atoms: C_28  and  O_34
REMARK   11  A    between atoms: C_29  and  O_31
REMARK   12  A    between atoms: O_31  and  C_32
REMARK   13  A    between atoms: C_32  and  C_33
REMARK   14  A    between atoms: O_34  and  C_35
REMARK   15  A    between atoms: C_35  and  C_36
REMARK   16  A    between atoms: C_36  and  C_37
REMARK   17  A    between atoms: C_37  and  C_38
REMARK   18  A    between atoms: C_37  and  C_39
REMARK                            x       y       z     vdW  Elec       q    Type
REMARK                         _______ _______ _______ _____ _____    ______ ____
ROOT
ATOM      1  N   UNL     1      -0.796  -3.595   2.126  0.00  0.00    -0.285 N 
ATOM      2  C   UNL     1      -1.874  -4.290   2.847  0.00  0.00    +0.145 C 
ATOM      3  C   UNL     1      -1.460  -5.723   2.917  0.00  0.00    +0.072 A 
ATOM      4  C   UNL     1      -2.114  -6.890   3.518  0.00  0.00    +0.199 A 
ATOM      5  O   UNL     1      -3.258  -6.872   3.937  0.00  0.00    -0.287 OA
ATOM      6  C   UNL     1      -1.250  -8.097   3.567  0.00  0.00    +0.065 A 
ATOM      7  C   UNL     1      -1.650  -9.224   4.283  0.00  0.00    +0.018 A 
ATOM      8  C   UNL     1      -0.841 -10.325   4.322  0.00  0.00    -0.050 A 
ATOM      9  C   UNL     1       0.376 -10.322   3.654  0.00  0.00    +0.007 A 
ATOM     10  C   UNL     1       0.786  -9.219   2.941  0.00  0.00    +0.047 A 
ATOM     11  C   UNL     1      -0.023  -8.084   2.883  0.00  0.00    +0.139 A 
ATOM     12  O   UNL     1       0.396  -7.014   2.169  0.00  0.00    -0.450 OA
ATOM     13  C   UNL     1      -0.254  -5.839   2.287  0.00  0.00    +0.199 A 
ATOM     14  C   UNL     1       0.143  -4.506   1.798  0.00  0.00    +0.283 C 
ATOM     15  O   UNL     1       1.167  -4.263   1.192  0.00  0.00    -0.267 OA
ATOM     16  C   UNL     1      -1.270 -11.546   5.095  0.00  0.00    +0.044 C 
ENDROOT
BRANCH   2  17
ATOM     17  C   UNL     1      -3.173  -4.159   2.093  0.00  0.00    -0.019 A 
ATOM     18  C   UNL     1      -3.183  -4.261   0.714  0.00  0.00    +0.009 A 
ATOM     19  C   UNL     1      -4.371  -4.142   0.018  0.00  0.00    +0.050 A 
ATOM     20  C   UNL     1      -5.556  -3.920   0.702  0.00  0.00    +0.162 A 
ATOM     21  C   UNL     1      -5.545  -3.818   2.090  0.00  0.00    +0.162 A 
ATOM     22  C   UNL     1      -4.352  -3.943   2.782  0.00  0.00    +0.055 A 
BRANCH  21  23
ATOM     23  O   UNL     1      -6.705  -3.601   2.766  0.00  0.00    -0.489 OA
BRANCH  23  24
ATOM     24  C   UNL     1      -6.619  -3.507   4.189  0.00  0.00    +0.226 C 
ATOM     25  C   UNL     1      -8.013  -3.263   4.770  0.00  0.00    +0.048 C 
ENDBRANCH  23  24
ENDBRANCH  21  23
BRANCH  20  26
ATOM     26  O   UNL     1      -6.726  -3.802   0.019  0.00  0.00    -0.488 OA
BRANCH  26  27
ATOM     27  C   UNL     1      -6.660  -3.917  -1.404  0.00  0.00    +0.229 C 
BRANCH  27  28
ATOM     28  C   UNL     1      -8.063  -3.759  -1.994  0.00  0.00    +0.044 C 
BRANCH  28  29
ATOM     29  C   UNL     1      -7.993  -3.882  -3.517  0.00  0.00    -0.014 C 
ATOM     30  C   UNL     1      -7.553  -5.298  -3.894  0.00  0.00    +0.007 C 
ATOM     31  C   UNL     1      -9.373  -3.600  -4.115  0.00  0.00    +0.007 C 
ENDBRANCH  28  29
ENDBRANCH  27  28
ENDBRANCH  26  27
ENDBRANCH  20  26
ENDBRANCH   2  17
BRANCH   1  32
ATOM     32  C   UNL     1      -0.753  -2.164   1.812  0.00  0.00    +0.090 C 
BRANCH  32  33
ATOM     33  C   UNL     1      -1.417  -1.919   0.456  0.00  0.00    -0.060 C 
BRANCH  33  34
ATOM     34  N   UNL     1      -1.374  -0.485   0.142  0.00  0.00    +0.380 N 
ATOM     35  H   UNL     1      -1.794   0.038   0.896  0.00  0.00    -0.082 HD
BRANCH  34  37
ATOM     36  C   UNL     1       0.077   1.455  -0.215  0.00  0.00    -0.017 C 
ATOM     37  C   UNL     1       0.023  -0.062  -0.028  0.00  0.00    -0.082 C 
ENDBRANCH  34  37
BRANCH  34  38
ATOM     38  C   UNL     1      -2.116  -0.233  -1.101  0.00  0.00    -0.082 C 
ATOM     39  C   UNL     1      -3.600  -0.533  -0.879  0.00  0.00    -0.017 C 
ENDBRANCH  34  38
ENDBRANCH  33  34
ENDBRANCH  32  33
ENDBRANCH   1  32
TORSDOF 12
