REMARK  Name = ZINC14944160
REMARK  8 active torsions:
REMARK  status: ('A' for Active; 'I' for Inactive)
REMARK    1  A    between atoms: C_1  and  C_2
REMARK    2  A    between atoms: C_2  and  O_3
REMARK    3  A    between atoms: O_3  and  C_4
REMARK    4  A    between atoms: C_4  and  C_6
REMARK    5  A    between atoms: C_6  and  N_7
REMARK    6  A    between atoms: C_21  and  C_24
REMARK    7  A    between atoms: C_24  and  C_25
REMARK    8  A    between atoms: N_33  and  C_36
REMARK                            x       y       z     vdW  Elec       q    Type
REMARK                         _______ _______ _______ _____ _____    ______ ____
ROOT
ATOM      1  N   UNL     1       1.654  -4.030  -3.110  0.00  0.00    -0.259 N 
ATOM      2  C   UNL     1       2.683  -4.849  -2.640  0.00  0.00    +0.042 A 
ATOM      3  C   UNL     1       3.981  -4.540  -2.240  0.00  0.00    +0.024 A 
ATOM      4  C   UNL     1       4.830  -5.538  -1.807  0.00  0.00    +0.002 A 
ATOM      5  C   UNL     1       4.399  -6.852  -1.766  0.00  0.00    +0.000 A 
ATOM      6  C   UNL     1       3.111  -7.167  -2.161  0.00  0.00    +0.008 A 
ATOM      7  C   UNL     1       2.261  -6.174  -2.595  0.00  0.00    +0.004 A 
ATOM      8  C   UNL     1       0.840  -6.169  -3.083  0.00  0.00    +0.136 C 
ATOM      9  C   UNL     1       0.536  -4.727  -3.387  0.00  0.00    +0.246 C 
ATOM     10  O   UNL     1      -0.513  -4.280  -3.802  0.00  0.00    -0.273 OA
ATOM     11  C   UNL     1      -0.121  -6.729  -2.028  0.00  0.00    +0.123 C 
ATOM     12  C   UNL     1      -1.204  -7.485  -2.849  0.00  0.00    +0.108 C 
ATOM     13  C   UNL     1      -0.797  -7.282  -4.324  0.00  0.00    +0.072 C 
ATOM     14  N   UNL     1       0.672  -7.021  -4.276  0.00  0.00    -0.295 NA
ATOM     15  C   UNL     1      -0.998  -8.929  -2.453  0.00  0.00    +0.232 C 
ATOM     16  O   UNL     1      -1.638  -9.869  -2.873  0.00  0.00    -0.274 OA
ATOM     17  N   UNL     1       0.001  -9.009  -1.566  0.00  0.00    -0.210 N 
ATOM     18  C   UNL     1       0.568  -7.823  -1.243  0.00  0.00    +0.233 C 
ATOM     19  O   UNL     1       1.478  -7.656  -0.460  0.00  0.00    -0.274 OA
ATOM     20  H   UNL     1       0.977  -6.540  -5.109  0.00  0.00    +0.124 HD
ENDROOT
BRANCH  17  21
ATOM     21  C   UNL     1       0.425 -10.223  -1.009  0.00  0.00    +0.044 A 
ATOM     22  C   UNL     1       1.044 -11.176  -1.807  0.00  0.00    +0.024 A 
ATOM     23  C   UNL     1       1.461 -12.372  -1.256  0.00  0.00    +0.002 A 
ATOM     24  C   UNL     1       1.263 -12.620   0.090  0.00  0.00    +0.000 A 
ATOM     25  C   UNL     1       0.647 -11.673   0.887  0.00  0.00    +0.002 A 
ATOM     26  C   UNL     1       0.233 -10.473   0.343  0.00  0.00    +0.024 A 
ENDBRANCH  17  21
BRANCH   1  27
ATOM     27  C   UNL     1       1.775  -2.579  -3.276  0.00  0.00    +0.234 C 
BRANCH  27  28
ATOM     28  C   UNL     1       1.368  -1.891  -1.999  0.00  0.00    +0.325 C 
ATOM     29  O   UNL     1       1.013  -2.546  -1.047  0.00  0.00    -0.249 OA
BRANCH  28  30
ATOM     30  O   UNL     1       1.399  -0.552  -1.918  0.00  0.00    -0.464 OA
BRANCH  30  32
ATOM     31  C   UNL     1       1.101   1.557  -0.775  0.00  0.00    +0.048 C 
ATOM     32  C   UNL     1       1.000   0.033  -0.677  0.00  0.00    +0.229 C 
ENDBRANCH  30  32
ENDBRANCH  28  30
ENDBRANCH  27  28
ENDBRANCH   1  27
BRANCH  13  33
ATOM     33  C   UNL     1      -1.072  -8.553  -5.131  0.00  0.00    +0.054 C 
BRANCH  33  34
ATOM     34  C   UNL     1      -0.784  -8.294  -6.587  0.00  0.00    -0.046 A 
ATOM     35  C   UNL     1      -1.784  -7.822  -7.417  0.00  0.00    +0.004 A 
ATOM     36  C   UNL     1      -1.520  -7.585  -8.752  0.00  0.00    +0.000 A 
ATOM     37  C   UNL     1      -0.255  -7.820  -9.259  0.00  0.00    +0.000 A 
ATOM     38  C   UNL     1       0.745  -8.292  -8.430  0.00  0.00    +0.000 A 
ATOM     39  C   UNL     1       0.482  -8.525  -7.093  0.00  0.00    +0.004 A 
ENDBRANCH  33  34
ENDBRANCH  13  33
TORSDOF 7
