REMARK  Name = ZINC25138967
REMARK  5 active torsions:
REMARK  status: ('A' for Active; 'I' for Inactive)
REMARK    1  A    between atoms: C_1  and  C_2
REMARK    2  A    between atoms: C_4  and  C_7
REMARK    3  A    between atoms: C_7  and  N_8
REMARK    4  A    between atoms: N_8  and  C_9
REMARK    5  A    between atoms: C_10  and  C_12
REMARK                            x       y       z     vdW  Elec       q    Type
REMARK                         _______ _______ _______ _____ _____    ______ ____
ROOT
ATOM      1  N   UNL     1      -3.819   7.219  -0.024  0.00  0.00    -0.293 N 
ATOM      2  C   UNL     1      -4.532   5.939  -0.024  0.00  0.00    +0.133 C 
ATOM      3  C   UNL     1      -2.509   7.261   0.292  0.00  0.00    +0.263 C 
ATOM      4  O   UNL     1      -1.921   8.326   0.309  0.00  0.00    -0.268 OA
ENDROOT
BRANCH   3   5
ATOM      5  C   UNL     1      -1.791   6.019   0.617  0.00  0.00    +0.103 A 
ATOM      6  C   UNL     1      -0.442   5.894   0.720  0.00  0.00    +0.040 A 
ATOM      7  C   UNL     1      -0.159   4.545   1.046  0.00  0.00    +0.000 A 
ATOM      8  C   UNL     1       1.031   3.841   1.274  0.00  0.00    +0.011 A 
ATOM      9  C   UNL     1       0.985   2.512   1.578  0.00  0.00    +0.021 A 
ATOM     10  C   UNL     1      -0.233   1.847   1.664  0.00  0.00    +0.043 A 
ATOM     11  C   UNL     1      -1.416   2.517   1.438  0.00  0.00    +0.046 A 
ATOM     12  C   UNL     1      -1.394   3.875   1.132  0.00  0.00    +0.048 A 
ATOM     13  N   UNL     1      -2.381   4.795   0.866  0.00  0.00    -0.351 N 
ATOM     14  H   UNL     1      -3.476   4.694   0.829  0.00  0.00    +0.166 HD
ATOM     15 CL   UNL     1      -0.264   0.155   2.051  0.00  0.00    -0.083 Cl
ENDBRANCH   3   5
BRANCH   1  16
ATOM     16  C   UNL     1      -4.529   8.453  -0.368  0.00  0.00    +0.166 C 
BRANCH  16  20
ATOM     17  C   UNL     1      -5.441   8.609  -5.373  0.00  0.00    +0.089 C 
ATOM     18  C   UNL     1      -4.845   8.746  -3.995  0.00  0.00    +0.135 A 
ATOM     19  C   UNL     1      -5.387   8.315  -2.831  0.00  0.00    +0.072 A 
ATOM     20  C   UNL     1      -4.437   8.689  -1.853  0.00  0.00    +0.101 A 
ATOM     21  N   UNL     1      -3.468   9.283  -2.490  0.00  0.00    -0.081 NA
ATOM     22  O   UNL     1      -3.675   9.318  -3.680  0.00  0.00    -0.360 OA
ENDBRANCH  16  20
ENDBRANCH   1  16
TORSDOF 3
