REMARK  Name = ZINC60093710
REMARK  14 active torsions:
REMARK  status: ('A' for Active; 'I' for Inactive)
REMARK    1  A    between atoms: C_1  and  C_2
REMARK    2  A    between atoms: C_2  and  C_3
REMARK    3  A    between atoms: C_2  and  C_4
REMARK    4  A    between atoms: C_4  and  C_6
REMARK    5  A    between atoms: C_4  and  N_24
REMARK    6  A    between atoms: C_12  and  C_15
REMARK    7  A    between atoms: C_15  and  N_16
REMARK    8  A    between atoms: C_17  and  O_19
REMARK    9  A    between atoms: O_19  and  C_20
REMARK   10  A    between atoms: C_20  and  C_21
REMARK   11  A    between atoms: C_20  and  C_22
REMARK   12  A    between atoms: C_20  and  C_23
REMARK   13  A    between atoms: C_25  and  C_27
REMARK   14  A    between atoms: C_27  and  C_28
REMARK                            x       y       z     vdW  Elec       q    Type
REMARK                         _______ _______ _______ _____ _____    ______ ____
ROOT
ATOM      1  C   UNL     1      -1.436  -0.514   0.154  0.00  0.00    +0.162 C 
ENDROOT
BRANCH   1   2
ATOM      2  C   UNL     1      -2.234  -0.096  -1.054  0.00  0.00    +0.236 C 
ATOM      3  O   UNL     1      -2.803  -0.931  -1.724  0.00  0.00    -0.274 OA
ATOM      4  N   UNL     1      -2.316   1.207  -1.389  0.00  0.00    -0.300 N 
ATOM      5  C   UNL     1      -1.693   2.237  -0.547  0.00  0.00    +0.108 C 
ATOM      6  C   UNL     1      -2.749   3.289  -0.192  0.00  0.00    +0.019 C 
ATOM      7  C   UNL     1      -3.381   3.826  -1.478  0.00  0.00    +0.008 C 
ATOM      8  C   UNL     1      -4.070   2.682  -2.226  0.00  0.00    +0.024 C 
ATOM      9  C   UNL     1      -3.024   1.623  -2.607  0.00  0.00    +0.112 C 
BRANCH   8  10
ATOM     10  C   UNL     1      -4.730   3.226  -3.495  0.00  0.00    +0.112 C 
BRANCH  10  11
ATOM     11  N   UNL     1      -5.804   4.152  -3.127  0.00  0.00    -0.281 N 
ATOM     12  C   UNL     1      -6.530   4.757  -4.088  0.00  0.00    +0.401 C 
ATOM     13  O   UNL     1      -6.293   4.535  -5.259  0.00  0.00    -0.226 OA
ATOM     14  H   UNL     1      -5.994   4.330  -2.193  0.00  0.00    +0.152 HD
BRANCH  12  15
ATOM     15  O   UNL     1      -7.518   5.608  -3.751  0.00  0.00    -0.445 OA
BRANCH  15  16
ATOM     16  C   UNL     1      -8.246   6.214  -4.821  0.00  0.00    +0.107 C 
ATOM     17  C   UNL     1      -8.912   5.125  -5.665  0.00  0.00    +0.055 C 
ATOM     18  C   UNL     1      -9.318   7.142  -4.247  0.00  0.00    +0.055 C 
ATOM     19  C   UNL     1      -7.287   7.023  -5.697  0.00  0.00    +0.055 C 
ENDBRANCH  15  16
ENDBRANCH  12  15
ENDBRANCH  10  11
ENDBRANCH   8  10
ENDBRANCH   1   2
BRANCH   1  20
ATOM     20  N   UNL     1      -1.957  -1.783   0.669  0.00  0.00    -0.303 N 
ATOM     21  C   UNL     1      -1.781  -2.107   1.965  0.00  0.00    +0.218 C 
ATOM     22  O   UNL     1      -1.191  -1.349   2.705  0.00  0.00    -0.275 OA
ATOM     23  H   UNL     1      -2.429  -2.389   0.077  0.00  0.00    +0.149 HD
BRANCH  21  24
ATOM     24  C   UNL     1      -2.318  -3.412   2.494  0.00  0.00    +0.131 C 
BRANCH  24  25
ATOM     25  C   UNL     1      -1.991  -3.532   3.961  0.00  0.00    -0.038 A 
ATOM     26  C   UNL     1      -0.791  -4.125   4.350  0.00  0.00    +0.005 A 
ATOM     27  C   UNL     1      -0.466  -4.249   5.666  0.00  0.00    +0.009 A 
ATOM     28  C   UNL     1      -1.349  -3.773   6.649  0.00  0.00    -0.018 A 
ATOM     29  C   UNL     1      -1.048  -3.883   8.017  0.00  0.00    +0.008 A 
ATOM     30  C   UNL     1      -1.928  -3.409   8.941  0.00  0.00    +0.001 A 
ATOM     31  C   UNL     1      -3.127  -2.816   8.551  0.00  0.00    +0.001 A 
ATOM     32  C   UNL     1      -3.453  -2.692   7.236  0.00  0.00    +0.008 A 
ATOM     33  C   UNL     1      -2.569  -3.169   6.253  0.00  0.00    -0.018 A 
ATOM     34  C   UNL     1      -2.869  -3.054   4.885  0.00  0.00    +0.012 A 
ENDBRANCH  24  25
ENDBRANCH  21  24
ENDBRANCH   1  20
BRANCH   1  36
ATOM     35  C   UNL     1       0.541   0.597  -0.896  0.00  0.00    +0.009 C 
ATOM     36  C   UNL     1       0.032  -0.689  -0.241  0.00  0.00    +0.012 C 
ATOM     37  C   UNL     1       0.864  -0.989   1.008  0.00  0.00    +0.009 C 
ENDBRANCH   1  36
TORSDOF 9
