REMARK  Name = ZINC13506384
REMARK  10 active torsions:
REMARK  status: ('A' for Active; 'I' for Inactive)
REMARK    1  A    between atoms: C_1  and  C_2
REMARK    2  A    between atoms: C_5  and  C_7
REMARK    3  A    between atoms: C_7  and  C_9
REMARK    4  A    between atoms: C_7  and  N_18
REMARK    5  A    between atoms: N_11  and  C_12
REMARK    6  A    between atoms: N_18  and  C_19
REMARK    7  A    between atoms: C_19  and  C_20
REMARK    8  A    between atoms: C_26  and  C_28
REMARK    9  A    between atoms: C_28  and  N_29
REMARK   10  A    between atoms: C_30  and  C_32
REMARK                            x       y       z     vdW  Elec       q    Type
REMARK                         _______ _______ _______ _____ _____    ______ ____
ROOT
ATOM      1  N   UNL     1       8.543   3.100  -0.529  0.00  0.00    -0.278 N 
ATOM      2  C   UNL     1       7.931   4.163  -1.090  0.00  0.00    +0.234 C 
ATOM      3  O   UNL     1       8.454   5.256  -1.046  0.00  0.00    -0.274 OA
ENDROOT
BRANCH   1   4
ATOM      4  C   UNL     1       9.779   3.285   0.235  0.00  0.00    +0.228 C 
BRANCH   4   9
ATOM      5  C   UNL     1      12.134  -0.926  -1.236  0.00  0.00    +0.086 C 
ATOM      6  C   UNL     1      11.865   0.526  -0.935  0.00  0.00    +0.102 A 
ATOM      7  C   UNL     1      12.728   1.541  -1.123  0.00  0.00    +0.045 A 
ATOM      8  C   UNL     1      12.068   2.722  -0.711  0.00  0.00    +0.047 A 
ATOM      9  C   UNL     1      10.841   2.358  -0.295  0.00  0.00    +0.135 A 
ATOM     10  O   UNL     1      10.726   1.026  -0.428  0.00  0.00    -0.462 OA
ENDBRANCH   4   9
BRANCH   4  11
ATOM     11  C   UNL     1       9.522   2.977   1.688  0.00  0.00    +0.241 C 
ATOM     12  O   UNL     1       8.416   2.636   2.049  0.00  0.00    -0.273 OA
ATOM     13  N   UNL     1      10.523   3.080   2.585  0.00  0.00    -0.311 N 
ATOM     14  H   UNL     1      11.407   3.353   2.296  0.00  0.00    +0.149 HD
BRANCH  13  15
ATOM     15  C   UNL     1      10.273   2.780   3.997  0.00  0.00    +0.073 C 
ATOM     16  C   UNL     1       9.718   4.025   4.693  0.00  0.00    +0.022 C 
ATOM     17  C   UNL     1       9.457   3.712   6.167  0.00  0.00    +0.002 C 
ATOM     18  C   UNL     1      10.767   3.294   6.839  0.00  0.00    +0.000 C 
ATOM     19  C   UNL     1      11.322   2.050   6.144  0.00  0.00    +0.002 C 
ATOM     20  C   UNL     1      11.583   2.363   4.669  0.00  0.00    +0.022 C 
ENDBRANCH  13  15
ENDBRANCH   4  11
ENDBRANCH   1   4
BRANCH   1  21
ATOM     21  C   UNL     1       7.971   1.760  -0.684  0.00  0.00    +0.144 C 
BRANCH  21  22
ATOM     22  C   UNL     1       8.041   1.349  -2.132  0.00  0.00    -0.030 A 
ATOM     23  C   UNL     1       6.931   0.806  -2.751  0.00  0.00    +0.005 A 
ATOM     24  C   UNL     1       6.994   0.433  -4.081  0.00  0.00    +0.000 A 
ATOM     25  C   UNL     1       8.170   0.594  -4.789  0.00  0.00    +0.000 A 
ATOM     26  C   UNL     1       9.283   1.131  -4.168  0.00  0.00    +0.000 A 
ATOM     27  C   UNL     1       9.218   1.509  -2.840  0.00  0.00    +0.005 A 
ENDBRANCH  21  22
ENDBRANCH   1  21
BRANCH   2  28
ATOM     28  C   UNL     1       6.598   3.992  -1.771  0.00  0.00    +0.200 C 
BRANCH  28  29
ATOM     29  N   UNL     1       6.161   5.278  -2.319  0.00  0.00    -0.302 N 
ATOM     30  C   UNL     1       4.988   5.367  -2.976  0.00  0.00    +0.251 C 
ATOM     31  O   UNL     1       4.291   4.379  -3.114  0.00  0.00    -0.270 OA
ATOM     32  H   UNL     1       6.717   6.066  -2.209  0.00  0.00    +0.150 HD
BRANCH  30  33
ATOM     33  C   UNL     1       4.551   6.655  -3.525  0.00  0.00    +0.074 A 
ATOM     34  C   UNL     1       3.394   6.958  -4.225  0.00  0.00    +0.021 A 
ATOM     35  C   UNL     1       3.234   8.259  -4.633  0.00  0.00    +0.008 A 
ATOM     36  C   UNL     1       4.192   9.173  -4.328  0.00  0.00    +0.046 A 
ATOM     37  S   UNL     1       5.370   8.239  -3.464  0.00  0.00    -0.092 S 
ENDBRANCH  30  33
ENDBRANCH  28  29
ENDBRANCH   2  28
TORSDOF 9
