REMARK  Name = ZINC35989051
REMARK  10 active torsions:
REMARK  status: ('A' for Active; 'I' for Inactive)
REMARK    1  A    between atoms: C_1  and  C_2
REMARK    2  A    between atoms: C_2  and  C_3
REMARK    3  A    between atoms: C_6  and  C_19
REMARK    4  A    between atoms: N_9  and  C_11
REMARK    5  A    between atoms: N_21  and  C_22
REMARK    6  A    between atoms: C_22  and  C_23
REMARK    7  A    between atoms: C_23  and  N_24
REMARK    8  A    between atoms: C_25  and  C_27
REMARK    9  A    between atoms: C_30  and  O_33
REMARK   10  A    between atoms: O_33  and  C_34
REMARK                            x       y       z     vdW  Elec       q    Type
REMARK                         _______ _______ _______ _____ _____    ______ ____
ROOT
ATOM      1  C   UNL     1       0.707  -0.490  -1.238  0.00  0.00    +0.071 A 
ATOM      2  C   UNL     1       0.080  -0.763  -2.498  0.00  0.00    +0.031 A 
ATOM      3  C   UNL     1      -1.197  -0.727  -3.078  0.00  0.00    +0.032 A 
ATOM      4  C   UNL     1      -1.355  -1.091  -4.383  0.00  0.00    +0.076 A 
ATOM      5  S   UNL     1       0.307  -1.510  -4.877  0.00  0.00    -0.064 S 
ATOM      6  C   UNL     1       1.124  -1.184  -3.336  0.00  0.00    +0.113 A 
ATOM      7  N   UNL     1       2.275  -1.164  -2.634  0.00  0.00    -0.225 N 
ATOM      8  N   UNL     1       1.982  -0.723  -1.337  0.00  0.00    -0.170 NA
ENDROOT
BRANCH   7   9
ATOM      9  C   UNL     1       3.542  -1.516  -3.118  0.00  0.00    +0.068 A 
ATOM     10  C   UNL     1       3.671  -2.538  -4.049  0.00  0.00    +0.029 A 
ATOM     11  C   UNL     1       4.921  -2.884  -4.525  0.00  0.00    +0.023 A 
ATOM     12  C   UNL     1       6.044  -2.212  -4.076  0.00  0.00    +0.059 A 
ATOM     13  C   UNL     1       5.919  -1.193  -3.147  0.00  0.00    +0.061 A 
ATOM     14  C   UNL     1       4.670  -0.840  -2.671  0.00  0.00    +0.049 A 
ATOM     15 CL   UNL     1       7.330  -0.353  -2.584  0.00  0.00    -0.082 Cl
ATOM     16 CL   UNL     1       7.613  -2.649  -4.676  0.00  0.00    -0.082 Cl
ENDBRANCH   7   9
BRANCH   4  17
ATOM     17  C   UNL     1      -2.585  -1.128  -5.180  0.00  0.00    +0.251 C 
ATOM     18  O   UNL     1      -3.646  -0.805  -4.678  0.00  0.00    -0.270 OA
ATOM     19  N   UNL     1      -2.541  -1.519  -6.469  0.00  0.00    -0.309 N 
ATOM     20  H   UNL     1      -1.695  -1.777  -6.869  0.00  0.00    +0.149 HD
BRANCH  19  21
ATOM     21  C   UNL     1      -3.769  -1.556  -7.266  0.00  0.00    +0.123 C 
BRANCH  21  22
ATOM     22  C   UNL     1      -3.444  -2.032  -8.683  0.00  0.00    +0.123 C 
BRANCH  22  23
ATOM     23  N   UNL     1      -4.672  -2.070  -9.480  0.00  0.00    -0.310 N 
ATOM     24  C   UNL     1      -4.628  -2.461 -10.769  0.00  0.00    +0.244 C 
ATOM     25  O   UNL     1      -3.568  -2.784 -11.270  0.00  0.00    -0.270 OA
ATOM     26  H   UNL     1      -5.518  -1.812  -9.080  0.00  0.00    +0.149 HD
BRANCH  24  27
ATOM     27  C   UNL     1      -5.866  -2.498 -11.572  0.00  0.00    +0.037 A 
ATOM     28  C   UNL     1      -7.084  -2.123 -10.999  0.00  0.00    +0.016 A 
ATOM     29  C   UNL     1      -8.236  -2.158 -11.752  0.00  0.00    +0.046 A 
ATOM     30  C   UNL     1      -8.189  -2.568 -13.079  0.00  0.00    +0.120 A 
ATOM     31  C   UNL     1      -6.980  -2.943 -13.653  0.00  0.00    +0.046 A 
ATOM     32  C   UNL     1      -5.822  -2.904 -12.908  0.00  0.00    +0.016 A 
BRANCH  30  33
ATOM     33  O   UNL     1      -9.328  -2.603 -13.818  0.00  0.00    -0.495 OA
ATOM     34  C   UNL     1      -9.208  -3.034 -15.175  0.00  0.00    +0.277 C 
ENDBRANCH  30  33
ENDBRANCH  24  27
ENDBRANCH  22  23
ENDBRANCH  21  22
ENDBRANCH  19  21
ENDBRANCH   4  17
BRANCH   1  36
ATOM     35  C   UNL     1      -0.019   1.526   0.010  0.00  0.00    +0.010 C 
ATOM     36  C   UNL     1       0.002  -0.004   0.002  0.00  0.00    +0.054 C 
ENDBRANCH   1  36
TORSDOF 8
