REMARK  Name = ZINC32910275
REMARK  5 active torsions:
REMARK  status: ('A' for Active; 'I' for Inactive)
REMARK    1  A    between atoms: C_6  and  N_7
REMARK    2  A    between atoms: C_8  and  C_10
REMARK    3  A    between atoms: C_10  and  O_11
REMARK    4  A    between atoms: O_11  and  C_12
REMARK    5  A    between atoms: C_12  and  C_14
REMARK                            x       y       z     vdW  Elec       q    Type
REMARK                         _______ _______ _______ _____ _____    ______ ____
ROOT
ATOM      1  N   UNL     1      -1.202  -0.720   0.010  0.00  0.00    -0.283 N 
ATOM      2  C   UNL     1      -2.374  -0.065   0.126  0.00  0.00    +0.255 C 
ATOM      3  O   UNL     1      -2.393   1.148   0.133  0.00  0.00    -0.272 OA
ATOM      4  H   UNL     1      -1.192  -1.687  -0.063  0.00  0.00    +0.155 HD
ENDROOT
BRANCH   1  10
ATOM      5  C   UNL     1       1.138  -0.544   0.584  0.00  0.00    +0.025 A 
ATOM      6  C   UNL     1       2.328   0.157   0.572  0.00  0.00    +0.029 A 
ATOM      7  C   UNL     1       2.390   1.404  -0.031  0.00  0.00    +0.067 A 
ATOM      8  C   UNL     1       1.250   1.950  -0.625  0.00  0.00    +0.069 A 
ATOM      9  C   UNL     1       0.057   1.244  -0.610  0.00  0.00    +0.051 A 
ATOM     10  C   UNL     1       0.002  -0.003  -0.006  0.00  0.00    +0.036 A 
ATOM     11  N   UNL     1       1.618   3.191  -1.138  0.00  0.00    -0.306 N 
ATOM     12  H   UNL     1       1.034   3.807  -1.608  0.00  0.00    +0.170 HD
ATOM     13  C   UNL     1       2.922   3.392  -0.869  0.00  0.00    +0.325 A 
ATOM     14  O   UNL     1       3.557   4.382  -1.181  0.00  0.00    -0.247 OA
ATOM     15  N   UNL     1       3.416   2.332  -0.202  0.00  0.00    -0.306 N 
ATOM     16  H   UNL     1       4.330   2.232   0.107  0.00  0.00    +0.170 HD
ENDBRANCH   1  10
BRANCH   2  17
ATOM     17  C   UNL     1      -3.662  -0.839   0.248  0.00  0.00    +0.328 C 
BRANCH  17  18
ATOM     18  O   UNL     1      -4.757   0.072   0.358  0.00  0.00    -0.455 OA
BRANCH  18  19
ATOM     19  C   UNL     1      -5.983  -0.461   0.474  0.00  0.00    +0.314 C 
ATOM     20  O   UNL     1      -6.122  -1.661   0.483  0.00  0.00    -0.250 OA
BRANCH  19  21
ATOM     21  C   UNL     1      -7.187   0.437   0.595  0.00  0.00    +0.070 C 
ATOM     22  C   UNL     1      -7.287   1.326  -0.647  0.00  0.00    +0.021 C 
ATOM     23  C   UNL     1      -8.509   2.238  -0.525  0.00  0.00    -0.008 C 
ATOM     24  C   UNL     1      -9.773   1.384  -0.406  0.00  0.00    +0.007 C 
ATOM     25  C   UNL     1      -9.673   0.496   0.836  0.00  0.00    -0.008 C 
ATOM     26  C   UNL     1      -8.451  -0.416   0.714  0.00  0.00    +0.021 C 
ATOM     27  C   UNL     1      -9.532   1.374   2.081  0.00  0.00    +0.026 C 
ATOM     28  C   UNL     1      -8.268   2.228   1.962  0.00  0.00    +0.047 C 
ATOM     29  C   UNL     1      -8.367   3.116   0.720  0.00  0.00    +0.026 C 
ATOM     30  C   UNL     1      -7.046   1.315   1.840  0.00  0.00    +0.041 C 
ATOM     31 CL   UNL     1      -8.101   3.262   3.429  0.00  0.00    -0.118 Cl
ENDBRANCH  19  21
ENDBRANCH  18  19
ENDBRANCH  17  18
ENDBRANCH   2  17
TORSDOF 5
