REMARK  Name = ZINC13063976
REMARK  11 active torsions:
REMARK  status: ('A' for Active; 'I' for Inactive)
REMARK    1  A    between atoms: C_1  and  C_2
REMARK    2  A    between atoms: C_2  and  C_3
REMARK    3  A    between atoms: C_3  and  C_5
REMARK    4  A    between atoms: C_3  and  N_72
REMARK    5  A    between atoms: N_9  and  C_10
REMARK    6  A    between atoms: C_10  and  C_11
REMARK    7  A    between atoms: C_11  and  C_12
REMARK    8  A    between atoms: C_18  and  C_19
REMARK    9  A    between atoms: C_18  and  N_72
REMARK   10  A    between atoms: C_24  and  C_31
REMARK   11  A    between atoms: C_32  and  N_72
REMARK                            x       y       z     vdW  Elec       q    Type
REMARK                         _______ _______ _______ _____ _____    ______ ____
ROOT
ATOM      1  N   UNL     1       0.770   3.802   1.453  0.00  0.00    +0.391 N 
ATOM      2  H   UNL     1       1.551   3.371   1.962  0.00  0.00    -0.080 HD
ENDROOT
BRANCH   1   3
ATOM      3  C   UNL     1       0.717   5.242   1.786  0.00  0.00    -0.067 C 
ATOM      4  C   UNL     1      -0.302   5.960   0.899  0.00  0.00    -0.015 C 
ATOM      5  C   UNL     1      -0.334   7.446   1.260  0.00  0.00    -0.002 C 
ATOM      6  C   UNL     1       1.052   8.055   1.040  0.00  0.00    -0.000 C 
ATOM      7  C   UNL     1       2.071   7.337   1.927  0.00  0.00    -0.002 C 
ATOM      8  C   UNL     1       2.103   5.850   1.566  0.00  0.00    -0.015 C 
ENDBRANCH   1   3
BRANCH   1   9
ATOM      9  C   UNL     1      -0.489   3.144   1.858  0.00  0.00    +0.003 C 
BRANCH   9  10
ATOM     10  C   UNL     1      -0.911   3.665   3.208  0.00  0.00    +0.138 A 
ATOM     11  N   UNL     1      -0.138   3.855   4.250  0.00  0.00    -0.115 NA
ATOM     12  N   UNL     1      -0.868   4.309   5.209  0.00  0.00    -0.023 NA
ATOM     13  N   UNL     1      -2.086   4.414   4.807  0.00  0.00    -0.044 NA
ATOM     14  N   UNL     1      -2.152   4.031   3.576  0.00  0.00    -0.231 N 
BRANCH  14  15
ATOM     15  C   UNL     1      -3.354   3.998   2.739  0.00  0.00    +0.152 C 
BRANCH  15  16
ATOM     16  C   UNL     1      -4.040   2.639   2.885  0.00  0.00    +0.058 C 
BRANCH  16  17
ATOM     17  C   UNL     1      -5.276   2.605   2.023  0.00  0.00    -0.046 A 
ATOM     18  C   UNL     1      -6.492   3.009   2.542  0.00  0.00    +0.004 A 
ATOM     19  C   UNL     1      -7.624   2.982   1.750  0.00  0.00    +0.000 A 
ATOM     20  C   UNL     1      -7.543   2.542   0.442  0.00  0.00    +0.000 A 
ATOM     21  C   UNL     1      -6.329   2.132  -0.075  0.00  0.00    +0.000 A 
ATOM     22  C   UNL     1      -5.195   2.164   0.715  0.00  0.00    +0.004 A 
ENDBRANCH  16  17
ENDBRANCH  15  16
ENDBRANCH  14  15
ENDBRANCH   9  10
BRANCH   9  24
ATOM     23  C   UNL     1       0.914   1.361   2.905  0.00  0.00    +0.002 C 
ATOM     24  C   UNL     1      -0.247   1.635   1.947  0.00  0.00    -0.011 C 
ENDBRANCH   9  24
ENDBRANCH   1   9
BRANCH   1  25
ATOM     25  C   UNL     1       0.987   3.627   0.002  0.00  0.00    -0.036 C 
BRANCH  25  26
ATOM     26  C   UNL     1       1.549   2.249  -0.239  0.00  0.00    +0.001 A 
ATOM     27  C   UNL     1       0.813   1.327  -0.907  0.00  0.00    +0.017 A 
ATOM     28  C   UNL     1       1.389  -0.000  -1.129  0.00  0.00    -0.001 A 
ATOM     29  C   UNL     1       0.680  -0.992  -1.815  0.00  0.00    +0.010 A 
ATOM     30  C   UNL     1       1.243  -2.222  -2.001  0.00  0.00    +0.004 A 
ATOM     31  C   UNL     1       2.514  -2.498  -1.514  0.00  0.00    -0.048 A 
ATOM     32  C   UNL     1       3.231  -1.536  -0.835  0.00  0.00    +0.029 A 
ATOM     33  C   UNL     1       2.677  -0.276  -0.634  0.00  0.00    +0.049 A 
ATOM     34  N   UNL     1       3.372   0.704   0.043  0.00  0.00    -0.322 N 
ATOM     35  H   UNL     1       4.260   0.512   0.383  0.00  0.00    +0.169 HD
ATOM     36  C   UNL     1       2.836   1.922   0.237  0.00  0.00    +0.251 A 
ATOM     37  O   UNL     1       3.479   2.764   0.840  0.00  0.00    -0.268 OA
ATOM     38  C   UNL     1       3.115  -3.863  -1.730  0.00  0.00    +0.044 C 
ENDBRANCH  25  26
ENDBRANCH   1  25
TORSDOF 9
