REMARK  Name = ZINC33063422
REMARK  6 active torsions:
REMARK  status: ('A' for Active; 'I' for Inactive)
REMARK    1  A    between atoms: C_1  and  C_2
REMARK    2  A    between atoms: C_6  and  N_9
REMARK    3  A    between atoms: C_7  and  C_8
REMARK    4  A    between atoms: C_10  and  C_12
REMARK    5  A    between atoms: C_15  and  C_18
REMARK    6  A    between atoms: C_23  and  C_31
REMARK                            x       y       z     vdW  Elec       q    Type
REMARK                         _______ _______ _______ _____ _____    ______ ____
ROOT
ATOM      1  C   UNL     1       3.413   3.699   4.617  0.00  0.00    +0.037 A 
ATOM      2  C   UNL     1       3.024   4.782   3.826  0.00  0.00    +0.013 A 
ATOM      3  C   UNL     1       3.155   4.712   2.454  0.00  0.00    +0.007 A 
ATOM      4  C   UNL     1       3.670   3.572   1.863  0.00  0.00    -0.011 A 
ATOM      5  C   UNL     1       4.052   2.493   2.641  0.00  0.00    +0.007 A 
ATOM      6  C   UNL     1       3.932   2.553   4.014  0.00  0.00    +0.013 A 
ENDROOT
BRANCH   4   7
ATOM      7  C   UNL     1       3.809   3.502   0.364  0.00  0.00    +0.191 C 
ATOM      8  N   UNL     1       3.652   2.120  -0.083  0.00  0.00    -0.322 N 
ATOM      9  C   UNL     1       2.441   1.436  -0.041  0.00  0.00    +0.056 A 
ATOM     10  C   UNL     1       2.455   0.042  -0.043  0.00  0.00    +0.037 A 
ATOM     11  C   UNL     1       1.270  -0.664  -0.039  0.00  0.00    +0.057 A 
ATOM     12  C   UNL     1       0.060   0.004  -0.032  0.00  0.00    +0.014 A 
ATOM     13  C   UNL     1       0.037   1.387  -0.021  0.00  0.00    +0.031 A 
ATOM     14  C   UNL     1       1.220   2.097  -0.018  0.00  0.00    +0.126 A 
ATOM     15  S   UNL     1       1.187   3.863   0.033  0.00  0.00    +0.062 S 
ATOM     16  O   UNL     1       0.407   4.295  -1.074  0.00  0.00    -0.153 OA
ATOM     17  O   UNL     1       0.895   4.235   1.373  0.00  0.00    -0.153 OA
ATOM     18  N   UNL     1       2.761   4.326  -0.270  0.00  0.00    -0.166 NA
ATOM     19  H   UNL     1       4.518   1.567  -0.477  0.00  0.00    +0.148 HD
ATOM     20  H   UNL     1       3.027   5.276  -0.758  0.00  0.00    +0.150 HD
BRANCH  11  21
ATOM     21  C   UNL     1       1.295  -2.171  -0.043  0.00  0.00    +0.417 C 
ATOM     22  F   UNL     1      -0.016  -2.659  -0.039  0.00  0.00    -0.166 F 
ATOM     23  F   UNL     1       1.957  -2.624  -1.190  0.00  0.00    -0.166 F 
ATOM     24  F   UNL     1       1.967  -2.630   1.094  0.00  0.00    -0.166 F 
ENDBRANCH  11  21
ENDBRANCH   4   7
BRANCH   1  26
ATOM     25  N   UNL     1       3.652   2.721   6.848  0.00  0.00    -0.281 N 
ATOM     26  C   UNL     1       3.276   3.768   6.087  0.00  0.00    +0.248 C 
ATOM     27  O   UNL     1       2.824   4.768   6.610  0.00  0.00    -0.270 OA
ATOM     28  H   UNL     1       3.975   1.783   6.373  0.00  0.00    +0.155 HD
BRANCH  25  34
ATOM     29  C   UNL     1       3.360   0.557  11.253  0.00  0.00    +0.044 C 
ATOM     30  C   UNL     1       3.491   1.794  10.402  0.00  0.00    -0.046 A 
ATOM     31  C   UNL     1       3.590   3.037  11.001  0.00  0.00    +0.004 A 
ATOM     32  C   UNL     1       3.710   4.175  10.225  0.00  0.00    +0.002 A 
ATOM     33  C   UNL     1       3.737   4.073   8.847  0.00  0.00    +0.023 A 
ATOM     34  C   UNL     1       3.631   2.827   8.243  0.00  0.00    +0.037 A 
ATOM     35  C   UNL     1       3.511   1.686   9.026  0.00  0.00    -0.026 A 
ATOM     36  C   UNL     1       3.402   0.332   8.374  0.00  0.00    +0.046 C 
ENDBRANCH  25  34
ENDBRANCH   1  26
TORSDOF 4
