REMARK  Name = ZINC36000097
REMARK  10 active torsions:
REMARK  status: ('A' for Active; 'I' for Inactive)
REMARK    1  A    between atoms: C_1  and  C_2
REMARK    2  A    between atoms: C_2  and  O_3
REMARK    3  A    between atoms: O_3  and  C_4
REMARK    4  A    between atoms: C_4  and  C_6
REMARK    5  A    between atoms: C_7  and  C_22
REMARK    6  A    between atoms: N_8  and  C_21
REMARK    7  A    between atoms: C_12  and  C_14
REMARK    8  A    between atoms: C_22  and  N_23
REMARK    9  A    between atoms: C_27  and  C_30
REMARK   10  A    between atoms: C_31  and  C_33
REMARK                            x       y       z     vdW  Elec       q    Type
REMARK                         _______ _______ _______ _____ _____    ______ ____
ROOT
ATOM      1  C   UNL     1      -0.522  -2.099   0.719  0.00  0.00    +0.080 C 
ATOM      2  C   UNL     1      -0.192  -3.272   1.300  0.00  0.00    +0.041 C 
ATOM      3  N   UNL     1       0.400  -3.307   2.530  0.00  0.00    -0.260 N 
ATOM      4  C   UNL     1       0.694  -2.214   3.244  0.00  0.00    +0.307 C 
ATOM      5  O   UNL     1       1.222  -2.346   4.332  0.00  0.00    -0.252 OA
ATOM      6  N   UNL     1       0.425  -0.971   2.797  0.00  0.00    -0.288 N 
ATOM      7  C   UNL     1      -0.209  -0.824   1.476  0.00  0.00    +0.144 C 
ATOM      8  C   UNL     1       0.731  -4.615   3.101  0.00  0.00    +0.139 C 
ATOM      9  H   UNL     1       0.646  -0.192   3.331  0.00  0.00    +0.151 HD
ENDROOT
BRANCH   7  10
ATOM     10  C   UNL     1       0.695   0.018   0.613  0.00  0.00    -0.020 A 
ATOM     11  C   UNL     1       2.047  -0.264   0.548  0.00  0.00    +0.006 A 
ATOM     12  C   UNL     1       2.878   0.508  -0.243  0.00  0.00    +0.003 A 
ATOM     13  C   UNL     1       2.358   1.563  -0.969  0.00  0.00    +0.038 A 
ATOM     14  C   UNL     1       1.004   1.846  -0.904  0.00  0.00    +0.124 A 
ATOM     15  C   UNL     1       0.172   1.068  -0.117  0.00  0.00    +0.044 A 
ATOM     16  F   UNL     1       0.495   2.877  -1.613  0.00  0.00    -0.205 F 
ENDBRANCH   7  10
BRANCH   1  17
ATOM     17  C   UNL     1      -1.135  -2.061  -0.555  0.00  0.00    +0.339 C 
ATOM     18  O   UNL     1      -0.469  -1.816  -1.544  0.00  0.00    -0.245 OA
BRANCH  17  19
ATOM     19  O   UNL     1      -2.458  -2.296  -0.675  0.00  0.00    -0.462 OA
BRANCH  19  21
ATOM     20  C   UNL     1      -4.511  -2.532  -1.928  0.00  0.00    +0.048 C 
ATOM     21  C   UNL     1      -3.010  -2.241  -1.992  0.00  0.00    +0.229 C 
ENDBRANCH  19  21
ENDBRANCH  17  19
ENDBRANCH   1  17
BRANCH   2  22
ATOM     22  C   UNL     1      -0.481  -4.564   0.579  0.00  0.00    +0.136 C 
BRANCH  22  23
ATOM     23  N   UNL     1       0.783  -5.243   0.266  0.00  0.00    -0.294 NA
ATOM     24  C   UNL     1       1.573  -4.466  -0.698  0.00  0.00    +0.104 C 
ATOM     25  C   UNL     1       2.953  -5.112  -0.861  0.00  0.00    +0.124 C 
ATOM     26  N   UNL     1       2.768  -6.529  -1.207  0.00  0.00    -0.292 N 
ATOM     27  C   UNL     1       1.878  -7.341  -0.364  0.00  0.00    +0.087 C 
ATOM     28  C   UNL     1       0.540  -6.608  -0.221  0.00  0.00    +0.107 C 
ATOM     29  C   UNL     1       1.653  -8.706  -1.018  0.00  0.00    +0.029 C 
ATOM     30  C   UNL     1       3.398  -7.070  -2.269  0.00  0.00    +0.248 C 
ATOM     31  O   UNL     1       3.172  -8.221  -2.589  0.00  0.00    -0.270 OA
BRANCH  30  32
ATOM     32  C   UNL     1       4.364  -6.264  -3.044  0.00  0.00    +0.055 A 
ATOM     33  C   UNL     1       5.096  -5.253  -2.418  0.00  0.00    +0.014 A 
ATOM     34  C   UNL     1       5.996  -4.504  -3.147  0.00  0.00    +0.001 A 
ATOM     35  C   UNL     1       6.175  -4.753  -4.497  0.00  0.00    +0.001 A 
ATOM     36  C   UNL     1       5.454  -5.752  -5.124  0.00  0.00    +0.021 A 
ATOM     37  C   UNL     1       4.554  -6.514  -4.405  0.00  0.00    +0.053 A 
ATOM     38 CL   UNL     1       3.655  -7.773  -5.192  0.00  0.00    -0.083 Cl
ENDBRANCH  30  32
ENDBRANCH  22  23
ENDBRANCH   2  22
TORSDOF 7
