REMARK  Name = ZINC09663267
REMARK  5 active torsions:
REMARK  status: ('A' for Active; 'I' for Inactive)
REMARK    1  A    between atoms: C_1  and  C_2
REMARK    2  A    between atoms: C_10  and  C_12
REMARK    3  A    between atoms: C_12  and  N_55
REMARK    4  A    between atoms: N_15  and  S_18
REMARK    5  A    between atoms: S_18  and  C_21
REMARK                            x       y       z     vdW  Elec       q    Type
REMARK                         _______ _______ _______ _____ _____    ______ ____
ROOT
ATOM      1  C   UNL     1      -2.202   3.799  -1.814  0.00  0.00    -0.061 C 
ATOM      2  C   UNL     1      -0.816   3.168  -1.640  0.00  0.00    +0.091 C 
ATOM      3  N   UNL     1      -0.989   1.753  -1.281  0.00  0.00    -0.180 NA
ATOM      4  C   UNL     1      -1.863   0.922  -2.124  0.00  0.00    +0.091 C 
ATOM      5  C   UNL     1      -3.212   1.643  -2.276  0.00  0.00    -0.061 C 
ATOM      6  N   UNL     1      -2.965   3.003  -2.800  0.00  0.00    +0.386 N 
ATOM      7  H   UNL     1      -2.417   2.932  -3.666  0.00  0.00    -0.081 HD
ENDROOT
BRANCH   3   8
ATOM      8  S   UNL     1      -0.215   1.109   0.034  0.00  0.00    +0.061 S 
ATOM      9  O   UNL     1      -0.114  -0.289  -0.199  0.00  0.00    -0.153 OA
ATOM     10  O   UNL     1       0.923   1.925   0.275  0.00  0.00    -0.153 OA
BRANCH   8  11
ATOM     11  C   UNL     1      -1.284   1.313   1.420  0.00  0.00    +0.109 A 
ATOM     12  C   UNL     1      -1.199   2.456   2.193  0.00  0.00    +0.032 A 
ATOM     13  C   UNL     1      -2.038   2.625   3.280  0.00  0.00    +0.051 A 
ATOM     14  C   UNL     1      -2.958   1.640   3.596  0.00  0.00    +0.162 A 
ATOM     15  C   UNL     1      -3.040   0.490   2.824  0.00  0.00    +0.164 A 
ATOM     16  C   UNL     1      -2.201   0.326   1.734  0.00  0.00    +0.078 A 
ATOM     17  O   UNL     1      -3.951  -0.474   3.143  0.00  0.00    -0.488 OA
ATOM     18  C   UNL     1      -3.708  -1.183   4.360  0.00  0.00    +0.232 C 
ATOM     19  C   UNL     1      -4.266  -0.419   5.551  0.00  0.00    +0.082 C 
ATOM     20  C   UNL     1      -3.559   0.910   5.768  0.00  0.00    +0.232 C 
ATOM     21  O   UNL     1      -3.789   1.792   4.668  0.00  0.00    -0.488 OA
ENDBRANCH   8  11
ENDBRANCH   3   8
BRANCH   6  22
ATOM     22  C   UNL     1      -4.250   3.669  -3.100  0.00  0.00    -0.013 C 
BRANCH  22  32
ATOM     23  C   UNL     1      -3.068  10.395  -6.926  0.00  0.00    +0.066 C 
ATOM     24  C   UNL     1      -2.946   9.066  -6.226  0.00  0.00    +0.046 A 
ATOM     25  C   UNL     1      -1.718   8.457  -6.086  0.00  0.00    +0.095 A 
ATOM     26  C   UNL     1      -1.626   7.226  -5.434  0.00  0.00    +0.275 A 
ATOM     27  O   UNL     1      -0.540   6.681  -5.307  0.00  0.00    -0.266 OA
ATOM     28  N   UNL     1      -2.751   6.633  -4.939  0.00  0.00    -0.171 N 
ATOM     29  C   UNL     1      -3.928   7.307  -5.121  0.00  0.00    +0.199 A 
ATOM     30  N   UNL     1      -4.023   8.461  -5.731  0.00  0.00    -0.227 NA
ATOM     31  S   UNL     1      -5.114   6.222  -4.357  0.00  0.00    -0.035 S 
ATOM     32  C   UNL     1      -3.970   4.953  -3.839  0.00  0.00    +0.086 A 
ATOM     33  N   UNL     1      -2.836   5.418  -4.267  0.00  0.00    -0.161 NA
ENDBRANCH  22  32
ENDBRANCH   6  22
TORSDOF 4
