REMARK  Name = ZINC39360852
REMARK  11 active torsions:
REMARK  status: ('A' for Active; 'I' for Inactive)
REMARK    1  A    between atoms: C_1  and  C_2
REMARK    2  A    between atoms: C_3  and  C_33
REMARK    3  A    between atoms: C_4  and  C_24
REMARK    4  A    between atoms: C_10  and  S_14
REMARK    5  A    between atoms: S_14  and  C_15
REMARK    6  A    between atoms: C_15  and  C_16
REMARK    7  A    between atoms: C_27  and  N_30
REMARK    8  A    between atoms: C_33  and  O_35
REMARK    9  A    between atoms: O_35  and  C_36
REMARK   10  A    between atoms: C_36  and  C_37
REMARK   11  A    between atoms: C_36  and  C_38
REMARK                            x       y       z     vdW  Elec       q    Type
REMARK                         _______ _______ _______ _____ _____    ______ ____
ROOT
ATOM      1  C   UNL     1      -0.018   1.503   0.010  0.00  0.00    +0.061 C 
ATOM      2  C   UNL     1       0.002  -0.004   0.002  0.00  0.00    +0.017 C 
ATOM      3  C   UNL     1      -1.156  -0.678   0.004  0.00  0.00    +0.062 C 
ATOM      4  C   UNL     1      -1.238  -2.179   0.016  0.00  0.00    +0.076 C 
ATOM      5  C   UNL     1       0.059  -2.784  -0.528  0.00  0.00    +0.152 C 
ATOM      6  C   UNL     1       1.183  -2.016   0.151  0.00  0.00    +0.115 C 
ATOM      7  N   UNL     1       2.046  -2.677   0.867  0.00  0.00    -0.213 NA
ATOM      8  C   UNL     1       1.949  -4.001   1.041  0.00  0.00    +0.182 C 
ATOM      9  N   UNL     1       0.992  -4.762   0.538  0.00  0.00    -0.154 NA
ATOM     10  C   UNL     1       0.014  -4.274  -0.243  0.00  0.00    +0.250 C 
ATOM     11  O   UNL     1      -0.866  -4.981  -0.695  0.00  0.00    -0.273 OA
ATOM     12  N   UNL     1       1.212  -0.665  -0.013  0.00  0.00    -0.305 N 
ATOM     13  H   UNL     1       2.047  -0.187  -0.133  0.00  0.00    +0.153 HD
ENDROOT
BRANCH   4  14
ATOM     14  C   UNL     1      -1.453  -2.656   1.429  0.00  0.00    -0.038 A 
ATOM     15  C   UNL     1      -0.524  -2.357   2.408  0.00  0.00    +0.006 A 
ATOM     16  C   UNL     1      -0.722  -2.795   3.705  0.00  0.00    +0.033 A 
ATOM     17  C   UNL     1      -1.848  -3.530   4.022  0.00  0.00    +0.126 A 
ATOM     18  C   UNL     1      -2.778  -3.828   3.043  0.00  0.00    +0.033 A 
ATOM     19  C   UNL     1      -2.582  -3.387   1.747  0.00  0.00    +0.006 A 
BRANCH  17  20
ATOM     20  N   UNL     1      -2.059  -3.999   5.410  0.00  0.00    +0.056 N 
ATOM     21  O   UNL     1      -1.246  -3.740   6.266  0.00  0.00    -0.126 OA
ATOM     22  O   UNL     1      -3.045  -4.643   5.687  0.00  0.00    -0.126 OA
ENDBRANCH  17  20
ENDBRANCH   4  14
BRANCH   3  23
ATOM     23  C   UNL     1      -2.363   0.060  -0.005  0.00  0.00    +0.337 C 
ATOM     24  O   UNL     1      -2.333   1.276  -0.015  0.00  0.00    -0.245 OA
BRANCH  23  25
ATOM     25  O   UNL     1      -3.549  -0.585  -0.004  0.00  0.00    -0.459 OA
BRANCH  25  26
ATOM     26  C   UNL     1      -4.727   0.223  -0.013  0.00  0.00    +0.171 C 
ATOM     27  C   UNL     1      -5.852  -0.524  -0.732  0.00  0.00    +0.052 C 
ATOM     28  C   UNL     1      -5.152   0.523   1.425  0.00  0.00    +0.052 C 
ENDBRANCH  25  26
ENDBRANCH  23  25
ENDBRANCH   3  23
BRANCH   8  29
ATOM     29  S   UNL     1       3.190  -4.788   2.012  0.00  0.00    -0.084 S 
BRANCH  29  30
ATOM     30  C   UNL     1       2.709  -6.537   2.006  0.00  0.00    +0.115 C 
BRANCH  30  31
ATOM     31  C   UNL     1       3.701  -7.335   2.813  0.00  0.00    -0.002 A 
ATOM     32  C   UNL     1       4.817  -7.873   2.200  0.00  0.00    +0.007 A 
ATOM     33  C   UNL     1       5.727  -8.604   2.940  0.00  0.00    +0.000 A 
ATOM     34  C   UNL     1       5.523  -8.798   4.293  0.00  0.00    +0.003 A 
ATOM     35  C   UNL     1       4.409  -8.260   4.908  0.00  0.00    +0.038 A 
ATOM     36  C   UNL     1       3.499  -7.523   4.169  0.00  0.00    +0.127 A 
ATOM     37  F   UNL     1       2.411  -6.993   4.770  0.00  0.00    -0.205 F 
ENDBRANCH  30  31
ENDBRANCH  29  30
ENDBRANCH   8  29
TORSDOF 8
