REMARK  Name = ZINC40343625
REMARK  13 active torsions:
REMARK  status: ('A' for Active; 'I' for Inactive)
REMARK    1  A    between atoms: C_1  and  C_2
REMARK    2  A    between atoms: C_2  and  C_3
REMARK    3  A    between atoms: C_3  and  C_4
REMARK    4  A    between atoms: C_4  and  C_5
REMARK    5  A    between atoms: C_5  and  O_6
REMARK    6  A    between atoms: O_6  and  C_7
REMARK    7  A    between atoms: C_10  and  C_13
REMARK    8  A    between atoms: C_16  and  C_34
REMARK    9  A    between atoms: N_23  and  C_24
REMARK   10  A    between atoms: C_24  and  C_25
REMARK   11  A    between atoms: C_25  and  C_26
REMARK   12  A    between atoms: C_29  and  O_32
REMARK   13  A    between atoms: O_32  and  C_33
REMARK                            x       y       z     vdW  Elec       q    Type
REMARK                         _______ _______ _______ _____ _____    ______ ____
ROOT
ATOM      1  C   UNL     1       3.977  -6.449  -6.915  0.00  0.00    +0.141 C 
ATOM      2  C   UNL     1       2.942  -6.956  -7.882  0.00  0.00    +0.035 A 
ATOM      3  C   UNL     1       1.881  -6.651  -8.741  0.00  0.00    +0.099 A 
ATOM      4  N   UNL     1       1.468  -7.783  -9.276  0.00  0.00    -0.173 NA
ATOM      5  N   UNL     1       2.164  -8.772  -8.840  0.00  0.00    -0.272 N 
ATOM      6  H   UNL     1       2.036  -9.699  -9.098  0.00  0.00    +0.189 HD
ATOM      7  C   UNL     1       3.108  -8.325  -7.960  0.00  0.00    +0.126 A 
ATOM      8  C   UNL     1       4.213  -8.713  -7.076  0.00  0.00    +0.265 C 
ATOM      9  O   UNL     1       4.610  -9.851  -6.920  0.00  0.00    -0.268 OA
ATOM     10  N   UNL     1       4.727  -7.628  -6.464  0.00  0.00    -0.285 N 
ENDROOT
BRANCH   3  11
ATOM     11  C   UNL     1       1.323  -5.300  -9.002  0.00  0.00    +0.003 A 
ATOM     12  C   UNL     1       1.275  -4.354  -7.981  0.00  0.00    +0.011 A 
ATOM     13  C   UNL     1       0.755  -3.100  -8.229  0.00  0.00    +0.020 A 
ATOM     14  C   UNL     1       0.280  -2.782  -9.489  0.00  0.00    +0.041 A 
ATOM     15  C   UNL     1       0.325  -3.719 -10.508  0.00  0.00    +0.020 A 
ATOM     16  C   UNL     1       0.850  -4.973 -10.271  0.00  0.00    +0.011 A 
ATOM     17 CL   UNL     1      -0.374  -1.203  -9.794  0.00  0.00    -0.084 Cl
ENDBRANCH   3  11
BRANCH   1  21
ATOM     18  C   UNL     1       2.078  -4.553  -3.590  0.00  0.00    +0.121 A 
ATOM     19  C   UNL     1       2.645  -3.785  -4.596  0.00  0.00    +0.046 A 
ATOM     20  C   UNL     1       3.259  -4.400  -5.670  0.00  0.00    +0.009 A 
ATOM     21  C   UNL     1       3.308  -5.780  -5.742  0.00  0.00    -0.022 A 
ATOM     22  C   UNL     1       2.743  -6.548  -4.741  0.00  0.00    +0.009 A 
ATOM     23  C   UNL     1       2.133  -5.937  -3.662  0.00  0.00    +0.046 A 
BRANCH  18  24
ATOM     24  O   UNL     1       1.474  -3.950  -2.532  0.00  0.00    -0.492 OA
BRANCH  24  25
ATOM     25  C   UNL     1       1.455  -2.521  -2.524  0.00  0.00    +0.229 C 
BRANCH  25  26
ATOM     26  C   UNL     1       0.739  -2.027  -1.265  0.00  0.00    +0.041 C 
BRANCH  26  27
ATOM     27  C   UNL     1       0.718  -0.497  -1.257  0.00  0.00    +0.003 C 
BRANCH  27  29
ATOM     28  C   UNL     1      -0.019   1.526   0.010  0.00  0.00    +0.004 C 
ATOM     29  C   UNL     1       0.002  -0.004   0.002  0.00  0.00    -0.003 C 
ENDBRANCH  27  29
ENDBRANCH  26  27
ENDBRANCH  25  26
ENDBRANCH  24  25
ENDBRANCH  18  24
ENDBRANCH   1  21
BRANCH  10  30
ATOM     30  C   UNL     1       5.840  -7.625  -5.512  0.00  0.00    +0.114 C 
BRANCH  30  31
ATOM     31  C   UNL     1       5.298  -7.799  -4.092  0.00  0.00    +0.054 C 
BRANCH  31  32
ATOM     32  C   UNL     1       6.443  -7.796  -3.113  0.00  0.00    -0.046 A 
ATOM     33  C   UNL     1       7.068  -8.983  -2.778  0.00  0.00    +0.007 A 
ATOM     34  C   UNL     1       8.118  -8.983  -1.880  0.00  0.00    +0.046 A 
ATOM     35  C   UNL     1       8.546  -7.790  -1.315  0.00  0.00    +0.120 A 
ATOM     36  C   UNL     1       7.918  -6.601  -1.654  0.00  0.00    +0.046 A 
ATOM     37  C   UNL     1       6.872  -6.606  -2.556  0.00  0.00    +0.007 A 
BRANCH  35  38
ATOM     38  O   UNL     1       9.578  -7.788  -0.431  0.00  0.00    -0.495 OA
ATOM     39  C   UNL     1       9.965  -6.523   0.110  0.00  0.00    +0.277 C 
ENDBRANCH  35  38
ENDBRANCH  31  32
ENDBRANCH  30  31
ENDBRANCH  10  30
TORSDOF 11
