REMARK  Name = ZINC39547551
REMARK  8 active torsions:
REMARK  status: ('A' for Active; 'I' for Inactive)
REMARK    1  A    between atoms: C_1  and  C_2
REMARK    2  A    between atoms: C_7  and  N_8
REMARK    3  A    between atoms: C_9  and  C_11
REMARK    4  A    between atoms: C_11  and  N_12
REMARK    5  A    between atoms: C_13  and  C_15
REMARK    6  A    between atoms: C_20  and  N_21
REMARK    7  A    between atoms: N_21  and  C_22
REMARK    8  A    between atoms: C_23  and  C_25
REMARK                            x       y       z     vdW  Elec       q    Type
REMARK                         _______ _______ _______ _____ _____    ______ ____
ROOT
ATOM      1  N   UNL     1      -0.226  -0.892   5.978  0.00  0.00    -0.303 N 
ATOM      2  C   UNL     1      -0.333  -0.454   7.248  0.00  0.00    +0.246 C 
ATOM      3  O   UNL     1      -0.373   0.739   7.479  0.00  0.00    -0.270 OA
ATOM      4  H   UNL     1      -0.194  -1.843   5.794  0.00  0.00    +0.150 HD
ENDROOT
BRANCH   2   5
ATOM      5  C   UNL     1      -0.403  -1.423   8.358  0.00  0.00    +0.058 A 
ATOM      6  C   UNL     1      -0.351  -2.795   8.098  0.00  0.00    +0.015 A 
ATOM      7  C   UNL     1      -0.416  -3.695   9.140  0.00  0.00    +0.001 A 
ATOM      8  C   UNL     1      -0.533  -3.247  10.446  0.00  0.00    +0.002 A 
ATOM      9  C   UNL     1      -0.585  -1.895  10.719  0.00  0.00    +0.024 A 
ATOM     10  C   UNL     1      -0.514  -0.973   9.682  0.00  0.00    +0.048 A 
BRANCH  10  11
ATOM     11  N   UNL     1      -0.560   0.391   9.956  0.00  0.00    -0.269 N 
ATOM     12  C   UNL     1       0.680   1.132  10.198  0.00  0.00    +0.138 C 
ATOM     13  C   UNL     1      -1.746   1.030   9.997  0.00  0.00    +0.257 C 
ATOM     14  O   UNL     1      -1.795   2.202  10.322  0.00  0.00    -0.269 OA
BRANCH  13  15
ATOM     15  C   UNL     1      -2.977   0.315   9.650  0.00  0.00    +0.074 A 
ATOM     16  C   UNL     1      -4.269   0.805   9.529  0.00  0.00    +0.021 A 
ATOM     17  C   UNL     1      -5.228  -0.119   9.188  0.00  0.00    +0.008 A 
ATOM     18  C   UNL     1      -4.861  -1.410   8.998  0.00  0.00    +0.046 A 
ATOM     19  S   UNL     1      -3.203  -1.412   9.268  0.00  0.00    -0.092 S 
ENDBRANCH  13  15
ENDBRANCH  10  11
ENDBRANCH   2   5
BRANCH   1  20
ATOM     20  C   UNL     1      -0.157   0.070   4.875  0.00  0.00    +0.200 C 
BRANCH  20  22
ATOM     21  N   UNL     1       0.036   0.014   2.410  0.00  0.00    -0.284 N 
ATOM     22  C   UNL     1      -0.042  -0.671   3.568  0.00  0.00    +0.234 C 
ATOM     23  O   UNL     1      -0.019  -1.883   3.559  0.00  0.00    -0.274 OA
ATOM     24  H   UNL     1       0.084   0.983   2.422  0.00  0.00    +0.155 HD
BRANCH  21  31
ATOM     25  C   UNL     1      -1.260   1.213   0.179  0.00  0.00    +0.046 C 
ATOM     26  C   UNL     1      -0.572  -0.124   0.077  0.00  0.00    -0.028 A 
ATOM     27  C   UNL     1      -0.552  -0.801  -1.127  0.00  0.00    +0.020 A 
ATOM     28  C   UNL     1       0.080  -2.028  -1.222  0.00  0.00    +0.018 A 
ATOM     29  C   UNL     1       0.694  -2.581  -0.111  0.00  0.00    +0.017 A 
ATOM     30  C   UNL     1       0.678  -1.908   1.094  0.00  0.00    +0.024 A 
ATOM     31  C   UNL     1       0.049  -0.673   1.191  0.00  0.00    +0.036 A 
ATOM     32 BR   UNL     1       0.104  -2.953  -2.871  0.00  0.00    -0.050 Br
ENDBRANCH  21  31
ENDBRANCH  20  22
ENDBRANCH   1  20
TORSDOF 6
