REMARK  Name = ZINC57589763
REMARK  8 active torsions:
REMARK  status: ('A' for Active; 'I' for Inactive)
REMARK    1  A    between atoms: C_1  and  C_2
REMARK    2  A    between atoms: C_4  and  C_41
REMARK    3  A    between atoms: C_9  and  C_14
REMARK    4  A    between atoms: C_14  and  C_16
REMARK    5  A    between atoms: C_14  and  N_28
REMARK    6  A    between atoms: N_20  and  C_21
REMARK    7  A    between atoms: C_21  and  C_22
REMARK    8  A    between atoms: C_31  and  C_34
REMARK                            x       y       z     vdW  Elec       q    Type
REMARK                         _______ _______ _______ _____ _____    ______ ____
ROOT
ATOM      1  C   UNL     1       0.089  -5.020   3.624  0.00  0.00    +0.163 C 
ENDROOT
BRANCH   1  10
ATOM      2  C   UNL     1      -0.018   1.503   0.010  0.00  0.00    +0.044 C 
ATOM      3  C   UNL     1       0.002  -0.004   0.002  0.00  0.00    -0.050 A 
ATOM      4  C   UNL     1       0.006  -0.685  -1.208  0.00  0.00    +0.008 A 
ATOM      5  C   UNL     1       0.024  -2.063  -1.239  0.00  0.00    -0.026 A 
ATOM      6  C   UNL     1       0.040  -2.780  -0.047  0.00  0.00    +0.052 A 
ATOM      7  C   UNL     1       0.037  -2.086   1.177  0.00  0.00    -0.001 A 
ATOM      8  C   UNL     1       0.023  -0.687   1.185  0.00  0.00    +0.013 A 
ATOM      9  C   UNL     1       0.053  -2.850   2.426  0.00  0.00    +0.021 A 
ATOM     10  C   UNL     1       0.072  -4.204   2.357  0.00  0.00    +0.042 A 
ATOM     11  C   UNL     1       0.074  -4.852   1.103  0.00  0.00    +0.254 A 
ATOM     12  O   UNL     1       0.091  -6.070   1.064  0.00  0.00    -0.268 OA
ATOM     13  N   UNL     1       0.059  -4.159  -0.049  0.00  0.00    -0.322 N 
ATOM     14  H   UNL     1       0.061  -4.636  -0.893  0.00  0.00    +0.169 HD
ATOM     15  C   UNL     1       0.027  -2.790  -2.559  0.00  0.00    +0.046 C 
ENDBRANCH   1  10
BRANCH   1  16
ATOM     16  N   UNL     1       1.236  -5.938   3.599  0.00  0.00    -0.285 NA
ATOM     17  C   UNL     1       1.299  -6.737   4.834  0.00  0.00    +0.090 C 
ATOM     18  C   UNL     1       2.298  -7.878   4.625  0.00  0.00    +0.051 C 
ATOM     19  C   UNL     1       3.580  -7.332   4.060  0.00  0.00    -0.042 C 
ATOM     20  C   UNL     1       3.663  -6.138   3.514  0.00  0.00    -0.007 C 
ATOM     21  C   UNL     1       2.493  -5.204   3.405  0.00  0.00    +0.113 C 
BRANCH  19  22
ATOM     22  C   UNL     1       4.796  -8.169   4.123  0.00  0.00    -0.022 A 
ATOM     23  C   UNL     1       4.861  -9.363   3.402  0.00  0.00    +0.011 A 
ATOM     24  C   UNL     1       5.999 -10.141   3.464  0.00  0.00    +0.039 A 
ATOM     25  C   UNL     1       7.075  -9.739   4.239  0.00  0.00    +0.123 A 
ATOM     26  C   UNL     1       7.014  -8.555   4.957  0.00  0.00    +0.039 A 
ATOM     27  C   UNL     1       5.884  -7.767   4.898  0.00  0.00    +0.011 A 
ATOM     28  F   UNL     1       8.186 -10.505   4.296  0.00  0.00    -0.205 F 
ENDBRANCH  19  22
ENDBRANCH   1  16
BRANCH   1  29
ATOM     29  C   UNL     1      -1.187  -5.814   3.728  0.00  0.00    +0.173 A 
ATOM     30  N   UNL     1      -1.496  -6.892   3.049  0.00  0.00    -0.111 NA
ATOM     31  N   UNL     1      -2.668  -7.275   3.420  0.00  0.00    -0.023 NA
ATOM     32  N   UNL     1      -3.116  -6.469   4.319  0.00  0.00    -0.044 NA
ATOM     33  N   UNL     1      -2.230  -5.558   4.539  0.00  0.00    -0.225 N 
BRANCH  33  34
ATOM     34  C   UNL     1      -2.339  -4.450   5.492  0.00  0.00    +0.179 C 
BRANCH  34  35
ATOM     35  C   UNL     1      -2.972  -3.242   4.799  0.00  0.00    +0.140 C 
ATOM     36  C   UNL     1      -3.180  -2.089   5.813  0.00  0.00    +0.035 C 
ATOM     37  C   UNL     1      -3.184  -0.860   4.864  0.00  0.00    +0.031 C 
ATOM     38  C   UNL     1      -2.176  -1.284   3.774  0.00  0.00    +0.160 C 
ATOM     39  O   UNL     1      -2.081  -2.714   3.804  0.00  0.00    -0.375 OA
ENDBRANCH  34  35
ENDBRANCH  33  34
ENDBRANCH   1  29
TORSDOF 6
