REMARK  Name = ZINC39537627
REMARK  8 active torsions:
REMARK  status: ('A' for Active; 'I' for Inactive)
REMARK    1  A    between atoms: C_1  and  C_2
REMARK    2  A    between atoms: N_7  and  C_9
REMARK    3  A    between atoms: C_9  and  C_10
REMARK    4  A    between atoms: C_15  and  C_17
REMARK    5  A    between atoms: C_17  and  N_18
REMARK    6  A    between atoms: C_19  and  C_21
REMARK    7  A    between atoms: C_21  and  N_22
REMARK    8  A    between atoms: C_23  and  C_25
REMARK                            x       y       z     vdW  Elec       q    Type
REMARK                         _______ _______ _______ _____ _____    ______ ____
ROOT
ATOM      1  C   UNL     1       1.321  -3.966   2.518  0.00  0.00    +0.034 A 
ATOM      2  C   UNL     1       2.332  -4.755   2.078  0.00  0.00    +0.070 A 
ATOM      3  S   UNL     1       1.653  -6.375   2.398  0.00  0.00    -0.060 S 
ATOM      4  C   UNL     1       0.179  -5.886   3.047  0.00  0.00    +0.165 A 
ATOM      5  N   UNL     1      -0.862  -6.677   3.518  0.00  0.00    -0.263 N 
ATOM      6  C   UNL     1      -0.756  -8.020   3.486  0.00  0.00    +0.236 C 
ATOM      7  O   UNL     1       0.248  -8.539   3.046  0.00  0.00    -0.274 OA
ATOM      8  N   UNL     1       0.255  -4.573   3.005  0.00  0.00    -0.231 NA
ATOM      9  H   UNL     1      -1.665  -6.262   3.871  0.00  0.00    +0.157 HD
ENDROOT
BRANCH   1  10
ATOM     10  C   UNL     1       1.413  -2.463   2.461  0.00  0.00    -0.022 C 
BRANCH  10  16
ATOM     11  C   UNL     1      -0.019   1.526   0.010  0.00  0.00    +0.005 C 
ATOM     12  C   UNL     1       0.002  -0.004   0.002  0.00  0.00    -0.031 C 
ATOM     13  C   UNL     1       0.721  -0.499  -1.257  0.00  0.00    -0.001 C 
ATOM     14  C   UNL     1       0.805  -2.027  -1.217  0.00  0.00    -0.018 C 
ATOM     15  C   UNL     1       1.518  -2.460   0.066  0.00  0.00    -0.078 C 
ATOM     16  N   UNL     1       0.768  -1.979   1.233  0.00  0.00    +0.384 N 
ATOM     17  C   UNL     1       0.744  -0.512   1.240  0.00  0.00    -0.075 C 
ATOM     18  H   UNL     1      -0.177  -2.330   1.192  0.00  0.00    -0.081 HD
ENDBRANCH  10  16
ENDBRANCH   1  10
BRANCH   6  19
ATOM     19  C   UNL     1      -1.885  -8.877   3.997  0.00  0.00    +0.200 C 
BRANCH  19  20
ATOM     20  N   UNL     1      -1.528 -10.291   3.854  0.00  0.00    -0.305 N 
ATOM     21  C   UNL     1      -2.392 -11.248   4.248  0.00  0.00    +0.231 C 
ATOM     22  O   UNL     1      -3.465 -10.938   4.722  0.00  0.00    -0.274 OA
ATOM     23  H   UNL     1      -0.670 -10.539   3.475  0.00  0.00    +0.149 HD
BRANCH  21  24
ATOM     24  C   UNL     1      -2.025 -12.702   4.101  0.00  0.00    +0.200 C 
BRANCH  24  25
ATOM     25  N   UNL     1      -3.122 -13.535   4.598  0.00  0.00    -0.303 N 
ATOM     26  C   UNL     1      -3.016 -14.878   4.565  0.00  0.00    +0.246 C 
ATOM     27  O   UNL     1      -2.010 -15.398   4.124  0.00  0.00    -0.270 OA
ATOM     28  H   UNL     1      -3.925 -13.120   4.950  0.00  0.00    +0.150 HD
BRANCH  26  29
ATOM     29  C   UNL     1      -4.123 -15.719   5.066  0.00  0.00    +0.055 A 
ATOM     30  C   UNL     1      -5.282 -15.125   5.569  0.00  0.00    +0.016 A 
ATOM     31  C   UNL     1      -6.312 -15.914   6.035  0.00  0.00    +0.021 A 
ATOM     32  C   UNL     1      -6.198 -17.295   6.006  0.00  0.00    +0.042 A 
ATOM     33  C   UNL     1      -5.052 -17.891   5.510  0.00  0.00    +0.040 A 
ATOM     34  C   UNL     1      -4.016 -17.112   5.034  0.00  0.00    +0.054 A 
ATOM     35 CL   UNL     1      -2.582 -17.860   4.405  0.00  0.00    -0.083 Cl
ATOM     36 CL   UNL     1      -7.499 -18.282   6.596  0.00  0.00    -0.083 Cl
ENDBRANCH  26  29
ENDBRANCH  24  25
ENDBRANCH  21  24
ENDBRANCH  19  20
ENDBRANCH   6  19
TORSDOF 7
