REMARK  Name = ZINC39915816
REMARK  10 active torsions:
REMARK  status: ('A' for Active; 'I' for Inactive)
REMARK    1  A    between atoms: C_1  and  C_2
REMARK    2  A    between atoms: C_2  and  C_3
REMARK    3  A    between atoms: C_3  and  N_4
REMARK    4  A    between atoms: C_12  and  S_13
REMARK    5  A    between atoms: S_13  and  C_14
REMARK    6  A    between atoms: C_16  and  O_29
REMARK    7  A    between atoms: C_18  and  O_28
REMARK    8  A    between atoms: C_20  and  O_27
REMARK    9  A    between atoms: C_22  and  C_25
REMARK   10  A    between atoms: C_25  and  O_26
REMARK                            x       y       z     vdW  Elec       q    Type
REMARK                         _______ _______ _______ _____ _____    ______ ____
ROOT
ATOM      1  C   UNL     1      -2.500  -3.776  -3.115  0.00  0.00    +0.214 C 
ATOM      2  C   UNL     1      -3.665  -3.452  -4.055  0.00  0.00    +0.185 C 
ATOM      3  C   UNL     1      -4.396  -4.749  -4.415  0.00  0.00    +0.177 C 
ATOM      4  C   UNL     1      -4.862  -5.434  -3.126  0.00  0.00    +0.176 C 
ATOM      5  C   UNL     1      -3.651  -5.681  -2.222  0.00  0.00    +0.176 C 
ATOM      6  O   UNL     1      -2.999  -4.438  -1.952  0.00  0.00    -0.355 OA
ENDROOT
BRANCH   4   7
ATOM      7  O   UNL     1      -5.800  -4.593  -2.451  0.00  0.00    -0.386 OA
ATOM      8  H   UNL     1      -6.591  -4.391  -2.969  0.00  0.00    +0.210 HD
ENDBRANCH   4   7
BRANCH   3   9
ATOM      9  O   UNL     1      -5.528  -4.449  -5.234  0.00  0.00    -0.386 OA
ATOM     10  H   UNL     1      -5.305  -4.008  -6.066  0.00  0.00    +0.210 HD
ENDBRANCH   3   9
BRANCH   2  11
ATOM     11  O   UNL     1      -4.569  -2.557  -3.405  0.00  0.00    -0.386 OA
ATOM     12  H   UNL     1      -4.170  -1.715  -3.145  0.00  0.00    +0.210 HD
ENDBRANCH   2  11
BRANCH   1  13
ATOM     13  S   UNL     1      -1.671  -2.238  -2.628  0.00  0.00    -0.054 S 
BRANCH  13  22
ATOM     14  N   UNL     1       0.738  -1.962  -1.265  0.00  0.00    -0.319 N 
ATOM     15  C   UNL     1       1.718  -2.774  -0.716  0.00  0.00    +0.069 A 
ATOM     16  C   UNL     1       2.901  -2.527  -0.037  0.00  0.00    +0.028 A 
ATOM     17  C   UNL     1       3.679  -3.582   0.394  0.00  0.00    +0.002 A 
ATOM     18  C   UNL     1       3.285  -4.890   0.151  0.00  0.00    +0.002 A 
ATOM     19  C   UNL     1       2.113  -5.154  -0.522  0.00  0.00    +0.030 A 
ATOM     20  C   UNL     1       1.314  -4.096  -0.964  0.00  0.00    +0.090 A 
ATOM     21  N   UNL     1       0.135  -4.035  -1.637  0.00  0.00    -0.222 NA
ATOM     22  C   UNL     1      -0.209  -2.783  -1.810  0.00  0.00    +0.172 A 
BRANCH  14  23
ATOM     23  C   UNL     1       0.718  -0.497  -1.257  0.00  0.00    +0.124 C 
BRANCH  23  25
ATOM     24  C   UNL     1      -0.019   1.526   0.010  0.00  0.00    +0.005 C 
ATOM     25  C   UNL     1       0.002  -0.004   0.002  0.00  0.00    +0.018 C 
ENDBRANCH  23  25
ENDBRANCH  14  23
ENDBRANCH  13  22
ENDBRANCH   1  13
BRANCH   5  26
ATOM     26  C   UNL     1      -4.116  -6.310  -0.907  0.00  0.00    +0.190 C 
BRANCH  26  27
ATOM     27  O   UNL     1      -2.978  -6.647  -0.112  0.00  0.00    -0.392 OA
ATOM     28  H   UNL     1      -3.198  -7.051   0.739  0.00  0.00    +0.210 HD
ENDBRANCH  26  27
ENDBRANCH   5  26
TORSDOF 9
