REMARK  Name = ZINC39663884
REMARK  12 active torsions:
REMARK  status: ('A' for Active; 'I' for Inactive)
REMARK    1  A    between atoms: C_1  and  N_2
REMARK    2  A    between atoms: N_2  and  C_3
REMARK    3  A    between atoms: N_2  and  C_4
REMARK    4  A    between atoms: C_4  and  C_6
REMARK    5  A    between atoms: C_4  and  C_31
REMARK    6  A    between atoms: C_6  and  N_7
REMARK    7  A    between atoms: C_8  and  C_10
REMARK    8  A    between atoms: C_21  and  C_23
REMARK    9  A    between atoms: C_27  and  O_28
REMARK   10  A    between atoms: O_28  and  C_29
REMARK   11  A    between atoms: C_34  and  O_37
REMARK   12  A    between atoms: O_37  and  C_38
REMARK                            x       y       z     vdW  Elec       q    Type
REMARK                         _______ _______ _______ _____ _____    ______ ____
ROOT
ATOM      1  C   UNL     1       0.943  -3.831   2.411  0.00  0.00    +0.100 C 
ATOM      2  C   UNL     1       2.312  -3.115   2.380  0.00  0.00    +0.121 C 
ATOM      3  N   UNL     1       3.293  -4.167   2.737  0.00  0.00    -0.296 N 
ATOM      4  C   UNL     1       2.803  -5.380   2.039  0.00  0.00    +0.115 C 
ATOM      5  C   UNL     1       1.269  -5.317   2.187  0.00  0.00    -0.004 C 
ATOM      6  C   UNL     1       0.597  -5.819   0.912  0.00  0.00    -0.010 C 
ATOM      7  C   UNL     1       0.887  -7.312   0.741  0.00  0.00    -0.082 C 
ATOM      8  N   UNL     1       0.383  -8.047   1.907  0.00  0.00    +0.379 N 
ATOM      9  C   UNL     1       1.101  -7.624   3.115  0.00  0.00    -0.082 C 
ATOM     10  C   UNL     1       0.819  -6.144   3.387  0.00  0.00    -0.010 C 
ATOM     11  C   UNL     1       4.384  -4.048   3.519  0.00  0.00    +0.251 C 
ATOM     12  O   UNL     1       4.597  -3.007   4.112  0.00  0.00    -0.270 OA
ATOM     13  H   UNL     1      -0.603  -7.861   2.021  0.00  0.00    -0.086 HD
ATOM     14  H   UNL     1       0.520  -9.037   1.765  0.00  0.00    -0.086 HD
ENDROOT
BRANCH  11  15
ATOM     15  C   UNL     1       5.317  -5.177   3.656  0.00  0.00    +0.087 A 
ATOM     16  C   UNL     1       5.571  -6.034   2.608  0.00  0.00    +0.063 A 
ATOM     17  S   UNL     1       6.673  -7.135   3.232  0.00  0.00    -0.081 S 
ATOM     18  C   UNL     1       6.839  -6.507   4.889  0.00  0.00    +0.120 A 
ATOM     19  C   UNL     1       6.015  -5.435   4.895  0.00  0.00    +0.158 A 
ATOM     20 CL   UNL     1       7.824  -7.119   6.181  0.00  0.00    -0.072 Cl
BRANCH  19  21
ATOM     21  O   UNL     1       5.850  -4.653   5.998  0.00  0.00    -0.492 OA
ATOM     22  C   UNL     1       4.813  -5.026   6.908  0.00  0.00    +0.277 C 
ENDBRANCH  19  21
ENDBRANCH  11  15
BRANCH   1  24
ATOM     23  N   UNL     1      -1.281  -3.296   1.471  0.00  0.00    -0.316 N 
ATOM     24  C   UNL     1       0.056  -3.315   1.307  0.00  0.00    +0.218 C 
ATOM     25  O   UNL     1       0.546  -2.918   0.272  0.00  0.00    -0.275 OA
ATOM     26  H   UNL     1      -1.673  -3.614   2.300  0.00  0.00    +0.149 HD
BRANCH  23  27
ATOM     27  C   UNL     1      -2.143  -2.795   0.398  0.00  0.00    +0.093 C 
BRANCH  27  28
ATOM     28  C   UNL     1      -3.610  -2.998   0.785  0.00  0.00    -0.021 C 
BRANCH  28  29
ATOM     29  C   UNL     1      -3.884  -4.469   0.961  0.00  0.00    -0.059 A 
ATOM     30  C   UNL     1      -4.095  -5.269  -0.146  0.00  0.00    +0.005 A 
ATOM     31  C   UNL     1      -4.347  -6.619   0.013  0.00  0.00    +0.046 A 
ATOM     32  C   UNL     1      -4.387  -7.170   1.286  0.00  0.00    +0.120 A 
ATOM     33  C   UNL     1      -4.174  -6.365   2.395  0.00  0.00    +0.046 A 
ATOM     34  C   UNL     1      -3.918  -5.017   2.230  0.00  0.00    +0.005 A 
BRANCH  32  35
ATOM     35  O   UNL     1      -4.635  -8.497   1.445  0.00  0.00    -0.495 OA
ATOM     36  C   UNL     1      -4.662  -8.995   2.784  0.00  0.00    +0.277 C 
ENDBRANCH  32  35
ENDBRANCH  28  29
BRANCH  28  38
ATOM     37  C   UNL     1      -5.880  -2.568   0.140  0.00  0.00    -0.096 C 
ATOM     38  N   UNL     1      -4.475  -2.462  -0.275  0.00  0.00    +0.382 N 
ATOM     39  C   UNL     1      -4.139  -1.052  -0.515  0.00  0.00    -0.096 C 
ATOM     40  H   UNL     1      -4.333  -2.991  -1.123  0.00  0.00    -0.082 HD
ENDBRANCH  28  38
ENDBRANCH  27  28
ENDBRANCH  23  27
ENDBRANCH   1  24
TORSDOF 8
