REMARK  Name = ZINC13148985
REMARK  6 active torsions:
REMARK  status: ('A' for Active; 'I' for Inactive)
REMARK    1  A    between atoms: C_1  and  C_2
REMARK    2  A    between atoms: C_11  and  S_15
REMARK    3  A    between atoms: S_15  and  C_16
REMARK    4  A    between atoms: C_16  and  C_17
REMARK    5  A    between atoms: N_19  and  C_20
REMARK    6  A    between atoms: C_21  and  C_29
REMARK                            x       y       z     vdW  Elec       q    Type
REMARK                         _______ _______ _______ _____ _____    ______ ____
ROOT
ATOM      1  C   UNL     1      -2.366   2.062   0.026  0.00  0.00    +0.228 C 
ATOM      2  O   UNL     1      -2.527   0.860   0.020  0.00  0.00    -0.275 OA
ATOM      3  N   UNL     1      -1.119   2.575   0.022  0.00  0.00    -0.279 N 
ATOM      4  H   UNL     1      -0.991   3.537   0.026  0.00  0.00    +0.155 HD
ENDROOT
BRANCH   3   5
ATOM      5  C   UNL     1      -0.021   1.728   0.011  0.00  0.00    +0.084 A 
ATOM      6  C   UNL     1       1.325   2.063   0.001  0.00  0.00    +0.068 A 
ATOM      7  C   UNL     1       2.288   0.974  -0.014  0.00  0.00    -0.023 A 
ATOM      8  C   UNL     1       1.753  -0.266  -0.016  0.00  0.00    -0.004 A 
ATOM      9  S   UNL     1       0.002  -0.004   0.002  0.00  0.00    -0.077 S 
ATOM     10  C   UNL     1       2.492  -1.568  -0.031  0.00  0.00    +0.043 C 
ATOM     11  C   UNL     1       3.951  -1.292  -0.422  0.00  0.00    +0.005 C 
ATOM     12  C   UNL     1       4.473  -0.121   0.416  0.00  0.00    +0.005 C 
ATOM     13  C   UNL     1       3.798   1.178  -0.027  0.00  0.00    +0.037 C 
BRANCH   6  14
ATOM     14  C   UNL     1       1.761   3.463   0.004  0.00  0.00    +0.244 C 
ATOM     15  O   UNL     1       1.952   4.038   1.059  0.00  0.00    -0.270 OA
ATOM     16  N   UNL     1       1.950   4.113  -1.162  0.00  0.00    -0.325 N 
ATOM     17  H   UNL     1       1.797   3.654  -2.003  0.00  0.00    +0.145 HD
ATOM     18  H   UNL     1       2.238   5.039  -1.160  0.00  0.00    +0.145 HD
ENDBRANCH   6  14
ENDBRANCH   3   5
BRANCH   1  19
ATOM     19  C   UNL     1      -3.559   2.983   0.037  0.00  0.00    +0.172 C 
BRANCH  19  20
ATOM     20  S   UNL     1      -5.079   2.000   0.040  0.00  0.00    -0.096 S 
BRANCH  20  30
ATOM     21  C   UNL     1     -10.513  -2.050   0.103  0.00  0.00    +0.008 C 
ATOM     22  C   UNL     1      -9.718  -0.777   0.403  0.00  0.00    -0.009 C 
ATOM     23  C   UNL     1      -8.436  -0.763  -0.436  0.00  0.00    +0.008 C 
ATOM     24  C   UNL     1      -7.522   0.369   0.033  0.00  0.00    +0.037 C 
ATOM     25  C   UNL     1      -8.317   1.672   0.044  0.00  0.00    -0.025 A 
ATOM     26  C   UNL     1      -9.665   1.657   0.045  0.00  0.00    -0.004 A 
ATOM     27  S   UNL     1     -10.148   3.362   0.070  0.00  0.00    -0.073 S 
ATOM     28  C   UNL     1      -8.533   4.097   0.067  0.00  0.00    +0.113 A 
ATOM     29  C   UNL     1      -7.668   2.984   0.052  0.00  0.00    +0.043 A 
ATOM     30  C   UNL     1      -6.278   3.291   0.052  0.00  0.00    +0.109 A 
ATOM     31  N   UNL     1      -5.899   4.559   0.057  0.00  0.00    -0.229 NA
ATOM     32  C   UNL     1      -6.768   5.553   0.066  0.00  0.00    +0.223 A 
ATOM     33  N   UNL     1      -8.068   5.331   0.071  0.00  0.00    -0.228 NA
ATOM     34  C   UNL     1     -10.559   0.454   0.038  0.00  0.00    +0.046 C 
ENDBRANCH  20  30
ENDBRANCH  19  20
ENDBRANCH   1  19
TORSDOF 5
