REMARK  Name = ZINC36343924
REMARK  5 active torsions:
REMARK  status: ('A' for Active; 'I' for Inactive)
REMARK    1  A    between atoms: C_1  and  C_2
REMARK    2  A    between atoms: C_2  and  O_3
REMARK    3  A    between atoms: O_3  and  C_4
REMARK    4  A    between atoms: C_12  and  C_14
REMARK    5  A    between atoms: C_29  and  C_32
REMARK                            x       y       z     vdW  Elec       q    Type
REMARK                         _______ _______ _______ _____ _____    ______ ____
ROOT
ATOM      1  C   UNL     1       4.350  -5.202  -4.986  0.00  0.00    +0.123 C 
ATOM      2  C   UNL     1       5.200  -5.746  -3.773  0.00  0.00    +0.155 C 
ATOM      3  C   UNL     1       6.245  -4.639  -3.590  0.00  0.00    +0.004 C 
ATOM      4  C   UNL     1       7.062  -4.763  -4.626  0.00  0.00    +0.008 C 
ATOM      5  C   UNL     1       6.562  -5.968  -5.401  0.00  0.00    +0.116 C 
ATOM      6  C   UNL     1       5.220  -5.586  -6.156  0.00  0.00    +0.127 C 
ATOM      7  C   UNL     1       5.765  -4.688  -7.190  0.00  0.00    +0.228 C 
ATOM      8  O   UNL     1       5.227  -3.701  -7.645  0.00  0.00    -0.275 OA
ATOM      9  N   UNL     1       6.998  -5.182  -7.540  0.00  0.00    -0.250 N 
ATOM     10  C   UNL     1       7.388  -6.261  -6.615  0.00  0.00    +0.155 C 
ATOM     11  C   UNL     1       7.785  -4.708  -8.589  0.00  0.00    +0.171 A 
ATOM     12  C   UNL     1       7.505  -3.584  -9.398  0.00  0.00    +0.091 A 
ATOM     13  C   UNL     1       8.499  -3.456 -10.294  0.00  0.00    +0.136 A 
ATOM     14  O   UNL     1       9.384  -4.443 -10.082  0.00  0.00    -0.358 OA
ATOM     15  N   UNL     1       8.918  -5.223  -8.996  0.00  0.00    -0.063 NA
ATOM     16  C   UNL     1       8.604  -2.388 -11.352  0.00  0.00    +0.089 C 
ATOM     17  O   UNL     1       6.000  -6.826  -4.412  0.00  0.00    -0.359 OA
ENDROOT
BRANCH   1  26
ATOM     18  C   UNL     1      -0.514  -1.616  -3.657  0.00  0.00    +0.403 C 
ATOM     19  O   UNL     1      -1.397  -2.346  -3.252  0.00  0.00    -0.226 OA
ATOM     20  N   UNL     1       0.571  -2.141  -4.259  0.00  0.00    -0.264 N 
ATOM     21  C   UNL     1       1.650  -1.270  -4.748  0.00  0.00    +0.130 C 
ATOM     22  C   UNL     1       2.972  -1.729  -4.120  0.00  0.00    +0.127 C 
ATOM     23  N   UNL     1       3.098  -3.182  -4.300  0.00  0.00    -0.298 N 
ATOM     24  C   UNL     1       2.019  -4.053  -3.812  0.00  0.00    +0.127 C 
ATOM     25  C   UNL     1       0.700  -3.594  -4.434  0.00  0.00    +0.130 C 
ATOM     26  C   UNL     1       4.183  -3.707  -4.903  0.00  0.00    +0.222 C 
ATOM     27  O   UNL     1       5.026  -2.976  -5.379  0.00  0.00    -0.275 OA
BRANCH  18  28
ATOM     28  O   UNL     1      -0.620  -0.282  -3.502  0.00  0.00    -0.451 OA
BRANCH  28  30
ATOM     29  C   UNL     1      -1.738   1.731  -2.772  0.00  0.00    +0.048 C 
ATOM     30  C   UNL     1      -1.797   0.204  -2.855  0.00  0.00    +0.230 C 
ENDBRANCH  28  30
ENDBRANCH  18  28
ENDBRANCH   1  26
TORSDOF 3
