REMARK  Name = ZINC52827786
REMARK  6 active torsions:
REMARK  status: ('A' for Active; 'I' for Inactive)
REMARK    1  A    between atoms: C_1  and  C_2
REMARK    2  A    between atoms: C_2  and  C_3
REMARK    3  A    between atoms: C_2  and  C_4
REMARK    4  A    between atoms: N_13  and  C_14
REMARK    5  A    between atoms: C_14  and  C_15
REMARK    6  A    between atoms: N_23  and  C_26
REMARK                            x       y       z     vdW  Elec       q    Type
REMARK                         _______ _______ _______ _____ _____    ______ ____
ROOT
ATOM      1  C   UNL     1      -1.412  -0.526   0.013  0.00  0.00    -0.044 A 
ATOM      2  C   UNL     1      -2.258  -0.203   1.058  0.00  0.00    +0.006 A 
ATOM      3  C   UNL     1      -3.553  -0.682   1.068  0.00  0.00    +0.023 A 
ATOM      4  C   UNL     1      -4.005  -1.487   0.029  0.00  0.00    +0.033 A 
ATOM      5  C   UNL     1      -3.157  -1.808  -1.020  0.00  0.00    -0.026 A 
ATOM      6  C   UNL     1      -1.861  -1.320  -1.024  0.00  0.00    +0.009 A 
ATOM      7  C   UNL     1      -3.616  -2.668  -2.168  0.00  0.00    +0.038 C 
ATOM      8  C   UNL     1      -4.837  -3.493  -1.764  0.00  0.00    +0.024 C 
ATOM      9  C   UNL     1      -5.890  -2.556  -1.158  0.00  0.00    +0.106 C 
ATOM     10  N   UNL     1      -5.319  -1.967   0.060  0.00  0.00    -0.322 N 
ENDROOT
BRANCH   1  12
ATOM     11  C   UNL     1      -0.019   1.526   0.010  0.00  0.00    +0.012 C 
ATOM     12  C   UNL     1       0.002  -0.004   0.002  0.00  0.00    +0.013 C 
ATOM     13  C   UNL     1       0.742  -0.511   1.242  0.00  0.00    +0.012 C 
ENDBRANCH   1  12
BRANCH  10  14
ATOM     14  C   UNL     1      -6.113  -1.883   1.289  0.00  0.00    +0.179 C 
BRANCH  14  15
ATOM     15  C   UNL     1      -6.861  -0.575   1.316  0.00  0.00    +0.129 A 
ATOM     16  N   UNL     1      -7.653  -0.305   2.384  0.00  0.00    -0.309 N 
ATOM     17  H   UNL     1      -7.727  -0.948   3.106  0.00  0.00    +0.170 HD
ATOM     18  C   UNL     1      -8.341   0.859   2.445  0.00  0.00    +0.262 A 
ATOM     19  O   UNL     1      -9.058   1.120   3.396  0.00  0.00    -0.267 OA
ATOM     20  C   UNL     1      -8.193   1.792   1.329  0.00  0.00    +0.103 A 
ATOM     21  C   UNL     1      -8.720   3.061   1.024  0.00  0.00    +0.150 A 
ATOM     22  N   UNL     1      -8.239   3.439  -0.129  0.00  0.00    -0.177 NA
ATOM     23  N   UNL     1      -7.385   2.447  -0.626  0.00  0.00    -0.249 N 
ATOM     24  C   UNL     1      -7.350   1.425   0.268  0.00  0.00    +0.165 A 
ATOM     25  N   UNL     1      -6.713   0.245   0.317  0.00  0.00    -0.213 NA
ATOM     26  C   UNL     1      -6.654   2.502  -1.895  0.00  0.00    +0.174 C 
ENDBRANCH  14  15
ENDBRANCH  10  14
TORSDOF 3
