REMARK  Name = ZINC39627001
REMARK  12 active torsions:
REMARK  status: ('A' for Active; 'I' for Inactive)
REMARK    1  A    between atoms: C_1  and  C_2
REMARK    2  A    between atoms: C_2  and  N_3
REMARK    3  A    between atoms: C_4  and  C_10
REMARK    4  A    between atoms: C_6  and  C_8
REMARK    5  A    between atoms: C_14  and  C_23
REMARK    6  A    between atoms: N_25  and  C_26
REMARK    7  A    between atoms: C_26  and  C_27
REMARK    8  A    between atoms: C_27  and  N_28
REMARK    9  A    between atoms: N_28  and  C_29
REMARK   10  A    between atoms: N_28  and  C_31
REMARK   11  A    between atoms: C_29  and  C_30
REMARK   12  A    between atoms: C_31  and  C_32
REMARK                            x       y       z     vdW  Elec       q    Type
REMARK                         _______ _______ _______ _____ _____    ______ ____
ROOT
ATOM      1  C   UNL     1      -3.711   0.548   4.661  0.00  0.00    +0.266 C 
ATOM      2  O   UNL     1      -4.379   0.615   5.676  0.00  0.00    -0.268 OA
ATOM      3  N   UNL     1      -2.373   0.694   4.724  0.00  0.00    -0.295 N 
ATOM      4  C   UNL     1      -1.389   0.539   3.626  0.00  0.00    +0.121 C 
ATOM      5  C   UNL     1      -0.363   1.671   3.860  0.00  0.00    +0.100 C 
ATOM      6  C   UNL     1      -0.473   1.997   5.358  0.00  0.00    -0.004 C 
ATOM      7  C   UNL     1      -1.553   1.053   5.906  0.00  0.00    +0.115 C 
ATOM      8  C   UNL     1       0.860   1.739   6.055  0.00  0.00    -0.010 C 
ATOM      9  C   UNL     1       0.742   2.126   7.532  0.00  0.00    -0.082 C 
ATOM     10  N   UNL     1       0.377   3.544   7.640  0.00  0.00    +0.379 N 
ATOM     11  C   UNL     1      -0.948   3.767   7.050  0.00  0.00    -0.082 C 
ATOM     12  C   UNL     1      -0.902   3.449   5.552  0.00  0.00    -0.010 C 
ATOM     13  H   UNL     1       0.360   3.812   8.613  0.00  0.00    -0.086 HD
ATOM     14  H   UNL     1       1.060   4.104   7.152  0.00  0.00    -0.086 HD
ENDROOT
BRANCH   1  16
ATOM     15  N   UNL     1      -4.514  -0.896   2.733  0.00  0.00    -0.258 N 
ATOM     16  C   UNL     1      -4.364   0.307   3.366  0.00  0.00    +0.138 A 
ATOM     17  C   UNL     1      -4.952   1.252   2.542  0.00  0.00    +0.071 A 
ATOM     18  C   UNL     1      -5.428   0.537   1.439  0.00  0.00    +0.075 A 
ATOM     19  N   UNL     1      -5.130  -0.724   1.619  0.00  0.00    -0.175 NA
ATOM     20  C   UNL     1      -6.153   1.117   0.252  0.00  0.00    +0.069 C 
ATOM     21 BR   UNL     1      -5.083   3.114   2.844  0.00  0.00    -0.046 Br
BRANCH  15  23
ATOM     22  C   UNL     1      -2.679  -2.510   2.622  0.00  0.00    +0.029 C 
ATOM     23  C   UNL     1      -4.038  -2.184   3.245  0.00  0.00    +0.141 C 
ENDBRANCH  15  23
ENDBRANCH   1  16
BRANCH   5  24
ATOM     24  C   UNL     1      -0.715   2.878   3.030  0.00  0.00    +0.218 C 
ATOM     25  O   UNL     1      -1.872   3.097   2.738  0.00  0.00    -0.275 OA
ATOM     26  N   UNL     1       0.255   3.714   2.611  0.00  0.00    -0.317 N 
ATOM     27  H   UNL     1       1.186   3.501   2.781  0.00  0.00    +0.149 HD
BRANCH  26  28
ATOM     28  C   UNL     1      -0.096   4.946   1.900  0.00  0.00    +0.085 C 
BRANCH  28  29
ATOM     29  C   UNL     1       1.181   5.708   1.539  0.00  0.00    -0.060 C 
BRANCH  29  30
ATOM     30  N   UNL     1       0.829   6.944   0.826  0.00  0.00    +0.380 N 
ATOM     31  H   UNL     1       0.256   6.719   0.027  0.00  0.00    -0.082 HD
BRANCH  30  32
ATOM     32  C   UNL     1       0.086   7.834   1.727  0.00  0.00    -0.082 C 
ATOM     33  C   UNL     1      -0.408   9.054   0.946  0.00  0.00    -0.017 C 
ENDBRANCH  30  32
BRANCH  30  34
ATOM     34  C   UNL     1       2.055   7.615   0.375  0.00  0.00    -0.082 C 
ATOM     35  C   UNL     1       2.755   6.749  -0.674  0.00  0.00    -0.017 C 
ENDBRANCH  30  34
ENDBRANCH  29  30
ENDBRANCH  28  29
ENDBRANCH  26  28
ENDBRANCH   5  24
TORSDOF 8
