REMARK  Name = ZINC51952215
REMARK  8 active torsions:
REMARK  status: ('A' for Active; 'I' for Inactive)
REMARK    1  A    between atoms: C_1  and  C_2
REMARK    2  A    between atoms: C_2  and  O_3
REMARK    3  A    between atoms: O_3  and  C_4
REMARK    4  A    between atoms: C_4  and  C_6
REMARK    5  A    between atoms: C_12  and  C_14
REMARK    6  A    between atoms: C_14  and  C_16
REMARK    7  A    between atoms: C_14  and  N_17
REMARK    8  A    between atoms: C_20  and  N_23
REMARK                            x       y       z     vdW  Elec       q    Type
REMARK                         _______ _______ _______ _____ _____    ______ ____
ROOT
ATOM      1  C   UNL     1       4.420  -6.189   3.965  0.00  0.00    +0.016 C 
ATOM      2  C   UNL     1       3.464  -6.423   5.136  0.00  0.00    -0.004 C 
ENDROOT
BRANCH   1   9
ATOM      3  C   UNL     1       2.278  -3.354   0.398  0.00  0.00    +0.101 C 
ATOM      4  C   UNL     1       3.421  -2.550   1.024  0.00  0.00    +0.033 C 
ATOM      5  C   UNL     1       3.424  -2.770   2.540  0.00  0.00    +0.108 C 
ATOM      6  N   UNL     1       3.483  -4.213   2.808  0.00  0.00    -0.303 N 
ATOM      7  C   UNL     1       2.484  -5.090   2.182  0.00  0.00    +0.108 C 
ATOM      8  C   UNL     1       2.491  -4.845   0.670  0.00  0.00    +0.033 C 
ATOM      9  C   UNL     1       4.436  -4.723   3.614  0.00  0.00    +0.202 C 
ATOM     10  O   UNL     1       5.306  -4.003   4.056  0.00  0.00    -0.277 OA
BRANCH   3  11
ATOM     11  C   UNL     1       2.250  -3.113  -1.089  0.00  0.00    +0.310 C 
ATOM     12  O   UNL     1       2.387  -4.039  -1.853  0.00  0.00    -0.251 OA
BRANCH  11  13
ATOM     13  O   UNL     1       2.073  -1.871  -1.565  0.00  0.00    -0.465 OA
BRANCH  13  15
ATOM     14  C   UNL     1       1.847  -0.242  -3.336  0.00  0.00    +0.048 C 
ATOM     15  C   UNL     1       2.058  -1.716  -2.986  0.00  0.00    +0.229 C 
ENDBRANCH  13  15
ENDBRANCH  11  13
ENDBRANCH   3  11
ENDBRANCH   1   9
BRANCH   1  16
ATOM     16  N   UNL     1       5.774  -6.615   4.345  0.00  0.00    +0.387 N 
ATOM     17  C   UNL     1       5.741  -8.020   4.769  0.00  0.00    -0.079 C 
ATOM     18  C   UNL     1       7.132  -8.446   5.244  0.00  0.00    -0.034 C 
ATOM     19  C   UNL     1       8.130  -8.281   4.094  0.00  0.00    -0.072 C 
ATOM     20  C   UNL     1       8.101  -6.828   3.610  0.00  0.00    -0.034 C 
ATOM     21  C   UNL     1       6.675  -6.462   3.196  0.00  0.00    -0.079 C 
ATOM     22  H   UNL     1       6.104  -6.043   5.108  0.00  0.00    -0.081 HD
BRANCH  19  23
ATOM     23  N   UNL     1       9.481  -8.616   4.564  0.00  0.00    +0.381 N 
ATOM     24  C   UNL     1       9.545 -10.045   4.964  0.00  0.00    -0.079 C 
ATOM     25  C   UNL     1      11.057 -10.370   4.879  0.00  0.00    -0.020 C 
ATOM     26  C   UNL     1      11.514  -9.568   3.638  0.00  0.00    -0.020 C 
ATOM     27  C   UNL     1      10.457  -8.461   3.464  0.00  0.00    -0.079 C 
ATOM     28  H   UNL     1       9.736  -8.024   5.341  0.00  0.00    -0.081 HD
ENDBRANCH  19  23
ENDBRANCH   1  16
TORSDOF 6
