REMARK  Name = ZINC01224932
REMARK  7 active torsions:
REMARK  status: ('A' for Active; 'I' for Inactive)
REMARK    1  A    between atoms: C_1  and  C_2
REMARK    2  A    between atoms: C_6  and  C_15
REMARK    3  A    between atoms: C_13  and  C_14
REMARK    4  A    between atoms: C_15  and  C_17
REMARK    5  A    between atoms: C_15  and  N_63
REMARK    6  A    between atoms: N_21  and  C_22
REMARK    7  A    between atoms: C_30  and  C_33
REMARK                            x       y       z     vdW  Elec       q    Type
REMARK                         _______ _______ _______ _____ _____    ______ ____
ROOT
ATOM      1  C   UNL     1       0.002  -0.004   0.002  0.00  0.00    +0.039 C 
ENDROOT
BRANCH   1   7
ATOM      2  C   UNL     1      -3.612   6.519   0.066  0.00  0.00    +0.044 C 
ATOM      3  C   UNL     1      -2.330   5.727   0.051  0.00  0.00    -0.047 A 
ATOM      4  C   UNL     1      -2.378   4.361   0.046  0.00  0.00    +0.013 A 
ATOM      5  C   UNL     1      -1.189   3.626   0.032  0.00  0.00    -0.001 A 
ATOM      6  C   UNL     1      -1.203   2.162   0.019  0.00  0.00    +0.017 A 
ATOM      7  C   UNL     1      -0.018   1.503   0.010  0.00  0.00    +0.011 A 
ATOM      8  C   UNL     1       1.196   2.222   0.003  0.00  0.00    +0.251 A 
ATOM      9  O   UNL     1       2.249   1.610  -0.010  0.00  0.00    -0.268 OA
ATOM     10  N   UNL     1       1.219   3.567   0.009  0.00  0.00    -0.322 N 
ATOM     11  H   UNL     1       2.098   4.044   0.003  0.00  0.00    +0.169 HD
ATOM     12  C   UNL     1       0.050   4.296   0.023  0.00  0.00    +0.049 A 
ATOM     13  C   UNL     1       0.073   5.687   0.029  0.00  0.00    +0.030 A 
ATOM     14  C   UNL     1      -1.112   6.391   0.042  0.00  0.00    -0.046 A 
ATOM     15  C   UNL     1      -1.084   7.898   0.047  0.00  0.00    +0.044 C 
ENDBRANCH   1   7
BRANCH   1  22
ATOM     16  C   UNL     1       0.276   0.074  -2.402  0.00  0.00    -0.077 C 
ATOM     17  C   UNL     1       1.206  -0.319  -3.552  0.00  0.00    -0.018 C 
ATOM     18  C   UNL     1       1.287  -1.846  -3.636  0.00  0.00    -0.001 C 
ATOM     19  C   UNL     1       1.781  -2.398  -2.297  0.00  0.00    -0.031 C 
ATOM     20  C   UNL     1       0.834  -1.944  -1.183  0.00  0.00    -0.074 C 
ATOM     21  C   UNL     1       1.808  -3.927  -2.352  0.00  0.00    +0.005 C 
ATOM     22  N   UNL     1       0.820  -0.466  -1.138  0.00  0.00    +0.389 N 
ATOM     23  H   UNL     1       1.782  -0.128  -1.018  0.00  0.00    -0.080 HD
ENDBRANCH   1  22
BRANCH   1  24
ATOM     24  C   UNL     1       0.622  -0.505   1.281  0.00  0.00    +0.143 A 
ATOM     25  N   UNL     1       1.895  -0.493   1.591  0.00  0.00    -0.115 NA
ATOM     26  N   UNL     1       2.023  -1.005   2.766  0.00  0.00    -0.023 NA
ATOM     27  N   UNL     1       0.865  -1.343   3.214  0.00  0.00    -0.044 NA
ATOM     28  N   UNL     1      -0.026  -1.046   2.330  0.00  0.00    -0.227 N 
BRANCH  28  29
ATOM     29  C   UNL     1      -1.471  -1.260   2.444  0.00  0.00    +0.111 C 
ATOM     30  C   UNL     1      -2.018  -0.524   3.684  0.00  0.00    +0.027 C 
ATOM     31  C   UNL     1      -3.106  -1.476   4.241  0.00  0.00    +0.002 C 
ATOM     32  C   UNL     1      -2.484  -2.877   4.014  0.00  0.00    +0.002 C 
ATOM     33  C   UNL     1      -1.767  -2.756   2.653  0.00  0.00    +0.027 C 
ENDBRANCH  28  29
ENDBRANCH   1  24
TORSDOF 4
