REMARK  Name = ZINC63386600
REMARK  5 active torsions:
REMARK  status: ('A' for Active; 'I' for Inactive)
REMARK    1  A    between atoms: C_3  and  C_13
REMARK    2  A    between atoms: C_4  and  N_8
REMARK    3  A    between atoms: N_15  and  C_16
REMARK    4  A    between atoms: C_16  and  C_17
REMARK    5  A    between atoms: C_17  and  C_18
REMARK                            x       y       z     vdW  Elec       q    Type
REMARK                         _______ _______ _______ _____ _____    ______ ____
ROOT
ATOM      1  C   UNL     1       3.633   2.162  -0.361  0.00  0.00    +0.246 C 
ATOM      2  O   UNL     1       4.701   1.586  -0.283  0.00  0.00    -0.270 OA
ATOM      3  N   UNL     1       3.597   3.485  -0.616  0.00  0.00    -0.311 N 
ATOM      4  H   UNL     1       2.745   3.943  -0.679  0.00  0.00    +0.149 HD
ENDROOT
BRANCH   1   7
ATOM      5  C   UNL     1      -0.025   1.333  -0.223  0.00  0.00    +0.039 A 
ATOM      6  C   UNL     1       1.147   2.038  -0.395  0.00  0.00    +0.018 A 
ATOM      7  C   UNL     1       2.376   1.411  -0.178  0.00  0.00    +0.062 A 
ATOM      8  C   UNL     1       2.409   0.065   0.214  0.00  0.00    +0.084 A 
ATOM      9  C   UNL     1       1.223  -0.631   0.383  0.00  0.00    +0.067 A 
ATOM     10  C   UNL     1       0.011   0.001   0.165  0.00  0.00    +0.125 A 
ATOM     11  F   UNL     1      -1.143  -0.682   0.331  0.00  0.00    -0.205 F 
BRANCH   8  12
ATOM     12  N   UNL     1       3.635  -0.572   0.433  0.00  0.00    -0.199 N 
ATOM     13  C   UNL     1       4.107  -1.677  -0.184  0.00  0.00    +0.250 A 
ATOM     14  N   UNL     1       5.286  -1.930   0.321  0.00  0.00    -0.116 NA
ATOM     15  N   UNL     1       5.592  -1.060   1.215  0.00  0.00    -0.023 NA
ATOM     16  N   UNL     1       4.642  -0.197   1.339  0.00  0.00    -0.039 NA
ENDBRANCH   8  12
ENDBRANCH   1   7
BRANCH   3  17
ATOM     17  C   UNL     1       4.845   4.229  -0.798  0.00  0.00    +0.109 C 
BRANCH  17  18
ATOM     18  C   UNL     1       4.526   5.700  -1.073  0.00  0.00    +0.052 C 
BRANCH  18  19
ATOM     19  C   UNL     1       5.810   6.467  -1.260  0.00  0.00    -0.040 C 
ATOM     20  C   UNL     1       6.419   6.760  -2.431  0.00  0.00    +0.000 A 
ATOM     21  C   UNL     1       6.081   6.463  -3.828  0.00  0.00    +0.030 A 
ATOM     22  C   UNL     1       6.905   6.899  -4.809  0.00  0.00    +0.042 A 
ATOM     23  C   UNL     1       8.072   7.624  -4.524  0.00  0.00    +0.022 A 
ATOM     24  C   UNL     1       8.448   7.934  -3.266  0.00  0.00    +0.027 A 
ATOM     25  C   UNL     1       7.655   7.527  -2.158  0.00  0.00    +0.043 A 
ATOM     26  N   UNL     1       7.804   7.701  -0.867  0.00  0.00    -0.380 N 
ATOM     27  C   UNL     1       6.675   7.069  -0.175  0.00  0.00    +0.144 C 
ATOM     28 CL   UNL     1       6.509   6.550  -6.463  0.00  0.00    -0.084 Cl
ATOM     29  H   UNL     1       8.537   8.173  -0.441  0.00  0.00    +0.160 HD
ENDBRANCH  18  19
ENDBRANCH  17  18
ENDBRANCH   3  17
TORSDOF 5
