REMARK  Name = ZINC58834461
REMARK  10 active torsions:
REMARK  status: ('A' for Active; 'I' for Inactive)
REMARK    1  A    between atoms: C_1  and  C_2
REMARK    2  A    between atoms: C_2  and  O_3
REMARK    3  A    between atoms: O_3  and  C_4
REMARK    4  A    between atoms: C_6  and  C_14
REMARK    5  A    between atoms: C_9  and  O_10
REMARK    6  A    between atoms: O_10  and  C_11
REMARK    7  A    between atoms: C_11  and  C_13
REMARK    8  A    between atoms: N_18  and  C_25
REMARK    9  A    between atoms: N_21  and  C_24
REMARK   10  A    between atoms: C_37  and  C_39
REMARK                            x       y       z     vdW  Elec       q    Type
REMARK                         _______ _______ _______ _____ _____    ______ ____
ROOT
ATOM      1  C   UNL     1       2.597  -4.113  -0.098  0.00  0.00    +0.093 C 
ATOM      2  C   UNL     1       2.010  -5.319   0.592  0.00  0.00    +0.068 A 
ATOM      3  C   UNL     1       2.210  -6.586   0.143  0.00  0.00    +0.125 A 
ATOM      4  N   UNL     1       1.649  -7.641   0.828  0.00  0.00    -0.284 N 
ATOM      5  C   UNL     1       0.906  -7.427   1.927  0.00  0.00    +0.333 A 
ATOM      6  O   UNL     1       0.420  -8.373   2.517  0.00  0.00    -0.246 OA
ATOM      7  N   UNL     1       0.693  -6.180   2.385  0.00  0.00    -0.264 N 
ATOM      8  C   UNL     1       1.224  -5.120   1.747  0.00  0.00    +0.262 A 
ATOM      9  O   UNL     1       1.028  -3.993   2.166  0.00  0.00    -0.267 OA
ATOM     10  C   UNL     1      -0.123  -5.973   3.584  0.00  0.00    +0.157 C 
ATOM     11  C   UNL     1       1.865  -9.010   0.353  0.00  0.00    +0.155 C 
ATOM     12  N   UNL     1       2.958  -6.858  -0.990  0.00  0.00    -0.224 N 
ATOM     13  C   UNL     1       3.267  -5.811  -1.842  0.00  0.00    +0.058 C 
ATOM     14  C   UNL     1       3.107  -4.508  -1.457  0.00  0.00    +0.034 C 
ATOM     15  C   UNL     1       3.504  -3.637  -2.558  0.00  0.00    +0.193 C 
ATOM     16  O   UNL     1       3.486  -2.421  -2.563  0.00  0.00    -0.287 OA
ATOM     17  C   UNL     1       3.934  -4.519  -3.666  0.00  0.00    +0.031 A 
ATOM     18  C   UNL     1       3.784  -5.853  -3.214  0.00  0.00    +0.008 A 
ATOM     19  C   UNL     1       4.111  -6.922  -4.037  0.00  0.00    +0.010 A 
ATOM     20  C   UNL     1       4.585  -6.617  -5.315  0.00  0.00    +0.001 A 
ATOM     21  C   UNL     1       4.727  -5.321  -5.750  0.00  0.00    +0.001 A 
ATOM     22  C   UNL     1       4.405  -4.233  -4.933  0.00  0.00    +0.012 A 
ATOM     23  C   UNL     1       3.375  -8.112  -1.257  0.00  0.00    +0.222 C 
ATOM     24  O   UNL     1       4.017  -8.726  -0.432  0.00  0.00    -0.275 OA
ATOM     25  C   UNL     1       3.043  -8.750  -2.582  0.00  0.00    +0.110 C 
ENDROOT
BRANCH   1  28
ATOM     26  C   UNL     1       4.726  -1.771   1.966  0.00  0.00    +0.163 A 
ATOM     27  C   UNL     1       3.680  -2.274   1.208  0.00  0.00    +0.054 A 
ATOM     28  C   UNL     1       3.735  -3.568   0.727  0.00  0.00    -0.031 A 
ATOM     29  C   UNL     1       4.832  -4.365   1.000  0.00  0.00    +0.008 A 
ATOM     30  C   UNL     1       5.878  -3.870   1.755  0.00  0.00    +0.050 A 
ATOM     31  C   UNL     1       5.832  -2.571   2.236  0.00  0.00    +0.173 A 
BRANCH  26  32
ATOM     32  O   UNL     1       4.673  -0.498   2.440  0.00  0.00    -0.489 OA
BRANCH  32  34
ATOM     33  C   UNL     1       3.628   1.661   2.738  0.00  0.00    +0.048 C 
ATOM     34  C   UNL     1       3.507   0.265   2.124  0.00  0.00    +0.226 C 
ENDBRANCH  32  34
ENDBRANCH  26  32
BRANCH  31  35
ATOM     35  O   UNL     1       6.864  -2.081   2.975  0.00  0.00    -0.422 OA
BRANCH  35  36
ATOM     36  C   UNL     1       6.725  -2.054   4.310  0.00  0.00    +0.309 C 
ATOM     37  O   UNL     1       5.747  -2.540   4.826  0.00  0.00    -0.251 OA
ATOM     38  C   UNL     1       7.790  -1.417   5.165  0.00  0.00    +0.136 C 
ENDBRANCH  35  36
ENDBRANCH  31  35
ENDBRANCH   1  28
TORSDOF 5
