REMARK  Name = ZINC53112653
REMARK  7 active torsions:
REMARK  status: ('A' for Active; 'I' for Inactive)
REMARK    1  A    between atoms: C_1  and  C_2
REMARK    2  A    between atoms: C_4  and  N_21
REMARK    3  A    between atoms: C_7  and  C_8
REMARK    4  A    between atoms: N_10  and  C_11
REMARK    5  A    between atoms: C_11  and  C_19
REMARK    6  A    between atoms: C_15  and  C_18
REMARK    7  A    between atoms: C_19  and  O_20
REMARK                            x       y       z     vdW  Elec       q    Type
REMARK                         _______ _______ _______ _____ _____    ______ ____
ROOT
ATOM      1  C   UNL     1      -1.334  -1.796   3.630  0.00  0.00    +0.245 C 
ATOM      2  O   UNL     1      -2.131  -1.947   4.535  0.00  0.00    -0.270 OA
ATOM      3  N   UNL     1      -0.487  -0.749   3.645  0.00  0.00    -0.304 N 
ATOM      4  H   UNL     1       0.101  -0.589   2.890  0.00  0.00    +0.150 HD
ENDROOT
BRANCH   1  11
ATOM      5  C   UNL     1      -3.180  -4.022   3.605  0.00  0.00    +0.044 C 
ATOM      6  C   UNL     1      -2.182  -3.841   2.491  0.00  0.00    -0.037 A 
ATOM      7  C   UNL     1      -2.146  -4.736   1.446  0.00  0.00    +0.026 A 
ATOM      8  C   UNL     1      -1.224  -4.570   0.416  0.00  0.00    +0.025 A 
ATOM      9  C   UNL     1      -0.336  -3.498   0.440  0.00  0.00    +0.023 A 
ATOM     10  C   UNL     1      -0.366  -2.600   1.481  0.00  0.00    +0.015 A 
ATOM     11  C   UNL     1      -1.295  -2.761   2.514  0.00  0.00    +0.040 A 
BRANCH   8  12
ATOM     12  N   UNL     1      -1.191  -5.476  -0.638  0.00  0.00    -0.358 N 
ATOM     13  H   UNL     1      -1.809  -6.223  -0.656  0.00  0.00    +0.142 HD
ATOM     14  H   UNL     1      -0.549  -5.361  -1.356  0.00  0.00    +0.142 HD
ENDBRANCH   8  12
ENDBRANCH   1  11
BRANCH   3  15
ATOM     15  C   UNL     1      -0.454   0.150   4.801  0.00  0.00    +0.058 C 
ATOM     16  C   UNL     1       0.543   1.281   4.540  0.00  0.00    +0.028 C 
ATOM     17  C   UNL     1       1.936   0.692   4.312  0.00  0.00    +0.002 C 
ATOM     18  C   UNL     1       2.368  -0.091   5.554  0.00  0.00    +0.003 C 
ATOM     19  C   UNL     1       1.371  -1.223   5.815  0.00  0.00    -0.012 C 
ATOM     20  C   UNL     1      -0.022  -0.633   6.043  0.00  0.00    +0.031 C 
ATOM     21  C   UNL     1       1.337  -2.161   4.607  0.00  0.00    +0.007 C 
BRANCH  15  22
ATOM     22  C   UNL     1      -1.847   0.740   5.029  0.00  0.00    +0.181 C 
BRANCH  22  23
ATOM     23  O   UNL     1      -2.266   1.438   3.855  0.00  0.00    -0.393 OA
ATOM     24  H   UNL     1      -3.143   1.839   3.928  0.00  0.00    +0.209 HD
ENDBRANCH  22  23
ENDBRANCH  15  22
ENDBRANCH   3  15
TORSDOF 5
