REMARK  Name = ZINC63530319
REMARK  5 active torsions:
REMARK  status: ('A' for Active; 'I' for Inactive)
REMARK    1  A    between atoms: C_1  and  C_2
REMARK    2  A    between atoms: C_5  and  C_30
REMARK    3  A    between atoms: C_10  and  C_12
REMARK    4  A    between atoms: C_14  and  S_22
REMARK    5  A    between atoms: S_22  and  C_23
REMARK                            x       y       z     vdW  Elec       q    Type
REMARK                         _______ _______ _______ _____ _____    ______ ____
ROOT
ATOM      1  C   UNL     1       3.242  -2.310   1.104  0.00  0.00    +0.204 C 
ATOM      2  C   UNL     1       3.672  -1.471  -0.080  0.00  0.00    +0.030 C 
ATOM      3  C   UNL     1       4.974  -1.865  -0.367  0.00  0.00    +0.010 A 
ATOM      4  C   UNL     1       5.899  -1.453  -1.351  0.00  0.00    +0.011 A 
ATOM      5  C   UNL     1       7.130  -2.024  -1.400  0.00  0.00    +0.001 A 
ATOM      6  C   UNL     1       7.511  -3.018  -0.497  0.00  0.00    +0.002 A 
ATOM      7  C   UNL     1       6.673  -3.462   0.473  0.00  0.00    +0.026 A 
ATOM      8  C   UNL     1       5.372  -2.912   0.587  0.00  0.00    +0.044 A 
ATOM      9  N   UNL     1       4.385  -3.168   1.429  0.00  0.00    -0.369 N 
ATOM     10  H   UNL     1       4.413  -3.820   2.147  0.00  0.00    +0.161 HD
ENDROOT
BRANCH   1  18
ATOM     11  C   UNL     1      -0.759   0.716   1.347  0.00  0.00    +0.009 C 
ATOM     12  C   UNL     1      -0.420  -0.629   0.702  0.00  0.00    +0.004 C 
ATOM     13  C   UNL     1      -1.694  -1.467   0.570  0.00  0.00    +0.009 C 
ATOM     14  C   UNL     1      -1.362  -2.800  -0.104  0.00  0.00    +0.004 C 
ATOM     15  C   UNL     1      -0.363  -3.572   0.764  0.00  0.00    +0.111 C 
ATOM     16  N   UNL     1       0.804  -2.717   1.016  0.00  0.00    -0.299 N 
ATOM     17  C   UNL     1       0.590  -1.376   1.579  0.00  0.00    +0.111 C 
ATOM     18  C   UNL     1       2.048  -3.153   0.737  0.00  0.00    +0.243 C 
ATOM     19  O   UNL     1       2.207  -4.223   0.190  0.00  0.00    -0.273 OA
ATOM     20  C   UNL     1      -0.748  -2.538  -1.480  0.00  0.00    +0.009 C 
ENDBRANCH   1  18
BRANCH   2  21
ATOM     21  S   UNL     1       2.774  -0.321  -0.872  0.00  0.00    -0.091 S 
BRANCH  21  22
ATOM     22  C   UNL     1       2.807   1.067   0.214  0.00  0.00    +0.013 A 
ATOM     23  C   UNL     1       3.524   1.004   1.403  0.00  0.00    +0.016 A 
ATOM     24  C   UNL     1       3.547   2.093   2.251  0.00  0.00    +0.021 A 
ATOM     25  C   UNL     1       2.857   3.246   1.919  0.00  0.00    +0.041 A 
ATOM     26  C   UNL     1       2.142   3.311   0.736  0.00  0.00    +0.021 A 
ATOM     27  C   UNL     1       2.119   2.227  -0.119  0.00  0.00    +0.016 A 
ATOM     28 CL   UNL     1       2.888   4.612   2.990  0.00  0.00    -0.084 Cl
ENDBRANCH  21  22
ENDBRANCH   2  21
TORSDOF 3
