REMARK  Name = ZINC19238562
REMARK  4 active torsions:
REMARK  status: ('A' for Active; 'I' for Inactive)
REMARK    1  A    between atoms: C_1  and  C_2
REMARK    2  A    between atoms: C_6  and  C_7
REMARK    3  A    between atoms: C_23  and  O_26
REMARK    4  A    between atoms: O_26  and  C_27
REMARK                            x       y       z     vdW  Elec       q    Type
REMARK                         _______ _______ _______ _____ _____    ______ ____
ROOT
ATOM      1  C   UNL     1       0.746  -0.510  -1.157  0.00  0.00    +0.041 C 
ATOM      2  N   UNL     1       1.142   0.448  -2.200  0.00  0.00    +0.393 N 
ATOM      3  C   UNL     1      -0.015   1.222  -2.676  0.00  0.00    -0.074 C 
ATOM      4  C   UNL     1      -0.609   2.006  -1.497  0.00  0.00    +0.010 C 
ATOM      5  C   UNL     1       0.206   1.665  -0.247  0.00  0.00    +0.058 C 
ATOM      6  N   UNL     1       0.148   0.212  -0.028  0.00  0.00    -0.300 NA
ATOM      7  C   UNL     1       0.756  -0.166   1.252  0.00  0.00    +0.088 C 
ATOM      8  C   UNL     1      -0.141   0.308   2.404  0.00  0.00    +0.053 C 
ATOM      9  C   UNL     1      -0.511   1.748   2.157  0.00  0.00    -0.016 A 
ATOM     10  C   UNL     1      -0.356   2.365   0.961  0.00  0.00    +0.041 A 
ATOM     11  N   UNL     1      -0.779   3.663   1.053  0.00  0.00    -0.356 N 
ATOM     12  H   UNL     1      -0.727   4.323   0.174  0.00  0.00    +0.166 HD
ATOM     13  C   UNL     1      -1.223   3.916   2.322  0.00  0.00    +0.047 A 
ATOM     14  C   UNL     1      -1.071   2.720   3.069  0.00  0.00    +0.007 A 
ATOM     15  C   UNL     1      -1.439   2.654   4.417  0.00  0.00    +0.056 A 
ATOM     16  C   UNL     1      -1.957   3.811   4.981  0.00  0.00    +0.121 A 
ATOM     17  C   UNL     1      -2.106   4.981   4.246  0.00  0.00    +0.047 A 
ATOM     18  C   UNL     1      -1.747   5.064   2.912  0.00  0.00    +0.030 A 
ATOM     19  C   UNL     1       1.661   2.087  -0.469  0.00  0.00    +0.010 C 
ATOM     20  C   UNL     1       2.198   1.344  -1.699  0.00  0.00    -0.074 C 
ATOM     21  H   UNL     1       1.539  -0.121  -3.054  0.00  0.00    -0.079 HD
ENDROOT
BRANCH   1  27
ATOM     22  C   UNL     1       1.293  -3.511  -1.512  0.00  0.00    +0.044 C 
ATOM     23  C   UNL     1       2.251  -2.583  -0.812  0.00  0.00    -0.041 A 
ATOM     24  C   UNL     1       3.440  -3.061  -0.294  0.00  0.00    +0.011 A 
ATOM     25  C   UNL     1       4.280  -2.199   0.329  0.00  0.00    +0.046 A 
ATOM     26  S   UNL     1       3.395  -0.655   0.189  0.00  0.00    -0.102 S 
ATOM     27  C   UNL     1       1.961  -1.265  -0.683  0.00  0.00    -0.007 A 
ENDBRANCH   1  27
BRANCH  16  28
ATOM     28  O   UNL     1      -2.330   3.800   6.289  0.00  0.00    -0.495 OA
ATOM     29  C   UNL     1      -2.858   5.015   6.823  0.00  0.00    +0.277 C 
ENDBRANCH  16  28
TORSDOF 2
