REMARK  Name = ZINC15085978
REMARK  11 active torsions:
REMARK  status: ('A' for Active; 'I' for Inactive)
REMARK    1  A    between atoms: C_1  and  O_2
REMARK    2  A    between atoms: O_2  and  C_3
REMARK    3  A    between atoms: C_6  and  C_9
REMARK    4  A    between atoms: N_10  and  N_11
REMARK    5  A    between atoms: C_12  and  C_14
REMARK    6  A    between atoms: C_17  and  C_20
REMARK    7  A    between atoms: C_20  and  C_21
REMARK    8  A    between atoms: C_22  and  O_33
REMARK    9  A    between atoms: C_25  and  O_28
REMARK   10  A    between atoms: O_28  and  C_29
REMARK   11  A    between atoms: O_33  and  C_34
REMARK                            x       y       z     vdW  Elec       q    Type
REMARK                         _______ _______ _______ _____ _____    ______ ____
ROOT
ATOM      1  C   UNL     1      -7.072   1.659   0.381  0.00  0.00    +0.147 C 
ATOM      2  N   UNL     1      -6.016   2.380   0.198  0.00  0.00    -0.084 NA
ATOM      3  O   UNL     1      -6.279   3.767   0.265  0.00  0.00    -0.389 OA
ATOM      4  C   UNL     1      -7.702   3.950   0.117  0.00  0.00    +0.215 C 
ATOM      5  C   UNL     1      -8.248   2.590   0.612  0.00  0.00    +0.111 C 
ENDROOT
BRANCH   1   7
ATOM      6  N   UNL     1      -6.001  -0.528   0.157  0.00  0.00    -0.202 N 
ATOM      7  C   UNL     1      -7.124   0.186   0.375  0.00  0.00    +0.281 C 
ATOM      8  O   UNL     1      -8.180  -0.386   0.566  0.00  0.00    -0.267 OA
ATOM      9  H   UNL     1      -5.159  -0.071   0.005  0.00  0.00    +0.178 HD
BRANCH   6  11
ATOM     10  C   UNL     1      -4.953  -2.616   0.068  0.00  0.00    +0.138 C 
ATOM     11  N   UNL     1      -6.051  -1.928   0.151  0.00  0.00    -0.187 NA
BRANCH  10  15
ATOM     12  C   UNL     1      -1.291  -0.940   1.410  0.00  0.00    +0.120 A 
ATOM     13  C   UNL     1      -1.281  -2.074   0.608  0.00  0.00    +0.046 A 
ATOM     14  C   UNL     1      -2.467  -2.625   0.175  0.00  0.00    +0.013 A 
ATOM     15  C   UNL     1      -3.682  -2.034   0.534  0.00  0.00    -0.005 A 
ATOM     16  C   UNL     1      -3.687  -0.890   1.337  0.00  0.00    +0.013 A 
ATOM     17  C   UNL     1      -2.496  -0.350   1.771  0.00  0.00    +0.046 A 
BRANCH  12  19
ATOM     18  C   UNL     1       1.083  -1.060   1.432  0.00  0.00    +0.277 C 
ATOM     19  O   UNL     1      -0.119  -0.403   1.839  0.00  0.00    -0.495 OA
ENDBRANCH  12  19
ENDBRANCH  10  15
ENDBRANCH   6  11
ENDBRANCH   1   7
BRANCH   4  20
ATOM     20  C   UNL     1      -8.075   4.191  -1.347  0.00  0.00    +0.087 C 
BRANCH  20  21
ATOM     21  C   UNL     1      -7.635   5.573  -1.756  0.00  0.00    +0.019 A 
ATOM     22  C   UNL     1      -6.370   5.768  -2.288  0.00  0.00    +0.170 A 
ATOM     23  C   UNL     1      -5.962   7.041  -2.666  0.00  0.00    +0.212 A 
ATOM     24  C   UNL     1      -6.826   8.119  -2.511  0.00  0.00    +0.212 A 
ATOM     25  C   UNL     1      -8.094   7.918  -1.979  0.00  0.00    +0.180 A 
ATOM     26  C   UNL     1      -8.497   6.645  -1.607  0.00  0.00    +0.070 A 
ATOM     27 BR   UNL     1     -10.225   6.373  -0.888  0.00  0.00    -0.046 Br
ATOM     28  O   UNL     1      -6.199   9.250  -2.952  0.00  0.00    -0.449 OA
ATOM     29  C   UNL     1      -4.798   8.919  -2.998  0.00  0.00    +0.467 C 
ATOM     30  O   UNL     1      -4.791   7.494  -3.204  0.00  0.00    -0.449 OA
BRANCH  25  31
ATOM     31  O   UNL     1      -8.942   8.972  -1.826  0.00  0.00    -0.490 OA
ATOM     32  C   UNL     1      -9.806   9.274  -2.923  0.00  0.00    +0.277 C 
ENDBRANCH  25  31
BRANCH  22  33
ATOM     33  O   UNL     1      -5.526   4.711  -2.438  0.00  0.00    -0.491 OA
ATOM     34  C   UNL     1      -5.584   4.006  -3.680  0.00  0.00    +0.277 C 
ENDBRANCH  22  33
ENDBRANCH  20  21
ENDBRANCH   4  20
TORSDOF 8
