REMARK  Name = ZINC03346975
REMARK  9 active torsions:
REMARK  status: ('A' for Active; 'I' for Inactive)
REMARK    1  A    between atoms: C_7  and  C_11
REMARK    2  A    between atoms: C_11  and  C_12
REMARK    3  A    between atoms: C_12  and  C_14
REMARK    4  A    between atoms: C_12  and  N_30
REMARK    5  A    between atoms: C_14  and  O_16
REMARK    6  A    between atoms: O_16  and  C_17
REMARK    7  A    between atoms: C_17  and  C_18
REMARK    8  A    between atoms: C_18  and  N_19
REMARK    9  A    between atoms: C_31  and  C_33
REMARK                            x       y       z     vdW  Elec       q    Type
REMARK                         _______ _______ _______ _____ _____    ______ ____
ROOT
ATOM      1  C   UNL     1       0.002  -0.004   0.002  0.00  0.00    +0.186 C 
ENDROOT
BRANCH   1   2
ATOM      2  N   UNL     1       1.311  -0.477   0.459  0.00  0.00    -0.298 N 
ATOM      3  C   UNL     1       2.426  -0.133  -0.215  0.00  0.00    +0.246 C 
ATOM      4  O   UNL     1       2.345   0.571  -1.204  0.00  0.00    -0.270 OA
ATOM      5  H   UNL     1       1.375  -1.038   1.248  0.00  0.00    +0.150 HD
BRANCH   3   6
ATOM      6  C   UNL     1       3.746  -0.610   0.246  0.00  0.00    +0.055 A 
ATOM      7  C   UNL     1       3.843  -1.413   1.384  0.00  0.00    +0.014 A 
ATOM      8  C   UNL     1       5.077  -1.860   1.806  0.00  0.00    +0.001 A 
ATOM      9  C   UNL     1       6.221  -1.505   1.111  0.00  0.00    +0.001 A 
ATOM     10  C   UNL     1       6.134  -0.705  -0.014  0.00  0.00    +0.021 A 
ATOM     11  C   UNL     1       4.903  -0.255  -0.451  0.00  0.00    +0.053 A 
ATOM     12 CL   UNL     1       4.795   0.750  -1.863  0.00  0.00    -0.083 Cl
ENDBRANCH   3   6
ENDBRANCH   1   2
BRANCH   1  13
ATOM     13  C   UNL     1      -0.018   1.503   0.010  0.00  0.00    +0.328 C 
ATOM     14  O   UNL     1       1.020   2.121   0.004  0.00  0.00    -0.249 OA
BRANCH  13  15
ATOM     15  O   UNL     1      -1.190   2.158   0.019  0.00  0.00    -0.462 OA
BRANCH  15  16
ATOM     16  C   UNL     1      -1.133   3.609   0.027  0.00  0.00    +0.251 C 
BRANCH  16  17
ATOM     17  C   UNL     1      -2.555   4.174   0.037  0.00  0.00    +0.158 C 
BRANCH  17  18
ATOM     18  N   UNL     1      -3.219   3.806   1.290  0.00  0.00    -0.231 N 
ATOM     19  C   UNL     1      -3.942   2.686   1.467  0.00  0.00    +0.254 C 
ATOM     20  O   UNL     1      -4.145   1.832   0.627  0.00  0.00    -0.270 OA
ATOM     21  C   UNL     1      -4.446   2.665   2.857  0.00  0.00    +0.049 A 
ATOM     22  C   UNL     1      -5.224   1.784   3.591  0.00  0.00    +0.014 A 
ATOM     23  C   UNL     1      -5.528   2.074   4.912  0.00  0.00    +0.001 A 
ATOM     24  C   UNL     1      -5.062   3.235   5.500  0.00  0.00    +0.001 A 
ATOM     25  C   UNL     1      -4.283   4.125   4.778  0.00  0.00    +0.014 A 
ATOM     26  C   UNL     1      -3.971   3.849   3.457  0.00  0.00    +0.049 A 
ATOM     27  C   UNL     1      -3.190   4.546   2.413  0.00  0.00    +0.254 C 
ATOM     28  O   UNL     1      -2.618   5.609   2.547  0.00  0.00    -0.270 OA
ENDBRANCH  17  18
ENDBRANCH  16  17
ENDBRANCH  15  16
ENDBRANCH  13  15
ENDBRANCH   1  13
BRANCH   1  29
ATOM     29  C   UNL     1      -0.255  -0.510  -1.419  0.00  0.00    +0.071 C 
BRANCH  29  36
ATOM     30  C   UNL     1      -3.778  -3.479  -0.555  0.00  0.00    +0.001 A 
ATOM     31  C   UNL     1      -3.401  -4.811  -0.661  0.00  0.00    +0.002 A 
ATOM     32  C   UNL     1      -2.110  -5.151  -0.998  0.00  0.00    +0.026 A 
ATOM     33  C   UNL     1      -1.168  -4.151  -1.222  0.00  0.00    +0.047 A 
ATOM     34  C   UNL     1      -1.554  -2.803  -1.111  0.00  0.00    +0.003 A 
ATOM     35  C   UNL     1      -2.871  -2.481  -0.776  0.00  0.00    +0.010 A 
ATOM     36  C   UNL     1      -0.357  -2.013  -1.406  0.00  0.00    -0.020 A 
ATOM     37  C   UNL     1       0.635  -2.883  -1.658  0.00  0.00    +0.087 A 
ATOM     38  N   UNL     1       0.168  -4.165  -1.553  0.00  0.00    -0.360 N 
ATOM     39  H   UNL     1       0.700  -4.964  -1.690  0.00  0.00    +0.165 HD
ENDBRANCH  29  36
ENDBRANCH   1  29
TORSDOF 9
