REMARK  Name = ZINC20622529
REMARK  5 active torsions:
REMARK  status: ('A' for Active; 'I' for Inactive)
REMARK    1  A    between atoms: C_1  and  C_2
REMARK    2  A    between atoms: C_2  and  C_3
REMARK    3  A    between atoms: C_3  and  C_5
REMARK    4  A    between atoms: C_3  and  N_6
REMARK    5  A    between atoms: C_9  and  C_16
REMARK                            x       y       z     vdW  Elec       q    Type
REMARK                         _______ _______ _______ _____ _____    ______ ____
ROOT
ATOM      1  C   UNL     1      -2.527   3.747   0.047  0.00  0.00    +0.018 C 
ATOM      2  C   UNL     1      -2.650   4.523   1.337  0.00  0.00    +0.011 A 
ATOM      3  C   UNL     1      -3.090   5.804   1.385  0.00  0.00    -0.022 A 
ATOM      4  C   UNL     1      -3.063   6.212   2.772  0.00  0.00    +0.004 A 
ATOM      5  C   UNL     1      -3.401   7.405   3.419  0.00  0.00    +0.030 A 
ATOM      6  C   UNL     1      -3.245   7.437   4.784  0.00  0.00    +0.042 A 
ATOM      7  C   UNL     1      -2.776   6.345   5.497  0.00  0.00    +0.022 A 
ATOM      8  C   UNL     1      -2.435   5.153   4.882  0.00  0.00    +0.027 A 
ATOM      9  C   UNL     1      -2.583   5.091   3.498  0.00  0.00    +0.047 A 
ATOM     10  N   UNL     1      -2.344   4.093   2.596  0.00  0.00    -0.359 N 
ATOM     11  H   UNL     1      -1.966   3.072   2.752  0.00  0.00    +0.166 HD
ATOM     12 CL   UNL     1      -3.648   8.892   5.641  0.00  0.00    -0.084 Cl
ATOM     13  C   UNL     1      -3.513   6.586   0.166  0.00  0.00    +0.018 C 
ATOM     14  C   UNL     1      -3.726   5.592  -0.984  0.00  0.00    -0.076 C 
ATOM     15  N   UNL     1      -2.565   4.696  -1.078  0.00  0.00    +0.388 N 
ATOM     16  H   UNL     1      -1.651   5.307  -1.073  0.00  0.00    -0.084 HD
ATOM     17  H   UNL     1      -2.630   4.139  -2.025  0.00  0.00    -0.084 HD
ENDROOT
BRANCH   1  21
ATOM     18  N   UNL     1       1.157   2.995   0.007  0.00  0.00    -0.258 N 
ATOM     19  C   UNL     1       0.001   3.688   0.022  0.00  0.00    +0.262 A 
ATOM     20  O   UNL     1       0.015   4.907   0.028  0.00  0.00    -0.267 OA
ATOM     21  C   UNL     1      -1.222   2.994   0.030  0.00  0.00    +0.073 A 
ATOM     22  C   UNL     1      -1.211   1.631   0.017  0.00  0.00    +0.260 A 
ATOM     23  N   UNL     1      -0.011   0.966   0.007  0.00  0.00    -0.275 N 
ATOM     24  H   UNL     1       0.008  -0.134   0.006  0.00  0.00    +0.173 HD
ATOM     25  C   UNL     1       1.148   1.650   0.000  0.00  0.00    +0.332 A 
ATOM     26  O   UNL     1       2.201   1.043  -0.013  0.00  0.00    -0.246 OA
ATOM     27  O   UNL     1      -2.371   0.941   0.018  0.00  0.00    -0.267 OA
BRANCH  18  28
ATOM     28  C   UNL     1       2.434   3.713  -0.002  0.00  0.00    +0.092 C 
ATOM     29  C   UNL     1       3.244   3.328   1.237  0.00  0.00    +0.031 C 
BRANCH  28  31
ATOM     30  C   UNL     1       2.468   3.838  -2.497  0.00  0.00    +0.006 C 
ATOM     31  C   UNL     1       3.220   3.341  -1.261  0.00  0.00    +0.022 C 
ENDBRANCH  28  31
ENDBRANCH  18  28
ENDBRANCH   1  21
TORSDOF 3
