REMARK  Name = ZINC52953168
REMARK  5 active torsions:
REMARK  status: ('A' for Active; 'I' for Inactive)
REMARK    1  A    between atoms: C_1  and  C_2
REMARK    2  A    between atoms: C_2  and  C_3
REMARK    3  A    between atoms: C_3  and  C_24
REMARK    4  A    between atoms: N_6  and  N_10
REMARK    5  A    between atoms: C_11  and  C_13
REMARK                            x       y       z     vdW  Elec       q    Type
REMARK                         _______ _______ _______ _____ _____    ______ ____
ROOT
ATOM      1  C   UNL     1      -1.433  -0.534   0.013  0.00  0.00    +0.139 C 
ATOM      2  C   UNL     1      -2.205   0.042   1.184  0.00  0.00    +0.268 C 
ATOM      3  O   UNL     1      -1.958  -0.098   2.363  0.00  0.00    -0.271 OA
ATOM      4  N   UNL     1      -3.222   0.740   0.642  0.00  0.00    -0.137 N 
ATOM      5  C   UNL     1      -3.200   0.687  -0.695  0.00  0.00    +0.327 C 
ATOM      6  O   UNL     1      -4.016   1.240  -1.406  0.00  0.00    -0.251 OA
ATOM      7  N   UNL     1      -2.175  -0.046  -1.163  0.00  0.00    -0.280 N 
ATOM      8  H   UNL     1      -1.964  -0.220  -2.094  0.00  0.00    +0.152 HD
ENDROOT
BRANCH   1   9
ATOM      9  C   UNL     1      -1.441  -2.040   0.057  0.00  0.00    -0.015 A 
ATOM     10  C   UNL     1      -0.412  -2.718   0.684  0.00  0.00    +0.006 A 
ATOM     11  C   UNL     1      -0.419  -4.100   0.725  0.00  0.00    +0.000 A 
ATOM     12  C   UNL     1      -1.454  -4.803   0.139  0.00  0.00    +0.000 A 
ATOM     13  C   UNL     1      -2.483  -4.125  -0.487  0.00  0.00    +0.000 A 
ATOM     14  C   UNL     1      -2.479  -2.744  -0.524  0.00  0.00    +0.006 A 
ENDBRANCH   1   9
BRANCH   4  15
ATOM     15  N   UNL     1      -4.184   1.436   1.387  0.00  0.00    -0.221 N 
ATOM     16  C   UNL     1      -4.133   2.781   1.464  0.00  0.00    +0.271 C 
ATOM     17  O   UNL     1      -3.256   3.389   0.888  0.00  0.00    -0.270 OA
ATOM     18  H   UNL     1      -4.886   0.950   1.847  0.00  0.00    +0.174 HD
BRANCH  16  19
ATOM     19  C   UNL     1      -5.168   3.529   2.264  0.00  0.00    +0.264 C 
ATOM     20  C   UNL     1      -5.012   3.231   3.775  0.00  0.00    +0.093 C 
ATOM     21  C   UNL     1      -4.112   4.364   4.226  0.00  0.00    -0.000 A 
ATOM     22  C   UNL     1      -3.367   4.553   5.370  0.00  0.00    +0.027 A 
ATOM     23  C   UNL     1      -2.613   5.705   5.521  0.00  0.00    +0.041 A 
ATOM     24  C   UNL     1      -2.612   6.661   4.521  0.00  0.00    +0.023 A 
ATOM     25  C   UNL     1      -3.360   6.474   3.377  0.00  0.00    +0.047 A 
ATOM     26  C   UNL     1      -4.124   5.320   3.219  0.00  0.00    +0.125 A 
ATOM     27  O   UNL     1      -4.941   4.947   2.191  0.00  0.00    -0.479 OA
ATOM     28 CL   UNL     1      -1.672   5.947   6.960  0.00  0.00    -0.084 Cl
ENDBRANCH  16  19
ENDBRANCH   4  15
BRANCH   1  30
ATOM     29  C   UNL     1      -0.019   1.526   0.010  0.00  0.00    +0.007 C 
ATOM     30  C   UNL     1       0.002  -0.004   0.002  0.00  0.00    +0.037 C 
ENDBRANCH   1  30
TORSDOF 4
