REMARK  Name = ZINC03059532
REMARK  8 active torsions:
REMARK  status: ('A' for Active; 'I' for Inactive)
REMARK    1  A    between atoms: C_1  and  C_2
REMARK    2  A    between atoms: N_8  and  C_9
REMARK    3  A    between atoms: C_9  and  C_10
REMARK    4  A    between atoms: C_10  and  N_11
REMARK    5  A    between atoms: C_12  and  C_14
REMARK    6  A    between atoms: C_17  and  C_20
REMARK    7  A    between atoms: N_24  and  C_32
REMARK    8  A    between atoms: C_32  and  C_33
REMARK                            x       y       z     vdW  Elec       q    Type
REMARK                         _______ _______ _______ _____ _____    ______ ____
ROOT
ATOM      1  C   UNL     1      -8.635   4.212  -0.810  0.00  0.00    +0.037 A 
ATOM      2  C   UNL     1      -9.332   3.061  -0.431  0.00  0.00    +0.013 A 
ATOM      3  C   UNL     1     -10.630   2.889  -0.819  0.00  0.00    +0.009 A 
ATOM      4  C   UNL     1     -11.259   3.860  -1.607  0.00  0.00    -0.021 A 
ATOM      5  C   UNL     1     -10.558   5.009  -1.992  0.00  0.00    +0.009 A 
ATOM      6  C   UNL     1      -9.262   5.182  -1.597  0.00  0.00    +0.013 A 
ENDROOT
BRANCH   4   7
ATOM      7  C   UNL     1     -12.654   3.672  -2.032  0.00  0.00    +0.059 C 
ATOM      8  C   UNL     1     -13.275   2.492  -1.809  0.00  0.00    +0.191 C 
ATOM      9  C   UNL     1     -14.740   2.348  -1.971  0.00  0.00    +0.287 C 
ATOM     10  O   UNL     1     -15.485   3.302  -1.855  0.00  0.00    -0.266 OA
ATOM     11  N   UNL     1     -15.216   1.109  -2.257  0.00  0.00    -0.257 N 
ATOM     12  C   UNL     1     -14.309   0.050  -2.386  0.00  0.00    +0.079 A 
ATOM     13  C   UNL     1     -14.722  -1.155  -2.937  0.00  0.00    +0.027 A 
ATOM     14  C   UNL     1     -13.824  -2.198  -3.066  0.00  0.00    +0.002 A 
ATOM     15  C   UNL     1     -12.515  -2.046  -2.647  0.00  0.00    +0.004 A 
ATOM     16  C   UNL     1     -12.095  -0.849  -2.097  0.00  0.00    +0.048 A 
ATOM     17  C   UNL     1     -12.989   0.201  -1.964  0.00  0.00    +0.150 A 
ATOM     18  O   UNL     1     -12.580   1.382  -1.420  0.00  0.00    -0.449 OA
BRANCH  11  19
ATOM     19  C   UNL     1     -16.654   0.884  -2.423  0.00  0.00    +0.149 C 
BRANCH  19  20
ATOM     20  C   UNL     1     -17.264   0.536  -1.089  0.00  0.00    -0.030 A 
ATOM     21  C   UNL     1     -17.343  -0.785  -0.689  0.00  0.00    +0.006 A 
ATOM     22  C   UNL     1     -17.898  -1.103   0.536  0.00  0.00    +0.020 A 
ATOM     23  C   UNL     1     -18.385  -0.101   1.357  0.00  0.00    +0.041 A 
ATOM     24  C   UNL     1     -18.311   1.220   0.953  0.00  0.00    +0.020 A 
ATOM     25  C   UNL     1     -17.750   1.538  -0.270  0.00  0.00    +0.006 A 
ATOM     26 CL   UNL     1     -19.088  -0.502   2.893  0.00  0.00    -0.084 Cl
ENDBRANCH  19  20
ENDBRANCH  11  19
ENDBRANCH   4   7
BRANCH   1  28
ATOM     27  N   UNL     1      -6.628   3.464   0.374  0.00  0.00    -0.313 N 
ATOM     28  C   UNL     1      -7.233   4.400  -0.384  0.00  0.00    +0.244 C 
ATOM     29  O   UNL     1      -6.625   5.398  -0.718  0.00  0.00    -0.270 OA
ATOM     30  H   UNL     1      -7.178   2.561   0.676  0.00  0.00    +0.149 HD
BRANCH  27  31
ATOM     31  C   UNL     1      -5.238   3.651   0.797  0.00  0.00    +0.086 C 
BRANCH  31  32
ATOM     32  C   UNL     1      -4.797   2.454   1.641  0.00  0.00    -0.059 C 
BRANCH  32  39
ATOM     33  C   UNL     1      -4.030   1.736   4.252  0.00  0.00    -0.013 C 
ATOM     34  C   UNL     1      -3.030   1.663   3.096  0.00  0.00    -0.072 C 
ATOM     35  C   UNL     1      -1.625   1.978   3.617  0.00  0.00    -0.016 C 
ATOM     36  C   UNL     1      -0.632   1.924   2.452  0.00  0.00    -0.003 C 
ATOM     37  C   UNL     1      -1.070   2.917   1.371  0.00  0.00    -0.019 C 
ATOM     38  C   UNL     1      -2.490   2.575   0.916  0.00  0.00    -0.078 C 
ATOM     39  N   UNL     1      -3.403   2.641   2.065  0.00  0.00    +0.382 N 
ATOM     40  H   UNL     1      -3.313   3.644   2.507  0.00  0.00    -0.081 HD
ENDBRANCH  32  39
ENDBRANCH  31  32
ENDBRANCH  27  31
ENDBRANCH   1  28
TORSDOF 7
