REMARK  Name = ZINC39600834
REMARK  7 active torsions:
REMARK  status: ('A' for Active; 'I' for Inactive)
REMARK    1  A    between atoms: C_1  and  N_2
REMARK    2  A    between atoms: N_2  and  C_3
REMARK    3  A    between atoms: N_2  and  C_4
REMARK    4  A    between atoms: C_8  and  C_10
REMARK    5  A    between atoms: C_14  and  C_23
REMARK    6  A    between atoms: N_25  and  C_26
REMARK    7  A    between atoms: C_26  and  C_27
REMARK                            x       y       z     vdW  Elec       q    Type
REMARK                         _______ _______ _______ _____ _____    ______ ____
ROOT
ATOM      1  C   UNL     1      -5.091   0.171   0.136  0.00  0.00    +0.247 C 
ATOM      2  O   UNL     1      -5.217   1.372   0.273  0.00  0.00    -0.270 OA
ATOM      3  N   UNL     1      -6.181  -0.610   0.006  0.00  0.00    -0.296 N 
ATOM      4  C   UNL     1      -6.238  -2.090  -0.039  0.00  0.00    +0.121 C 
ATOM      5  C   UNL     1      -7.497  -2.458   0.777  0.00  0.00    +0.100 C 
ATOM      6  C   UNL     1      -8.385  -1.203   0.716  0.00  0.00    -0.004 C 
ATOM      7  C   UNL     1      -7.596  -0.183  -0.118  0.00  0.00    +0.115 C 
ATOM      8  C   UNL     1      -8.623  -0.655   2.120  0.00  0.00    -0.010 C 
ATOM      9  C   UNL     1      -9.554   0.558   2.038  0.00  0.00    -0.082 C 
ATOM     10  N   UNL     1     -10.826   0.160   1.423  0.00  0.00    +0.379 N 
ATOM     11  C   UNL     1     -10.599  -0.278   0.041  0.00  0.00    -0.082 C 
ATOM     12  C   UNL     1      -9.713  -1.526   0.038  0.00  0.00    -0.010 C 
ATOM     13  H   UNL     1     -11.232  -0.597   1.952  0.00  0.00    -0.086 HD
ATOM     14  H   UNL     1     -11.460   0.946   1.426  0.00  0.00    -0.086 HD
ENDROOT
BRANCH   1  19
ATOM     15  C   UNL     1      -1.398  -0.326   0.646  0.00  0.00    +0.030 A 
ATOM     16  C   UNL     1      -1.213  -1.573   0.059  0.00  0.00    +0.023 A 
ATOM     17  C   UNL     1      -2.284  -2.246  -0.498  0.00  0.00    +0.003 A 
ATOM     18  C   UNL     1      -3.545  -1.684  -0.475  0.00  0.00    +0.013 A 
ATOM     19  C   UNL     1      -3.741  -0.433   0.111  0.00  0.00    +0.039 A 
ATOM     20  C   UNL     1      -2.661   0.244   0.678  0.00  0.00    +0.036 A 
BRANCH  15  22
ATOM     21  C   UNL     1      -0.508   1.660   1.831  0.00  0.00    +0.129 C 
ATOM     22  N   UNL     1      -0.312   0.349   1.208  0.00  0.00    -0.336 N 
ATOM     23  C   UNL     1       1.023  -0.254   1.174  0.00  0.00    +0.129 C 
ENDBRANCH  15  22
ENDBRANCH   1  19
BRANCH   5  24
ATOM     24  C   UNL     1      -7.125  -2.771   2.203  0.00  0.00    +0.218 C 
ATOM     25  O   UNL     1      -6.167  -2.230   2.713  0.00  0.00    -0.275 OA
ATOM     26  N   UNL     1      -7.858  -3.652   2.913  0.00  0.00    -0.311 N 
ATOM     27  H   UNL     1      -8.625  -4.085   2.505  0.00  0.00    +0.149 HD
BRANCH  26  28
ATOM     28  C   UNL     1      -7.496  -3.957   4.299  0.00  0.00    +0.142 C 
BRANCH  28  29
ATOM     29  C   UNL     1      -8.466  -4.964   4.862  0.00  0.00    +0.006 A 
ATOM     30  C   UNL     1      -9.506  -4.545   5.670  0.00  0.00    +0.023 A 
ATOM     31  C   UNL     1     -10.397  -5.468   6.186  0.00  0.00    +0.018 A 
ATOM     32  C   UNL     1     -10.248  -6.812   5.894  0.00  0.00    +0.018 A 
ATOM     33  C   UNL     1      -9.208  -7.233   5.087  0.00  0.00    +0.040 A 
ATOM     34  C   UNL     1      -8.320  -6.308   4.564  0.00  0.00    +0.128 A 
ATOM     35  F   UNL     1      -7.307  -6.718   3.770  0.00  0.00    -0.205 F 
ATOM     36 BR   UNL     1     -11.819  -4.894   7.293  0.00  0.00    -0.050 Br
ENDBRANCH  28  29
ENDBRANCH  26  28
ENDBRANCH   5  24
TORSDOF 5
