REMARK  Name = ZINC63272213
REMARK  5 active torsions:
REMARK  status: ('A' for Active; 'I' for Inactive)
REMARK    1  A    between atoms: C_6  and  C_11
REMARK    2  A    between atoms: C_11  and  C_12
REMARK    3  A    between atoms: C_12  and  N_13
REMARK    4  A    between atoms: C_14  and  C_16
REMARK    5  A    between atoms: N_21  and  C_23
REMARK                            x       y       z     vdW  Elec       q    Type
REMARK                         _______ _______ _______ _____ _____    ______ ____
ROOT
ATOM      1  N   UNL     1       5.000  -3.595  -1.503  0.00  0.00    -0.315 N 
ATOM      2  C   UNL     1       5.312  -4.189  -2.672  0.00  0.00    +0.217 C 
ATOM      3  O   UNL     1       5.184  -3.581  -3.714  0.00  0.00    -0.275 OA
ATOM      4  H   UNL     1       5.102  -4.081  -0.670  0.00  0.00    +0.149 HD
ENDROOT
BRANCH   2   5
ATOM      5  C   UNL     1       5.819  -5.608  -2.685  0.00  0.00    +0.089 C 
ATOM      6  C   UNL     1       7.113  -5.696  -1.871  0.00  0.00    +0.015 C 
ATOM      7  C   UNL     1       7.653  -7.127  -1.939  0.00  0.00    +0.016 C 
ATOM      8  C   UNL     1       7.879  -7.513  -3.402  0.00  0.00    +0.087 C 
ATOM      9  N   UNL     1       6.612  -7.414  -4.138  0.00  0.00    -0.275 NA
ATOM     10  C   UNL     1       6.097  -6.038  -4.127  0.00  0.00    +0.099 C 
BRANCH   9  11
ATOM     11  C   UNL     1       6.761  -7.909  -5.513  0.00  0.00    +0.231 C 
ATOM     12  C   UNL     1       7.094  -9.380  -5.452  0.00  0.00    +0.126 C 
ATOM     13  N   UNL     1       6.559 -10.456  -4.973  0.00  0.00    -0.233 NA
ATOM     14  C   UNL     1       7.356 -11.507  -5.242  0.00  0.00    +0.224 C 
ATOM     15  N   UNL     1       8.428 -11.143  -5.900  0.00  0.00    -0.215 NA
ATOM     16  C   UNL     1       8.371  -9.800  -6.093  0.00  0.00    +0.182 C 
ATOM     17  N   UNL     1       9.120  -8.896  -6.662  0.00  0.00    -0.197 NA
ATOM     18  C   UNL     1       8.813  -7.594  -6.708  0.00  0.00    +0.222 C 
ATOM     19  N   UNL     1       7.752  -7.061  -6.205  0.00  0.00    -0.229 NA
ATOM     20 CL   UNL     1       9.934  -6.538  -7.509  0.00  0.00    -0.041 Cl
ENDBRANCH   9  11
ENDBRANCH   2   5
BRANCH   1  21
ATOM     21  C   UNL     1       4.508  -2.215  -1.491  0.00  0.00    +0.108 C 
BRANCH  21  22
ATOM     22  C   UNL     1       4.231  -1.785  -0.049  0.00  0.00    +0.052 C 
BRANCH  22  28
ATOM     23  C   UNL     1      -0.017   1.399   0.010  0.00  0.00    +0.022 A 
ATOM     24  C   UNL     1       1.109   2.143   0.003  0.00  0.00    +0.027 A 
ATOM     25  C   UNL     1       2.385   1.516  -0.013  0.00  0.00    +0.043 A 
ATOM     26  N   UNL     1       3.600   2.009  -0.022  0.00  0.00    -0.380 N 
ATOM     27  C   UNL     1       4.557   0.897  -0.038  0.00  0.00    +0.144 C 
ATOM     28  C   UNL     1       3.724  -0.366  -0.036  0.00  0.00    -0.040 C 
ATOM     29  C   UNL     1       2.433   0.036  -0.021  0.00  0.00    +0.000 A 
ATOM     30  C   UNL     1       1.163  -0.699  -0.013  0.00  0.00    +0.030 A 
ATOM     31  C   UNL     1       0.002  -0.004   0.002  0.00  0.00    +0.042 A 
ATOM     32 CL   UNL     1      -1.502  -0.870   0.012  0.00  0.00    -0.084 Cl
ATOM     33  H   UNL     1       3.828   2.952  -0.020  0.00  0.00    +0.160 HD
ENDBRANCH  22  28
ENDBRANCH  21  22
ENDBRANCH   1  21
TORSDOF 5
