REMARK  Name = ZINC41586221
REMARK  14 active torsions:
REMARK  status: ('A' for Active; 'I' for Inactive)
REMARK    1  A    between atoms: C_1  and  C_2
REMARK    2  A    between atoms: C_2  and  O_3
REMARK    3  A    between atoms: O_3  and  C_4
REMARK    4  A    between atoms: C_4  and  C_6
REMARK    5  A    between atoms: N_9  and  C_12
REMARK    6  A    between atoms: C_12  and  C_13
REMARK    7  A    between atoms: C_14  and  O_36
REMARK    8  A    between atoms: C_21  and  C_22
REMARK    9  A    between atoms: C_24  and  O_32
REMARK   10  A    between atoms: C_25  and  O_30
REMARK   11  A    between atoms: C_26  and  O_28
REMARK   12  A    between atoms: O_28  and  C_29
REMARK   13  A    between atoms: O_30  and  C_31
REMARK   14  A    between atoms: O_32  and  C_33
REMARK                            x       y       z     vdW  Elec       q    Type
REMARK                         _______ _______ _______ _____ _____    ______ ____
ROOT
ATOM      1  C   UNL     1      -5.909  -6.248   1.594  0.00  0.00    +0.020 A 
ATOM      2  C   UNL     1      -6.128  -7.048   0.484  0.00  0.00    +0.122 A 
ATOM      3  C   UNL     1      -6.345  -8.415   0.627  0.00  0.00    +0.046 A 
ATOM      4  C   UNL     1      -6.344  -8.983   1.870  0.00  0.00    +0.019 A 
ATOM      5  C   UNL     1      -6.126  -8.191   2.997  0.00  0.00    +0.068 A 
ATOM      6  C   UNL     1      -5.900  -6.811   2.864  0.00  0.00    +0.144 A 
ATOM      7  O   UNL     1      -5.709  -6.262   4.083  0.00  0.00    -0.451 OA
ATOM      8  C   UNL     1      -5.783  -7.187   5.069  0.00  0.00    +0.176 C 
ATOM      9  C   UNL     1      -5.636  -6.955   6.399  0.00  0.00    +0.058 C 
ATOM     10  C   UNL     1      -6.065  -8.485   4.440  0.00  0.00    +0.231 C 
ATOM     11  O   UNL     1      -6.204  -9.565   4.988  0.00  0.00    -0.283 OA
ENDROOT
BRANCH   9  12
ATOM     12  C   UNL     1      -5.572  -8.082   7.338  0.00  0.00    -0.014 A 
ATOM     13  C   UNL     1      -4.855  -9.237   7.000  0.00  0.00    +0.057 A 
ATOM     14  C   UNL     1      -4.797 -10.295   7.886  0.00  0.00    +0.166 A 
ATOM     15  C   UNL     1      -5.449 -10.214   9.114  0.00  0.00    +0.204 A 
ATOM     16  C   UNL     1      -6.163  -9.068   9.454  0.00  0.00    +0.166 A 
ATOM     17  C   UNL     1      -6.221  -8.002   8.576  0.00  0.00    +0.057 A 
BRANCH  16  18
ATOM     18  O   UNL     1      -6.798  -8.994  10.654  0.00  0.00    -0.491 OA
ATOM     19  C   UNL     1      -7.512  -7.789  10.937  0.00  0.00    +0.277 C 
ENDBRANCH  16  18
BRANCH  15  20
ATOM     20  O   UNL     1      -5.389 -11.258   9.983  0.00  0.00    -0.488 OA
ATOM     21  C   UNL     1      -4.312 -11.259  10.922  0.00  0.00    +0.277 C 
ENDBRANCH  15  20
BRANCH  14  22
ATOM     22  O   UNL     1      -4.102 -11.418   7.558  0.00  0.00    -0.491 OA
ATOM     23  C   UNL     1      -3.458 -11.433   6.283  0.00  0.00    +0.277 C 
ENDBRANCH  14  22
ENDBRANCH   9  12
BRANCH   2  24
ATOM     24  O   UNL     1      -6.131  -6.492  -0.755  0.00  0.00    -0.506 OA
ATOM     25  H   UNL     1      -5.263  -6.476  -1.181  0.00  0.00    +0.292 HD
ENDBRANCH   2  24
BRANCH   1  26
ATOM     26  C   UNL     1      -5.675  -4.769   1.424  0.00  0.00    -0.036 C 
BRANCH  26  30
ATOM     27  C   UNL     1      -1.941  -3.451  -0.151  0.00  0.00    +0.094 C 
ATOM     28  C   UNL     1      -2.494  -2.800   1.120  0.00  0.00    -0.004 C 
ATOM     29  C   UNL     1      -3.998  -3.070   1.212  0.00  0.00    -0.078 C 
ATOM     30  N   UNL     1      -4.237  -4.517   1.258  0.00  0.00    +0.383 N 
ATOM     31  C   UNL     1      -3.774  -5.138   0.011  0.00  0.00    -0.078 C 
ATOM     32  C   UNL     1      -2.262  -4.948  -0.127  0.00  0.00    -0.004 C 
ATOM     33  H   UNL     1      -3.736  -4.915   2.037  0.00  0.00    -0.081 HD
BRANCH  27  34
ATOM     34  C   UNL     1      -0.448  -3.256  -0.208  0.00  0.00    +0.310 C 
ATOM     35  O   UNL     1       0.286  -4.216  -0.228  0.00  0.00    -0.251 OA
BRANCH  34  36
ATOM     36  O   UNL     1       0.067  -2.017  -0.237  0.00  0.00    -0.465 OA
BRANCH  36  38
ATOM     37  C   UNL     1       1.887  -0.429  -0.318  0.00  0.00    +0.048 C 
ATOM     38  C   UNL     1       1.490  -1.907  -0.291  0.00  0.00    +0.229 C 
ENDBRANCH  36  38
ENDBRANCH  34  36
ENDBRANCH  27  34
ENDBRANCH  26  30
ENDBRANCH   1  26
TORSDOF 10
