REMARK  Name = ZINC12489461
REMARK  11 active torsions:
REMARK  status: ('A' for Active; 'I' for Inactive)
REMARK    1  A    between atoms: C_1  and  C_2
REMARK    2  A    between atoms: C_5  and  C_38
REMARK    3  A    between atoms: C_6  and  N_8
REMARK    4  A    between atoms: N_8  and  C_9
REMARK    5  A    between atoms: C_9  and  C_11
REMARK    6  A    between atoms: C_9  and  C_17
REMARK    7  A    between atoms: N_19  and  C_20
REMARK    8  A    between atoms: C_20  and  C_21
REMARK    9  A    between atoms: C_27  and  C_29
REMARK   10  A    between atoms: C_29  and  N_30
REMARK   11  A    between atoms: C_31  and  C_33
REMARK                            x       y       z     vdW  Elec       q    Type
REMARK                         _______ _______ _______ _____ _____    ______ ____
ROOT
ATOM      1  N   UNL     1      -3.890   3.667   0.128  0.00  0.00    -0.254 N 
ATOM      2  C   UNL     1      -4.462   4.199   1.226  0.00  0.00    +0.238 C 
ATOM      3  O   UNL     1      -3.839   4.976   1.918  0.00  0.00    -0.274 OA
ENDROOT
BRANCH   1   9
ATOM      4  C   UNL     1      -5.440  -0.916  -0.750  0.00  0.00    +0.044 C 
ATOM      5  C   UNL     1      -5.376   0.544  -1.120  0.00  0.00    -0.049 A 
ATOM      6  C   UNL     1      -6.029   0.999  -2.251  0.00  0.00    +0.004 A 
ATOM      7  C   UNL     1      -5.973   2.337  -2.594  0.00  0.00    +0.005 A 
ATOM      8  C   UNL     1      -5.265   3.224  -1.808  0.00  0.00    -0.029 A 
ATOM      9  C   UNL     1      -4.608   2.771  -0.671  0.00  0.00    +0.041 A 
ATOM     10  C   UNL     1      -4.662   1.425  -0.332  0.00  0.00    +0.027 A 
ATOM     11  C   UNL     1      -5.204   4.682  -2.183  0.00  0.00    +0.045 C 
ENDBRANCH   1   9
BRANCH   1  12
ATOM     12  C   UNL     1      -2.515   4.026  -0.229  0.00  0.00    +0.197 C 
BRANCH  12  13
ATOM     13  C   UNL     1      -1.581   3.590   0.871  0.00  0.00    -0.018 A 
ATOM     14  C   UNL     1      -1.621   2.288   1.336  0.00  0.00    +0.006 A 
ATOM     15  C   UNL     1      -0.767   1.890   2.347  0.00  0.00    +0.000 A 
ATOM     16  C   UNL     1       0.134   2.789   2.887  0.00  0.00    +0.000 A 
ATOM     17  C   UNL     1       0.176   4.089   2.418  0.00  0.00    +0.000 A 
ATOM     18  C   UNL     1      -0.681   4.489   1.411  0.00  0.00    +0.006 A 
ENDBRANCH  12  13
BRANCH  12  19
ATOM     19  C   UNL     1      -2.133   3.338  -1.514  0.00  0.00    +0.239 C 
ATOM     20  O   UNL     1      -2.463   2.187  -1.707  0.00  0.00    -0.273 OA
ATOM     21  N   UNL     1      -1.426   4.003  -2.450  0.00  0.00    -0.311 N 
ATOM     22  H   UNL     1      -1.163   4.923  -2.295  0.00  0.00    +0.149 HD
BRANCH  21  23
ATOM     23  C   UNL     1      -1.055   3.334  -3.699  0.00  0.00    +0.135 C 
BRANCH  23  24
ATOM     24  C   UNL     1      -0.263   4.303  -4.580  0.00  0.00    +0.135 C 
ATOM     25  C   UNL     1       0.132   3.609  -5.898  0.00  0.00    +0.035 C 
ATOM     26  C   UNL     1      -0.501   4.495  -6.998  0.00  0.00    +0.031 C 
ATOM     27  C   UNL     1      -0.705   5.840  -6.255  0.00  0.00    +0.160 C 
ATOM     28  O   UNL     1      -1.081   5.434  -4.921  0.00  0.00    -0.375 OA
ENDBRANCH  23  24
ENDBRANCH  21  23
ENDBRANCH  12  19
ENDBRANCH   1  12
BRANCH   2  29
ATOM     29  C   UNL     1      -5.877   3.830   1.592  0.00  0.00    +0.201 C 
BRANCH  29  30
ATOM     30  N   UNL     1      -6.264   4.537   2.816  0.00  0.00    -0.302 N 
ATOM     31  C   UNL     1      -7.495   4.359   3.335  0.00  0.00    +0.251 C 
ATOM     32  O   UNL     1      -8.284   3.612   2.788  0.00  0.00    -0.270 OA
ATOM     33  H   UNL     1      -5.635   5.132   3.252  0.00  0.00    +0.150 HD
BRANCH  31  34
ATOM     34  C   UNL     1      -7.883   5.066   4.559  0.00  0.00    +0.074 A 
ATOM     35  C   UNL     1      -9.084   5.024   5.249  0.00  0.00    +0.021 A 
ATOM     36  C   UNL     1      -9.182   5.793   6.382  0.00  0.00    +0.008 A 
ATOM     37  C   UNL     1      -8.118   6.545   6.767  0.00  0.00    +0.046 A 
ATOM     38  S   UNL     1      -6.928   6.198   5.555  0.00  0.00    -0.092 S 
ENDBRANCH  31  34
ENDBRANCH  29  30
ENDBRANCH   2  29
TORSDOF 9
