REMARK  Name = ZINC09350012
REMARK  7 active torsions:
REMARK  status: ('A' for Active; 'I' for Inactive)
REMARK    1  A    between atoms: C_1  and  C_2
REMARK    2  A    between atoms: C_6  and  N_8
REMARK    3  A    between atoms: C_9  and  C_11
REMARK    4  A    between atoms: C_11  and  C_34
REMARK    5  A    between atoms: N_13  and  C_28
REMARK    6  A    between atoms: C_17  and  C_18
REMARK    7  A    between atoms: C_21  and  N_24
REMARK                            x       y       z     vdW  Elec       q    Type
REMARK                         _______ _______ _______ _____ _____    ______ ____
ROOT
ATOM      1  C   UNL     1      -5.527   9.212   1.589  0.00  0.00    +0.144 C 
ATOM      2  C   UNL     1      -5.127   7.893   1.363  0.00  0.00    +0.111 A 
ATOM      3  N   UNL     1      -3.877   7.423   1.044  0.00  0.00    -0.269 N 
ATOM      4  C   UNL     1      -3.665   6.129   0.867  0.00  0.00    +0.270 A 
ATOM      5  O   UNL     1      -2.562   5.697   0.590  0.00  0.00    -0.266 OA
ATOM      6  C   UNL     1      -4.830   5.235   1.016  0.00  0.00    +0.079 A 
ATOM      7  C   UNL     1      -4.903   3.886   0.889  0.00  0.00    +0.028 C 
ATOM      8  S   UNL     1      -6.117   6.408   1.418  0.00  0.00    -0.064 S 
ENDROOT
BRANCH   7   9
ATOM      9  C   UNL     1      -3.745   3.132   0.387  0.00  0.00    -0.024 A 
ATOM     10  C   UNL     1      -3.019   3.606  -0.711  0.00  0.00    +0.010 A 
ATOM     11  C   UNL     1      -1.935   2.892  -1.175  0.00  0.00    +0.033 A 
ATOM     12  C   UNL     1      -1.564   1.710  -0.558  0.00  0.00    +0.126 A 
ATOM     13  C   UNL     1      -2.281   1.231   0.525  0.00  0.00    +0.033 A 
ATOM     14  C   UNL     1      -3.364   1.935   1.005  0.00  0.00    +0.010 A 
BRANCH  12  15
ATOM     15  N   UNL     1      -0.399   0.949  -1.064  0.00  0.00    +0.056 N 
ATOM     16  O   UNL     1       0.231   1.365  -2.020  0.00  0.00    -0.126 OA
ATOM     17  O   UNL     1      -0.067  -0.089  -0.520  0.00  0.00    -0.126 OA
ENDBRANCH  12  15
ENDBRANCH   7   9
BRANCH   3  18
ATOM     18  C   UNL     1      -2.813   8.323   0.910  0.00  0.00    +0.051 A 
ATOM     19  C   UNL     1      -2.650   9.039  -0.268  0.00  0.00    +0.026 A 
ATOM     20  C   UNL     1      -1.603   9.930  -0.395  0.00  0.00    +0.002 A 
ATOM     21  C   UNL     1      -0.710  10.102   0.647  0.00  0.00    +0.000 A 
ATOM     22  C   UNL     1      -0.865   9.386   1.820  0.00  0.00    +0.002 A 
ATOM     23  C   UNL     1      -1.914   8.498   1.954  0.00  0.00    +0.026 A 
ENDBRANCH   3  18
BRANCH   1  25
ATOM     24  N   UNL     1      -3.852  10.518   2.776  0.00  0.00    -0.281 N 
ATOM     25  C   UNL     1      -4.530  10.280   1.637  0.00  0.00    +0.261 C 
ATOM     26  O   UNL     1      -4.313  10.955   0.646  0.00  0.00    -0.269 OA
ATOM     27  H   UNL     1      -3.962   9.928   3.539  0.00  0.00    +0.155 HD
BRANCH  24  33
ATOM     28  C   UNL     1       0.191  12.588   4.659  0.00  0.00    +0.044 C 
ATOM     29  C   UNL     1      -1.021  12.646   3.765  0.00  0.00    -0.049 A 
ATOM     30  C   UNL     1      -1.281  13.786   3.026  0.00  0.00    +0.003 A 
ATOM     31  C   UNL     1      -2.392  13.844   2.205  0.00  0.00    +0.002 A 
ATOM     32  C   UNL     1      -3.246  12.762   2.120  0.00  0.00    +0.023 A 
ATOM     33  C   UNL     1      -2.988  11.615   2.860  0.00  0.00    +0.034 A 
ATOM     34  C   UNL     1      -1.875  11.563   3.689  0.00  0.00    +0.026 A 
ENDBRANCH  24  33
ENDBRANCH   1  25
BRANCH   1  35
ATOM     35  C   UNL     1      -6.914   9.518   1.774  0.00  0.00    +0.107 C 
ATOM     36  N   UNL     1      -8.014   9.761   1.921  0.00  0.00    -0.191 NA
ENDBRANCH   1  35
TORSDOF 6
