REMARK  Name = ZINC06446390
REMARK  7 active torsions:
REMARK  status: ('A' for Active; 'I' for Inactive)
REMARK    1  A    between atoms: C_4  and  C_7
REMARK    2  A    between atoms: C_7  and  C_8
REMARK    3  A    between atoms: C_13  and  C_15
REMARK    4  A    between atoms: C_13  and  C_30
REMARK    5  A    between atoms: C_13  and  N_71
REMARK    6  A    between atoms: N_34  and  C_35
REMARK    7  A    between atoms: C_35  and  C_36
REMARK                            x       y       z     vdW  Elec       q    Type
REMARK                         _______ _______ _______ _____ _____    ______ ____
ROOT
ATOM      1  C   UNL     1       2.849   4.724   1.887  0.00  0.00    +0.039 C 
ENDROOT
BRANCH   1   2
ATOM      2  C   UNL     1       2.958   3.852   3.111  0.00  0.00    +0.011 A 
ATOM      3  C   UNL     1       3.611   2.664   3.038  0.00  0.00    +0.017 A 
ATOM      4  C   UNL     1       3.700   1.841   4.244  0.00  0.00    +0.002 A 
ATOM      5  C   UNL     1       4.363   0.607   4.228  0.00  0.00    +0.059 A 
ATOM      6  C   UNL     1       4.430  -0.147   5.379  0.00  0.00    +0.167 A 
ATOM      7  C   UNL     1       3.839   0.316   6.561  0.00  0.00    +0.168 A 
ATOM      8  C   UNL     1       3.183   1.533   6.586  0.00  0.00    +0.075 A 
ATOM      9  C   UNL     1       3.106   2.305   5.433  0.00  0.00    +0.053 A 
ATOM     10  N   UNL     1       2.455   3.522   5.439  0.00  0.00    -0.322 N 
ATOM     11  H   UNL     1       2.047   3.842   6.259  0.00  0.00    +0.169 HD
ATOM     12  C   UNL     1       2.385   4.275   4.327  0.00  0.00    +0.251 A 
ATOM     13  O   UNL     1       1.808   5.347   4.371  0.00  0.00    -0.268 OA
ATOM     14  O   UNL     1       4.048  -0.610   7.541  0.00  0.00    -0.453 OA
ATOM     15  C   UNL     1       5.119  -1.444   7.061  0.00  0.00    +0.466 C 
ATOM     16  O   UNL     1       5.005  -1.360   5.629  0.00  0.00    -0.453 OA
ENDBRANCH   1   2
BRANCH   1  22
ATOM     17  C   UNL     1       5.198   8.294   2.014  0.00  0.00    -0.010 C 
ATOM     18  C   UNL     1       3.810   8.328   1.368  0.00  0.00    -0.015 C 
ATOM     19  C   UNL     1       3.395   6.904   0.988  0.00  0.00    -0.077 C 
ATOM     20  C   UNL     1       4.708   5.976   2.801  0.00  0.00    -0.077 C 
ATOM     21  C   UNL     1       5.162   7.372   3.235  0.00  0.00    -0.015 C 
ATOM     22  N   UNL     1       3.356   6.073   2.210  0.00  0.00    +0.389 N 
ATOM     23  H   UNL     1       2.726   6.512   2.891  0.00  0.00    -0.080 HD
BRANCH  17  24
ATOM     24  C   UNL     1       5.592   9.706   2.451  0.00  0.00    +0.038 C 
BRANCH  24  28
ATOM     25  C   UNL     1       9.598   9.672   3.933  0.00  0.00    +0.000 A 
ATOM     26  C   UNL     1       9.360   9.904   2.592  0.00  0.00    +0.000 A 
ATOM     27  C   UNL     1       8.063   9.915   2.112  0.00  0.00    +0.003 A 
ATOM     28  C   UNL     1       7.006   9.694   2.974  0.00  0.00    -0.047 A 
ATOM     29  C   UNL     1       7.244   9.467   4.317  0.00  0.00    +0.003 A 
ATOM     30  C   UNL     1       8.541   9.451   4.796  0.00  0.00    +0.000 A 
ENDBRANCH  24  28
ENDBRANCH  17  24
ENDBRANCH   1  22
BRANCH   1  31
ATOM     31  C   UNL     1       1.403   4.835   1.476  0.00  0.00    +0.143 A 
ATOM     32  N   UNL     1       0.475   5.550   2.063  0.00  0.00    -0.115 NA
ATOM     33  N   UNL     1      -0.626   5.381   1.416  0.00  0.00    -0.023 NA
ATOM     34  N   UNL     1      -0.424   4.581   0.428  0.00  0.00    -0.044 NA
ATOM     35  N   UNL     1       0.814   4.218   0.434  0.00  0.00    -0.228 N 
BRANCH  35  36
ATOM     36  C   UNL     1       1.459   3.310  -0.517  0.00  0.00    +0.178 C 
BRANCH  36  37
ATOM     37  C   UNL     1       1.358   1.873  -0.001  0.00  0.00    +0.140 C 
ATOM     38  C   UNL     1       2.044   0.890  -0.983  0.00  0.00    +0.035 C 
ATOM     39  C   UNL     1       1.318  -0.441  -0.670  0.00  0.00    +0.031 C 
ATOM     40  C   UNL     1       0.002  -0.004   0.002  0.00  0.00    +0.160 C 
ATOM     41  O   UNL     1      -0.017   1.433   0.010  0.00  0.00    -0.375 OA
ENDBRANCH  36  37
ENDBRANCH  35  36
ENDBRANCH   1  31
TORSDOF 7
