REMARK  Name = ZINC08915335
REMARK  8 active torsions:
REMARK  status: ('A' for Active; 'I' for Inactive)
REMARK    1  A    between atoms: C_1  and  C_2
REMARK    2  A    between atoms: C_5  and  C_8
REMARK    3  A    between atoms: C_8  and  C_10
REMARK    4  A    between atoms: C_12  and  C_24
REMARK    5  A    between atoms: C_18  and  C_19
REMARK    6  A    between atoms: C_18  and  O_23
REMARK    7  A    between atoms: N_26  and  C_35
REMARK    8  A    between atoms: C_28  and  C_29
REMARK                            x       y       z     vdW  Elec       q    Type
REMARK                         _______ _______ _______ _____ _____    ______ ____
ROOT
ATOM      1  C   UNL     1      -0.132  -4.959   2.381  0.00  0.00    +0.144 C 
ATOM      2  C   UNL     1       0.644  -6.028   1.604  0.00  0.00    +0.124 C 
ATOM      3  N   UNL     1      -0.161  -6.474   0.466  0.00  0.00    -0.292 N 
ATOM      4  C   UNL     1      -1.501  -6.449   0.507  0.00  0.00    +0.302 C 
ATOM      5  O   UNL     1      -2.123  -6.841  -0.462  0.00  0.00    -0.253 OA
ATOM      6  N   UNL     1      -2.184  -6.009   1.575  0.00  0.00    -0.264 N 
ATOM      7  C   UNL     1      -1.495  -5.534   2.781  0.00  0.00    +0.243 C 
ATOM      8  H   UNL     1       0.284  -6.793  -0.335  0.00  0.00    +0.151 HD
ATOM      9  H   UNL     1      -3.153  -6.005   1.550  0.00  0.00    +0.153 HD
ENDROOT
BRANCH   2  10
ATOM     10  C   UNL     1       0.932  -7.199   2.509  0.00  0.00    +0.019 A 
ATOM     11  C   UNL     1       0.271  -8.376   2.519  0.00  0.00    +0.120 A 
ATOM     12  N   UNL     1       0.832  -9.161   3.475  0.00  0.00    -0.239 N 
ATOM     13  N   UNL     1       1.874  -8.439   4.071  0.00  0.00    -0.166 NA
ATOM     14  C   UNL     1       1.942  -7.260   3.489  0.00  0.00    +0.098 A 
BRANCH  14  15
ATOM     15  C   UNL     1       2.909  -6.183   3.812  0.00  0.00    +0.002 A 
ATOM     16  C   UNL     1       3.205  -5.884   5.141  0.00  0.00    +0.010 A 
ATOM     17  C   UNL     1       4.106  -4.881   5.436  0.00  0.00    +0.001 A 
ATOM     18  C   UNL     1       4.715  -4.173   4.415  0.00  0.00    +0.000 A 
ATOM     19  C   UNL     1       4.425  -4.465   3.095  0.00  0.00    +0.001 A 
ATOM     20  C   UNL     1       3.530  -5.470   2.788  0.00  0.00    +0.010 A 
ENDBRANCH  14  15
BRANCH  12  21
ATOM     21  C   UNL     1       0.439 -10.464   3.807  0.00  0.00    +0.065 A 
ATOM     22  C   UNL     1      -0.613 -11.067   3.129  0.00  0.00    +0.028 A 
ATOM     23  C   UNL     1      -0.999 -12.352   3.459  0.00  0.00    +0.002 A 
ATOM     24  C   UNL     1      -0.340 -13.037   4.462  0.00  0.00    +0.000 A 
ATOM     25  C   UNL     1       0.708 -12.440   5.139  0.00  0.00    +0.002 A 
ATOM     26  C   UNL     1       1.103 -11.158   4.810  0.00  0.00    +0.028 A 
ENDBRANCH  12  21
ENDBRANCH   2  10
BRANCH   7  27
ATOM     27  C   UNL     1      -2.330  -4.446   3.459  0.00  0.00    +0.436 C 
ATOM     28  F   UNL     1      -2.631  -3.443   2.532  0.00  0.00    -0.166 F 
ATOM     29  F   UNL     1      -3.517  -5.004   3.945  0.00  0.00    -0.166 F 
ATOM     30  F   UNL     1      -1.604  -3.896   4.522  0.00  0.00    -0.166 F 
ENDBRANCH   7  27
BRANCH   1  31
ATOM     31  C   UNL     1      -0.331  -3.745   1.510  0.00  0.00    +0.173 C 
ATOM     32  O   UNL     1      -0.988  -3.829   0.494  0.00  0.00    -0.292 OA
BRANCH  31  37
ATOM     33  C   UNL     1       2.024   1.282   3.006  0.00  0.00    +0.044 C 
ATOM     34  C   UNL     1       1.407  -0.036   2.613  0.00  0.00    -0.050 A 
ATOM     35  C   UNL     1       0.761  -0.159   1.395  0.00  0.00    +0.004 A 
ATOM     36  C   UNL     1       0.194  -1.361   1.030  0.00  0.00    +0.011 A 
ATOM     37  C   UNL     1       0.273  -2.458   1.893  0.00  0.00    +0.018 A 
ATOM     38  C   UNL     1       0.927  -2.327   3.122  0.00  0.00    +0.011 A 
ATOM     39  C   UNL     1       1.494  -1.119   3.471  0.00  0.00    +0.004 A 
ENDBRANCH  31  37
ENDBRANCH   1  31
BRANCH   7  40
ATOM     40  O   UNL     1      -1.306  -6.626   3.684  0.00  0.00    -0.364 OA
ATOM     41  H   UNL     1      -2.129  -7.039   3.979  0.00  0.00    +0.212 HD
ENDBRANCH   7  40
TORSDOF 7
