REMARK  Name = ZINC33937324
REMARK  13 active torsions:
REMARK  status: ('A' for Active; 'I' for Inactive)
REMARK    1  A    between atoms: C_1  and  C_2
REMARK    2  A    between atoms: C_12  and  C_14
REMARK    3  A    between atoms: C_14  and  N_15
REMARK    4  A    between atoms: N_15  and  C_16
REMARK    5  A    between atoms: N_15  and  C_23
REMARK    6  A    between atoms: C_16  and  C_17
REMARK    7  A    between atoms: C_23  and  C_25
REMARK    8  A    between atoms: C_23  and  C_38
REMARK    9  A    between atoms: N_29  and  C_30
REMARK   10  A    between atoms: C_30  and  C_31
REMARK   11  A    between atoms: C_31  and  C_32
REMARK   12  A    between atoms: C_38  and  C_39
REMARK   13  A    between atoms: C_38  and  C_40
REMARK                            x       y       z     vdW  Elec       q    Type
REMARK                         _______ _______ _______ _____ _____    ______ ____
ROOT
ATOM      1  N   UNL     1       0.909  -1.767   5.521  0.00  0.00    +0.391 N 
ATOM      2  H   UNL     1       1.090  -2.171   4.614  0.00  0.00    -0.080 HD
ENDROOT
BRANCH   1   3
ATOM      3  C   UNL     1      -0.341  -0.998   5.474  0.00  0.00    -0.036 C 
BRANCH   3  15
ATOM      4  C   UNL     1       0.517   3.989   1.279  0.00  0.00    +0.046 C 
ATOM      5  C   UNL     1      -0.149   2.648   1.109  0.00  0.00    -0.026 A 
ATOM      6  C   UNL     1      -0.707   2.302  -0.104  0.00  0.00    +0.005 A 
ATOM      7  C   UNL     1      -1.324   1.071  -0.274  0.00  0.00    +0.001 A 
ATOM      8  C   UNL     1      -1.390   0.177   0.758  0.00  0.00    +0.010 A 
ATOM      9  C   UNL     1      -0.830   0.507   1.997  0.00  0.00    -0.001 A 
ATOM     10  C   UNL     1      -0.199   1.753   2.171  0.00  0.00    +0.052 A 
ATOM     11  N   UNL     1       0.355   2.071   3.393  0.00  0.00    -0.322 N 
ATOM     12  H   UNL     1       0.786   2.931   3.513  0.00  0.00    +0.169 HD
ATOM     13  C   UNL     1       0.306   1.205   4.421  0.00  0.00    +0.251 A 
ATOM     14  O   UNL     1       0.806   1.520   5.487  0.00  0.00    -0.268 OA
ATOM     15  C   UNL     1      -0.310  -0.059   4.296  0.00  0.00    +0.001 A 
ATOM     16  C   UNL     1      -0.883  -0.426   3.124  0.00  0.00    +0.017 A 
ENDBRANCH   3  15
ENDBRANCH   1   3
BRANCH   1  17
ATOM     17  C   UNL     1       2.018  -0.877   5.891  0.00  0.00    -0.045 C 
BRANCH  17  18
ATOM     18  C   UNL     1       3.346  -1.613   5.702  0.00  0.00    +0.102 C 
ATOM     19  C   UNL     1       4.532  -0.626   5.844  0.00  0.00    +0.032 C 
ATOM     20  C   UNL     1       5.672  -1.593   6.266  0.00  0.00    +0.030 C 
ATOM     21  C   UNL     1       4.917  -2.637   7.117  0.00  0.00    +0.160 C 
ATOM     22  O   UNL     1       3.534  -2.581   6.746  0.00  0.00    -0.378 OA
ENDBRANCH  17  18
ENDBRANCH   1  17
BRANCH   1  23
ATOM     23  C   UNL     1       0.788  -2.838   6.519  0.00  0.00    +0.006 C 
BRANCH  23  24
ATOM     24  C   UNL     1      -0.122  -2.387   7.632  0.00  0.00    +0.138 A 
ATOM     25  N   UNL     1      -1.258  -1.746   7.503  0.00  0.00    -0.115 NA
ATOM     26  N   UNL     1      -1.735  -1.540   8.682  0.00  0.00    -0.023 NA
ATOM     27  N   UNL     1      -0.934  -2.035   9.560  0.00  0.00    -0.044 NA
ATOM     28  N   UNL     1       0.070  -2.571   8.952  0.00  0.00    -0.231 N 
BRANCH  28  29
ATOM     29  C   UNL     1       1.208  -3.248   9.579  0.00  0.00    +0.152 C 
BRANCH  29  30
ATOM     30  C   UNL     1       2.295  -2.222   9.906  0.00  0.00    +0.058 C 
BRANCH  30  31
ATOM     31  C   UNL     1       3.395  -2.889  10.691  0.00  0.00    -0.046 A 
ATOM     32  C   UNL     1       3.403  -2.813  12.072  0.00  0.00    +0.004 A 
ATOM     33  C   UNL     1       4.412  -3.425  12.792  0.00  0.00    +0.000 A 
ATOM     34  C   UNL     1       5.412  -4.113  12.132  0.00  0.00    +0.000 A 
ATOM     35  C   UNL     1       5.404  -4.190  10.751  0.00  0.00    +0.000 A 
ATOM     36  C   UNL     1       4.393  -3.582  10.032  0.00  0.00    +0.004 A 
ENDBRANCH  30  31
ENDBRANCH  29  30
ENDBRANCH  28  29
ENDBRANCH  23  24
BRANCH  23  37
ATOM     37  C   UNL     1       0.203  -4.088   5.857  0.00  0.00    -0.024 C 
ATOM     38  C   UNL     1      -1.170  -3.759   5.269  0.00  0.00    +0.006 C 
ATOM     39  C   UNL     1       1.138  -4.558   4.741  0.00  0.00    +0.006 C 
ENDBRANCH  23  37
ENDBRANCH   1  23
TORSDOF 10
