REMARK  Name = ZINC33612053
REMARK  11 active torsions:
REMARK  status: ('A' for Active; 'I' for Inactive)
REMARK    1  A    between atoms: C_1  and  C_2
REMARK    2  A    between atoms: C_3  and  O_40
REMARK    3  A    between atoms: C_6  and  C_10
REMARK    4  A    between atoms: C_7  and  O_8
REMARK    5  A    between atoms: O_8  and  C_9
REMARK    6  A    between atoms: N_18  and  C_21
REMARK    7  A    between atoms: C_27  and  C_29
REMARK    8  A    between atoms: C_27  and  C_37
REMARK    9  A    between atoms: C_29  and  C_30
REMARK   10  A    between atoms: C_33  and  O_36
REMARK   11  A    between atoms: O_40  and  C_41
REMARK                            x       y       z     vdW  Elec       q    Type
REMARK                         _______ _______ _______ _____ _____    ______ ____
ROOT
ATOM      1  C   UNL     1       0.011  -3.051   2.368  0.00  0.00    -0.023 C 
ATOM      2  C   UNL     1      -1.412  -3.264   2.874  0.00  0.00    +0.077 C 
ATOM      3  C   UNL     1      -1.113  -4.518   3.779  0.00  0.00    +0.086 C 
ATOM      4  C   UNL     1      -2.280  -4.559   4.628  0.00  0.00    +0.225 C 
ATOM      5  O   UNL     1      -2.828  -5.541   5.082  0.00  0.00    -0.275 OA
ATOM      6  N   UNL     1      -2.632  -3.245   4.810  0.00  0.00    -0.239 N 
ATOM      7  C   UNL     1      -1.992  -2.388   3.939  0.00  0.00    +0.225 C 
ATOM      8  O   UNL     1      -1.907  -1.181   4.016  0.00  0.00    -0.275 OA
ATOM      9  C   UNL     1      -0.328  -5.395   2.901  0.00  0.00    +0.052 C 
ATOM     10  N   UNL     1       0.472  -4.441   2.044  0.00  0.00    +0.396 N 
ATOM     11  H   UNL     1       0.298  -4.641   1.071  0.00  0.00    -0.083 HD
ATOM     12  H   UNL     1       1.457  -4.530   2.243  0.00  0.00    -0.083 HD
ENDROOT
BRANCH   1  18
ATOM     13  C   UNL     1       2.521  -0.428  -1.089  0.00  0.00    +0.051 C 
ATOM     14  C   UNL     1       1.218  -0.931  -0.523  0.00  0.00    +0.033 A 
ATOM     15  C   UNL     1       0.020  -0.600  -1.136  0.00  0.00    +0.126 A 
ATOM     16  C   UNL     1      -1.179  -1.064  -0.613  0.00  0.00    +0.046 A 
ATOM     17  C   UNL     1      -1.178  -1.856   0.520  0.00  0.00    +0.009 A 
ATOM     18  C   UNL     1       0.015  -2.188   1.133  0.00  0.00    -0.018 A 
ATOM     19  C   UNL     1       1.216  -1.731   0.609  0.00  0.00    +0.128 A 
BRANCH  19  20
ATOM     20  O   UNL     1       2.389  -2.063   1.209  0.00  0.00    -0.495 OA
ATOM     21  C   UNL     1       2.866  -1.187   2.232  0.00  0.00    +0.277 C 
ENDBRANCH  19  20
BRANCH  15  22
ATOM     22  O   UNL     1       0.018   0.180  -2.249  0.00  0.00    -0.495 OA
ATOM     23  C   UNL     1      -1.252   0.482  -2.828  0.00  0.00    +0.277 C 
ENDBRANCH  15  22
ENDBRANCH   1  18
BRANCH   6  24
ATOM     24  C   UNL     1      -3.598  -2.797   5.816  0.00  0.00    +0.084 C 
ATOM     25  C   UNL     1      -2.916  -1.825   6.781  0.00  0.00    +0.023 C 
ATOM     26  C   UNL     1      -3.925  -1.357   7.832  0.00  0.00    +0.002 C 
ATOM     27  C   UNL     1      -5.092  -0.651   7.138  0.00  0.00    +0.000 C 
ATOM     28  C   UNL     1      -5.775  -1.623   6.173  0.00  0.00    +0.002 C 
ATOM     29  C   UNL     1      -4.766  -2.091   5.123  0.00  0.00    +0.023 C 
ENDBRANCH   6  24
BRANCH   9  30
ATOM     30  C   UNL     1      -1.240  -6.254   2.064  0.00  0.00    +0.347 C 
ATOM     31  O   UNL     1      -1.198  -6.183   0.848  0.00  0.00    -0.248 OA
ATOM     32  O   UNL     1      -2.020  -7.020   2.604  0.00  0.00    -0.248 OA
ENDBRANCH   9  30
BRANCH   9  33
ATOM     33  C   UNL     1       0.619  -6.267   3.728  0.00  0.00    +0.035 C 
BRANCH  33  34
ATOM     34  C   UNL     1       1.500  -7.068   2.803  0.00  0.00    -0.048 A 
ATOM     35  C   UNL     1       1.091  -8.316   2.370  0.00  0.00    +0.007 A 
ATOM     36  C   UNL     1       1.896  -9.052   1.522  0.00  0.00    +0.045 A 
ATOM     37  C   UNL     1       3.116  -8.538   1.106  0.00  0.00    +0.117 A 
ATOM     38  C   UNL     1       3.523  -7.286   1.542  0.00  0.00    +0.045 A 
ATOM     39  C   UNL     1       2.712  -6.551   2.385  0.00  0.00    +0.007 A 
BRANCH  37  40
ATOM     40  O   UNL     1       3.910  -9.261   0.273  0.00  0.00    -0.507 OA
ATOM     41  H   UNL     1       3.745  -9.099  -0.666  0.00  0.00    +0.292 HD
ENDBRANCH  37  40
ENDBRANCH  33  34
ENDBRANCH   9  33
TORSDOF 8
