REMARK  Name = ZINC31943712
REMARK  6 active torsions:
REMARK  status: ('A' for Active; 'I' for Inactive)
REMARK    1  A    between atoms: C_1  and  C_2
REMARK    2  A    between atoms: C_2  and  C_3
REMARK    3  A    between atoms: C_3  and  C_4
REMARK    4  A    between atoms: C_4  and  C_5
REMARK    5  A    between atoms: N_13  and  C_14
REMARK    6  A    between atoms: C_14  and  C_15
REMARK                            x       y       z     vdW  Elec       q    Type
REMARK                         _______ _______ _______ _____ _____    ______ ____
ROOT
ATOM      1  C   UNL     1       0.000   1.080   2.488  0.00  0.00    +0.112 A 
ATOM      2  N   UNL     1       0.964   1.712   3.091  0.00  0.00    -0.232 NA
ATOM      3  C   UNL     1       1.395   0.983   4.153  0.00  0.00    +0.093 A 
ATOM      4  C   UNL     1       2.383   1.185   5.121  0.00  0.00    +0.079 A 
ATOM      5  C   UNL     1       2.590   0.237   6.101  0.00  0.00    +0.168 A 
ATOM      6  C   UNL     1       1.816  -0.927   6.130  0.00  0.00    +0.168 A 
ATOM      7  C   UNL     1       0.837  -1.136   5.178  0.00  0.00    +0.077 A 
ATOM      8  C   UNL     1       0.620  -0.188   4.187  0.00  0.00    +0.073 A 
ATOM      9  N   UNL     1      -0.258  -0.095   3.124  0.00  0.00    -0.314 N 
ATOM     10  O   UNL     1       2.219  -1.690   7.189  0.00  0.00    -0.453 OA
ATOM     11  C   UNL     1       2.961  -0.801   8.044  0.00  0.00    +0.466 C 
ATOM     12  O   UNL     1       3.474   0.196   7.141  0.00  0.00    -0.453 OA
ENDROOT
BRANCH   1  13
ATOM     13  C   UNL     1      -0.729   1.579   1.267  0.00  0.00    +0.074 C 
BRANCH  13  14
ATOM     14  C   UNL     1      -0.013   1.086   0.008  0.00  0.00    +0.007 C 
BRANCH  14  16
ATOM     15  C   UNL     1      -0.037   1.099  -2.490  0.00  0.00    +0.004 C 
ATOM     16  C   UNL     1      -0.753   1.593  -1.232  0.00  0.00    -0.003 C 
ENDBRANCH  14  16
ENDBRANCH  13  14
ENDBRANCH   1  13
BRANCH   9  17
ATOM     17  C   UNL     1      -1.275  -1.081   2.749  0.00  0.00    +0.242 C 
BRANCH  17  18
ATOM     18  C   UNL     1      -0.693  -2.054   1.810  0.00  0.00    +0.084 C 
ATOM     19  N   UNL     1      -0.243  -2.804   1.085  0.00  0.00    -0.195 NA
ENDBRANCH  17  18
ENDBRANCH   9  17
TORSDOF 5
