REMARK  Name = ZINC01132744
REMARK  9 active torsions:
REMARK  status: ('A' for Active; 'I' for Inactive)
REMARK    1  A    between atoms: C_1  and  C_2
REMARK    2  A    between atoms: C_5  and  C_11
REMARK    3  A    between atoms: C_7  and  N_8
REMARK    4  A    between atoms: C_16  and  C_21
REMARK    5  A    between atoms: C_29  and  C_41
REMARK    6  A    between atoms: C_30  and  C_31
REMARK    7  A    between atoms: C_31  and  O_33
REMARK    8  A    between atoms: O_33  and  C_34
REMARK    9  A    between atoms: C_34  and  C_35
REMARK                            x       y       z     vdW  Elec       q    Type
REMARK                         _______ _______ _______ _____ _____    ______ ____
ROOT
ATOM      1  C   UNL     1       0.578  -4.220  -0.099  0.00  0.00    +0.092 C 
ATOM      2  C   UNL     1       1.731  -4.467  -1.039  0.00  0.00    +0.024 C 
ATOM      3  C   UNL     1       1.518  -4.950  -2.281  0.00  0.00    +0.016 C 
ATOM      4  C   UNL     1       2.667  -5.203  -3.226  0.00  0.00    +0.059 C 
ATOM      5  C   UNL     1       3.797  -4.213  -2.936  0.00  0.00    +0.032 C 
ATOM      6  C   UNL     1       4.228  -4.381  -1.475  0.00  0.00    +0.088 C 
ATOM      7  C   UNL     1       3.031  -4.179  -0.586  0.00  0.00    +0.162 C 
ATOM      8  O   UNL     1       3.190  -3.760   0.543  0.00  0.00    -0.292 OA
ATOM      9  N   UNL     1       0.247  -5.226  -2.710  0.00  0.00    -0.321 N 
ATOM     10  C   UNL     1      -0.767  -5.407  -1.812  0.00  0.00    +0.016 C 
ATOM     11  C   UNL     1      -0.652  -4.948  -0.555  0.00  0.00    +0.065 C 
ATOM     12  C   UNL     1      -2.022  -6.127  -2.235  0.00  0.00    +0.061 C 
ATOM     13  H   UNL     1       0.065  -5.292  -3.661  0.00  0.00    +0.152 HD
ENDROOT
BRANCH   1  18
ATOM     14  C   UNL     1      -0.537   1.447   0.088  0.00  0.00    +0.046 C 
ATOM     15  C   UNL     1      -0.246  -0.031   0.039  0.00  0.00    -0.020 A 
ATOM     16  C   UNL     1      -0.347  -0.716  -1.157  0.00  0.00    +0.006 A 
ATOM     17  C   UNL     1      -0.080  -2.071  -1.202  0.00  0.00    +0.005 A 
ATOM     18  C   UNL     1       0.288  -2.742  -0.051  0.00  0.00    -0.033 A 
ATOM     19  C   UNL     1       0.390  -2.057   1.145  0.00  0.00    +0.037 A 
ATOM     20  C   UNL     1       0.127  -0.700   1.190  0.00  0.00    +0.129 A 
BRANCH  20  21
ATOM     21  N   UNL     1       0.241   0.035   2.470  0.00  0.00    +0.057 N 
ATOM     22  O   UNL     1       0.674   1.163   2.482  0.00  0.00    -0.126 OA
ATOM     23  O   UNL     1      -0.099  -0.494   3.502  0.00  0.00    -0.126 OA
ENDBRANCH  20  21
ENDBRANCH   1  18
BRANCH   5  24
ATOM     24  C   UNL     1       4.963  -4.495  -3.848  0.00  0.00    -0.043 A 
ATOM     25  C   UNL     1       5.582  -5.731  -3.816  0.00  0.00    +0.007 A 
ATOM     26  C   UNL     1       6.651  -5.991  -4.652  0.00  0.00    +0.038 A 
ATOM     27  C   UNL     1       7.103  -5.013  -5.522  0.00  0.00    +0.123 A 
ATOM     28  C   UNL     1       6.482  -3.776  -5.553  0.00  0.00    +0.038 A 
ATOM     29  C   UNL     1       5.410  -3.520  -4.720  0.00  0.00    +0.007 A 
ATOM     30  F   UNL     1       8.148  -5.266  -6.340  0.00  0.00    -0.205 F 
ENDBRANCH   5  24
BRANCH  11  31
ATOM     31  C   UNL     1      -1.713  -5.157   0.358  0.00  0.00    +0.338 C 
ATOM     32  O   UNL     1      -2.716  -5.746   0.001  0.00  0.00    -0.245 OA
BRANCH  31  33
ATOM     33  O   UNL     1      -1.612  -4.702   1.625  0.00  0.00    -0.459 OA
BRANCH  33  34
ATOM     34  C   UNL     1      -2.720  -4.948   2.492  0.00  0.00    +0.264 C 
BRANCH  34  35
ATOM     35  C   UNL     1      -2.425  -4.364   3.875  0.00  0.00    +0.156 C 
ATOM     36  C   UNL     1      -3.651  -4.540   4.806  0.00  0.00    +0.037 C 
ATOM     37  C   UNL     1      -2.968  -4.514   6.201  0.00  0.00    +0.031 C 
ATOM     38  C   UNL     1      -1.615  -5.201   5.916  0.00  0.00    +0.160 C 
ATOM     39  O   UNL     1      -1.363  -5.095   4.508  0.00  0.00    -0.373 OA
ENDBRANCH  34  35
ENDBRANCH  33  34
ENDBRANCH  31  33
ENDBRANCH  11  31
TORSDOF 7
