REMARK  Name = ZINC35035814
REMARK  9 active torsions:
REMARK  status: ('A' for Active; 'I' for Inactive)
REMARK    1  A    between atoms: C_1  and  C_2
REMARK    2  A    between atoms: C_2  and  C_4
REMARK    3  A    between atoms: C_2  and  N_17
REMARK    4  A    between atoms: N_17  and  C_18
REMARK    5  A    between atoms: C_18  and  C_19
REMARK    6  A    between atoms: C_19  and  N_20
REMARK    7  A    between atoms: N_20  and  C_21
REMARK    8  A    between atoms: N_20  and  C_22
REMARK    9  A    between atoms: N_25  and  C_26
REMARK                            x       y       z     vdW  Elec       q    Type
REMARK                         _______ _______ _______ _____ _____    ______ ____
ROOT
ATOM      1  N   UNL     1       0.552  -0.156  -1.286  0.00  0.00    -0.277 N 
ATOM      2  C   UNL     1      -0.303  -0.594  -2.231  0.00  0.00    +0.307 C 
ATOM      3  O   UNL     1      -1.489  -0.694  -1.979  0.00  0.00    -0.252 OA
ATOM      4  N   UNL     1       0.155  -0.922  -3.455  0.00  0.00    -0.268 N 
ATOM      5  H   UNL     1       1.108  -0.904  -3.637  0.00  0.00    +0.156 HD
ENDROOT
BRANCH   4   6
ATOM      6  C   UNL     1      -0.744  -1.289  -4.465  0.00  0.00    +0.053 A 
ATOM      7  C   UNL     1      -1.960  -1.872  -4.135  0.00  0.00    +0.026 A 
ATOM      8  C   UNL     1      -2.845  -2.232  -5.132  0.00  0.00    +0.022 A 
ATOM      9  C   UNL     1      -2.521  -2.013  -6.460  0.00  0.00    +0.042 A 
ATOM     10  C   UNL     1      -1.310  -1.432  -6.792  0.00  0.00    +0.041 A 
ATOM     11  C   UNL     1      -0.423  -1.064  -5.798  0.00  0.00    +0.064 A 
ATOM     12 CL   UNL     1       1.093  -0.328  -6.214  0.00  0.00    -0.082 Cl
ATOM     13 CL   UNL     1      -3.636  -2.468  -7.710  0.00  0.00    -0.083 Cl
ENDBRANCH   4   6
BRANCH   1  15
ATOM     14  C   UNL     1      -0.644  -1.009   0.669  0.00  0.00    +0.036 C 
ATOM     15  C   UNL     1       0.053   0.201   0.044  0.00  0.00    +0.140 C 
BRANCH  15  16
ATOM     16  C   UNL     1      -0.926   1.340  -0.075  0.00  0.00    +0.131 A 
ATOM     17  N   UNL     1      -1.592   1.737   1.041  0.00  0.00    -0.309 N 
ATOM     18  H   UNL     1      -1.427   1.287   1.885  0.00  0.00    +0.170 HD
ATOM     19  C   UNL     1      -2.482   2.755   0.988  0.00  0.00    +0.259 A 
ATOM     20  O   UNL     1      -3.085   3.121   1.980  0.00  0.00    -0.267 OA
ATOM     21  C   UNL     1      -2.693   3.401  -0.316  0.00  0.00    +0.065 A 
ATOM     22  C   UNL     1      -3.587   4.458  -0.479  0.00  0.00    +0.017 A 
ATOM     23  C   UNL     1      -3.746   5.025  -1.713  0.00  0.00    +0.021 A 
ATOM     24  C   UNL     1      -3.026   4.558  -2.806  0.00  0.00    +0.043 A 
ATOM     25  C   UNL     1      -2.136   3.514  -2.671  0.00  0.00    +0.048 A 
ATOM     26  C   UNL     1      -1.956   2.920  -1.421  0.00  0.00    +0.080 A 
ATOM     27  N   UNL     1      -1.088   1.894  -1.237  0.00  0.00    -0.232 NA
ATOM     28 CL   UNL     1      -3.250   5.299  -4.360  0.00  0.00    -0.083 Cl
ENDBRANCH  15  16
ENDBRANCH   1  15
BRANCH   1  29
ATOM     29  C   UNL     1       1.980  -0.036  -1.590  0.00  0.00    +0.091 C 
BRANCH  29  30
ATOM     30  C   UNL     1       2.662  -1.389  -1.380  0.00  0.00    -0.060 C 
BRANCH  30  31
ATOM     31  N   UNL     1       4.066  -1.301  -1.802  0.00  0.00    +0.377 N 
ATOM     32  C   UNL     1       4.783  -0.365  -0.925  0.00  0.00    -0.097 C 
ATOM     33  C   UNL     1       4.688  -2.629  -1.713  0.00  0.00    -0.097 C 
ATOM     34  H   UNL     1       4.111  -0.972  -2.754  0.00  0.00    -0.083 HD
ENDBRANCH  30  31
ENDBRANCH  29  30
ENDBRANCH   1  29
TORSDOF 6
