REMARK  Name = ZINC38655352
REMARK  9 active torsions:
REMARK  status: ('A' for Active; 'I' for Inactive)
REMARK    1  A    between atoms: C_3  and  O_10
REMARK    2  A    between atoms: C_6  and  N_7
REMARK    3  A    between atoms: O_10  and  C_11
REMARK    4  A    between atoms: C_11  and  C_12
REMARK    5  A    between atoms: C_12  and  O_14
REMARK    6  A    between atoms: O_14  and  C_15
REMARK    7  A    between atoms: C_22  and  N_36
REMARK    8  A    between atoms: C_23  and  C_34
REMARK    9  A    between atoms: C_24  and  C_26
REMARK                            x       y       z     vdW  Elec       q    Type
REMARK                         _______ _______ _______ _____ _____    ______ ____
ROOT
ATOM      1  C   UNL     1       8.285   2.576  -0.099  0.00  0.00    +0.135 A 
ATOM      2  C   UNL     1       8.142   3.956  -0.047  0.00  0.00    +0.047 A 
ATOM      3  C   UNL     1       9.258   4.768  -0.088  0.00  0.00    +0.012 A 
ATOM      4  C   UNL     1      10.521   4.211  -0.181  0.00  0.00    +0.008 A 
ATOM      5  C   UNL     1      10.670   2.834  -0.233  0.00  0.00    +0.138 A 
ATOM      6  C   UNL     1       9.549   2.016  -0.185  0.00  0.00    +0.093 A 
ATOM      7  O   UNL     1      11.900   2.270  -0.324  0.00  0.00    -0.441 OA
ATOM      8  C   UNL     1      12.989   2.980   0.016  0.00  0.00    +0.199 C 
ATOM      9  C   UNL     1      12.972   4.332   0.081  0.00  0.00    +0.098 C 
ATOM     10  C   UNL     1      11.726   5.114  -0.226  0.00  0.00    +0.099 C 
ENDROOT
BRANCH  10  11
ATOM     11  C   UNL     1      11.844   5.721  -1.600  0.00  0.00    -0.016 A 
ATOM     12  C   UNL     1      11.988   4.905  -2.707  0.00  0.00    +0.007 A 
ATOM     13  C   UNL     1      12.096   5.462  -3.967  0.00  0.00    +0.020 A 
ATOM     14  C   UNL     1      12.059   6.837  -4.122  0.00  0.00    +0.042 A 
ATOM     15  C   UNL     1      11.915   7.654  -3.015  0.00  0.00    +0.040 A 
ATOM     16  C   UNL     1      11.802   7.096  -1.754  0.00  0.00    +0.046 A 
ATOM     17 CL   UNL     1      11.614   8.120  -0.365  0.00  0.00    -0.083 Cl
ATOM     18 CL   UNL     1      12.196   7.536  -5.705  0.00  0.00    -0.083 Cl
ENDBRANCH  10  11
BRANCH   8  19
ATOM     19  N   UNL     1      14.154   2.313   0.306  0.00  0.00    -0.328 N 
ATOM     20  H   UNL     1      14.182   1.345   0.264  0.00  0.00    +0.145 HD
ATOM     21  H   UNL     1      14.949   2.811   0.552  0.00  0.00    +0.145 HD
ENDBRANCH   8  19
BRANCH   9  22
ATOM     22  C   UNL     1      14.166   5.032   0.451  0.00  0.00    +0.101 C 
ATOM     23  N   UNL     1      15.113   5.586   0.744  0.00  0.00    -0.191 NA
ENDBRANCH   9  22
BRANCH   1  24
ATOM     24  O   UNL     1       7.187   1.776  -0.058  0.00  0.00    -0.423 OA
BRANCH  24  25
ATOM     25  C   UNL     1       6.455   1.653  -1.177  0.00  0.00    +0.350 C 
ATOM     26  O   UNL     1       6.727   2.312  -2.152  0.00  0.00    -0.247 OA
BRANCH  25  27
ATOM     27  C   UNL     1       5.295   0.693  -1.216  0.00  0.00    +0.349 C 
BRANCH  27  28
ATOM     28  O   UNL     1       4.679   0.742  -2.505  0.00  0.00    -0.481 OA
BRANCH  28  31
ATOM     29  C   UNL     1       1.875  -0.900  -4.141  0.00  0.00    +0.036 A 
ATOM     30  C   UNL     1       2.962  -0.073  -3.937  0.00  0.00    +0.048 A 
ATOM     31  C   UNL     1       3.608  -0.070  -2.709  0.00  0.00    +0.121 A 
ATOM     32  C   UNL     1       3.160  -0.898  -1.690  0.00  0.00    +0.048 A 
ATOM     33  C   UNL     1       2.072  -1.722  -1.900  0.00  0.00    +0.036 A 
ATOM     34  C   UNL     1       1.430  -1.724  -3.124  0.00  0.00    +0.126 A 
BRANCH  34  35
ATOM     35  N   UNL     1       0.264  -2.608  -3.346  0.00  0.00    +0.056 N 
ATOM     36  O   UNL     1      -0.299  -2.609  -4.416  0.00  0.00    -0.126 OA
ATOM     37  O   UNL     1      -0.126  -3.329  -2.457  0.00  0.00    -0.126 OA
ENDBRANCH  34  35
ENDBRANCH  28  31
ENDBRANCH  27  28
ENDBRANCH  25  27
ENDBRANCH  24  25
ENDBRANCH   1  24
TORSDOF 9
