REMARK  Name = ZINC09729565
REMARK  12 active torsions:
REMARK  status: ('A' for Active; 'I' for Inactive)
REMARK    1  A    between atoms: C_1  and  C_2
REMARK    2  A    between atoms: C_2  and  C_4
REMARK    3  A    between atoms: C_2  and  N_59
REMARK    4  A    between atoms: C_7  and  S_16
REMARK    5  A    between atoms: N_8  and  C_9
REMARK    6  A    between atoms: S_16  and  C_17
REMARK    7  A    between atoms: C_17  and  C_19
REMARK    8  A    between atoms: C_17  and  C_20
REMARK    9  A    between atoms: N_22  and  C_23
REMARK   10  A    between atoms: C_23  and  C_24
REMARK   11  A    between atoms: C_33  and  N_59
REMARK   12  A    between atoms: C_34  and  N_59
REMARK                            x       y       z     vdW  Elec       q    Type
REMARK                         _______ _______ _______ _____ _____    ______ ____
ROOT
ATOM      1  C   UNL     1       4.617   0.496   1.256  0.00  0.00    +0.125 A 
ATOM      2  N   UNL     1       4.115   0.985   0.157  0.00  0.00    -0.135 NA
ATOM      3  N   UNL     1       2.864   0.702   0.078  0.00  0.00    -0.122 NA
ATOM      4  C   UNL     1       2.495   0.010   1.131  0.00  0.00    +0.197 A 
ATOM      5  N   UNL     1       3.602  -0.140   1.920  0.00  0.00    -0.275 N 
ENDROOT
BRANCH   5   6
ATOM      6  C   UNL     1       3.682  -0.808   3.152  0.00  0.00    +0.050 A 
ATOM      7  C   UNL     1       3.977  -0.099   4.308  0.00  0.00    +0.029 A 
ATOM      8  C   UNL     1       4.049  -0.757   5.521  0.00  0.00    +0.040 A 
ATOM      9  C   UNL     1       3.840  -2.125   5.581  0.00  0.00    +0.124 A 
ATOM     10  C   UNL     1       3.551  -2.834   4.427  0.00  0.00    +0.040 A 
ATOM     11  C   UNL     1       3.472  -2.178   3.214  0.00  0.00    +0.029 A 
ATOM     12  F   UNL     1       3.917  -2.768   6.766  0.00  0.00    -0.205 F 
ENDBRANCH   5   6
BRANCH   1  14
ATOM     13  C   UNL     1       6.305   2.030   2.228  0.00  0.00    -0.005 C 
ATOM     14  C   UNL     1       6.048   0.612   1.713  0.00  0.00    -0.003 C 
BRANCH  14  17
ATOM     15  C   UNL     1       8.354   0.436   0.995  0.00  0.00    -0.096 C 
ATOM     16  C   UNL     1       6.665  -0.988   0.004  0.00  0.00    -0.096 C 
ATOM     17  N   UNL     1       6.942   0.351   0.565  0.00  0.00    +0.382 N 
ATOM     18  H   UNL     1       6.771   1.058  -0.159  0.00  0.00    -0.082 HD
ENDBRANCH  14  17
ENDBRANCH   1  14
BRANCH   4  19
ATOM     19  S   UNL     1       0.877  -0.604   1.468  0.00  0.00    -0.073 S 
BRANCH  19  20
ATOM     20  C   UNL     1       0.002  -0.004   0.002  0.00  0.00    +0.137 C 
ATOM     21  C   UNL     1      -0.019   1.526   0.010  0.00  0.00    +0.029 C 
BRANCH  20  22
ATOM     22  C   UNL     1      -1.412  -0.526   0.013  0.00  0.00    +0.226 C 
ATOM     23  O   UNL     1      -1.939  -0.827   1.062  0.00  0.00    -0.275 OA
ATOM     24  N   UNL     1      -2.090  -0.657  -1.144  0.00  0.00    -0.310 N 
ATOM     25  H   UNL     1      -1.669  -0.416  -1.984  0.00  0.00    +0.149 HD
BRANCH  24  26
ATOM     26  C   UNL     1      -3.465  -1.164  -1.134  0.00  0.00    +0.139 C 
BRANCH  26  27
ATOM     27  C   UNL     1      -3.992  -1.214  -2.545  0.00  0.00    -0.027 A 
ATOM     28  C   UNL     1      -4.651  -0.120  -3.074  0.00  0.00    +0.009 A 
ATOM     29  C   UNL     1      -5.132  -0.159  -4.370  0.00  0.00    +0.050 A 
ATOM     30  C   UNL     1      -4.965  -1.301  -5.137  0.00  0.00    +0.166 A 
ATOM     31  C   UNL     1      -4.306  -2.405  -4.602  0.00  0.00    +0.167 A 
ATOM     32  C   UNL     1      -3.822  -2.357  -3.305  0.00  0.00    +0.054 A 
ATOM     33  O   UNL     1      -4.271  -3.391  -5.545  0.00  0.00    -0.453 OA
ATOM     34  C   UNL     1      -5.270  -3.030  -6.517  0.00  0.00    +0.466 C 
ATOM     35  O   UNL     1      -5.343  -1.595  -6.415  0.00  0.00    -0.453 OA
ENDBRANCH  26  27
ENDBRANCH  24  26
ENDBRANCH  20  22
ENDBRANCH  19  20
ENDBRANCH   4  19
TORSDOF 8
