REMARK  Name = ZINC08818345
REMARK  9 active torsions:
REMARK  status: ('A' for Active; 'I' for Inactive)
REMARK    1  A    between atoms: C_1  and  C_2
REMARK    2  A    between atoms: C_2  and  C_3
REMARK    3  A    between atoms: C_15  and  C_28
REMARK    4  A    between atoms: C_20  and  C_22
REMARK    5  A    between atoms: C_31  and  N_34
REMARK    6  A    between atoms: N_34  and  C_35
REMARK    7  A    between atoms: N_34  and  C_37
REMARK    8  A    between atoms: C_35  and  C_36
REMARK    9  A    between atoms: C_37  and  C_38
REMARK                            x       y       z     vdW  Elec       q    Type
REMARK                         _______ _______ _______ _____ _____    ______ ____
ROOT
ATOM      1  C   UNL     1       0.707  -0.490  -1.238  0.00  0.00    +0.220 C 
ATOM      2  O   UNL     1       1.150   0.309  -2.036  0.00  0.00    -0.275 OA
ATOM      3  N   UNL     1       0.847  -1.812  -1.460  0.00  0.00    -0.255 N 
ATOM      4  C   UNL     1       0.328  -2.722  -0.537  0.00  0.00    +0.058 A 
ATOM      5  C   UNL     1      -1.034  -2.824  -0.307  0.00  0.00    +0.025 A 
ATOM      6  C   UNL     1      -1.504  -3.774   0.583  0.00  0.00    +0.002 A 
ATOM      7  C   UNL     1      -0.624  -4.618   1.236  0.00  0.00    +0.002 A 
ATOM      8  C   UNL     1       0.739  -4.507   1.022  0.00  0.00    +0.025 A 
ATOM      9  C   UNL     1       1.211  -3.542   0.149  0.00  0.00    +0.053 A 
ATOM     10  N   UNL     1       2.568  -3.301  -0.027  0.00  0.00    -0.316 N 
ATOM     11  C   UNL     1       3.241  -3.459  -1.195  0.00  0.00    +0.017 C 
ATOM     12  C   UNL     1       4.568  -4.191  -1.073  0.00  0.00    +0.059 C 
ATOM     13  C   UNL     1       4.845  -4.984  -2.349  0.00  0.00    +0.032 C 
ATOM     14  C   UNL     1       4.891  -3.989  -3.515  0.00  0.00    +0.088 C 
ATOM     15  C   UNL     1       3.597  -3.233  -3.550  0.00  0.00    +0.163 C 
ATOM     16  C   UNL     1       2.818  -3.011  -2.389  0.00  0.00    +0.040 C 
ATOM     17  C   UNL     1       1.526  -2.267  -2.654  0.00  0.00    +0.182 C 
ATOM     18  O   UNL     1       3.202  -2.796  -4.613  0.00  0.00    -0.292 OA
ATOM     19  H   UNL     1       3.073  -2.996   0.743  0.00  0.00    +0.152 HD
ENDROOT
BRANCH  13  20
ATOM     20  C   UNL     1       6.168  -5.696  -2.230  0.00  0.00    -0.043 A 
ATOM     21  C   UNL     1       7.327  -4.971  -2.030  0.00  0.00    +0.006 A 
ATOM     22  C   UNL     1       8.541  -5.624  -1.921  0.00  0.00    +0.022 A 
ATOM     23  C   UNL     1       8.595  -7.002  -2.013  0.00  0.00    +0.013 A 
ATOM     24  C   UNL     1       7.435  -7.727  -2.212  0.00  0.00    +0.022 A 
ATOM     25  C   UNL     1       6.221  -7.074  -2.317  0.00  0.00    +0.006 A 
BRANCH  23  26
ATOM     26  N   UNL     1       9.822  -7.662  -1.903  0.00  0.00    -0.394 NA
ATOM     27  H   UNL     1      10.557  -6.986  -1.762  0.00  0.00    +0.126 HD
BRANCH  26  28
ATOM     28  C   UNL     1       9.781  -8.587  -0.763  0.00  0.00    +0.081 C 
ATOM     29  C   UNL     1      11.161  -9.217  -0.567  0.00  0.00    +0.022 C 
ENDBRANCH  26  28
BRANCH  26  30
ATOM     30  C   UNL     1      10.083  -8.417  -3.136  0.00  0.00    +0.081 C 
ATOM     31  C   UNL     1      10.249  -7.444  -4.305  0.00  0.00    +0.022 C 
ENDBRANCH  26  30
ENDBRANCH  23  26
ENDBRANCH  13  20
BRANCH  17  32
ATOM     32  C   UNL     1       0.595  -3.175  -3.416  0.00  0.00    +0.130 A 
ATOM     33  C   UNL     1       0.449  -3.209  -4.753  0.00  0.00    +0.047 A 
ATOM     34  C   UNL     1      -0.519  -4.200  -5.034  0.00  0.00    +0.041 A 
ATOM     35  C   UNL     1      -0.908  -4.712  -3.852  0.00  0.00    +0.195 A 
ATOM     36  O   UNL     1      -0.225  -4.091  -2.876  0.00  0.00    -0.466 OA
ENDBRANCH  17  32
BRANCH   1  38
ATOM     37  C   UNL     1      -0.019   1.526   0.010  0.00  0.00    +0.013 C 
ATOM     38  C   UNL     1       0.002  -0.004   0.002  0.00  0.00    +0.093 C 
ENDBRANCH   1  38
TORSDOF 6
