REMARK  Name = ZINC64538958
REMARK  10 active torsions:
REMARK  status: ('A' for Active; 'I' for Inactive)
REMARK    1  A    between atoms: C_1  and  C_2
REMARK    2  A    between atoms: C_3  and  C_13
REMARK    3  A    between atoms: C_5  and  C_12
REMARK    4  A    between atoms: C_6  and  C_8
REMARK    5  A    between atoms: C_8  and  O_10
REMARK    6  A    between atoms: O_10  and  C_11
REMARK    7  A    between atoms: C_19  and  C_22
REMARK    8  A    between atoms: N_24  and  C_25
REMARK    9  A    between atoms: C_25  and  C_26
REMARK   10  A    between atoms: C_26  and  C_27
REMARK                            x       y       z     vdW  Elec       q    Type
REMARK                         _______ _______ _______ _____ _____    ______ ____
ROOT
ATOM      1  C   UNL     1      -0.004  -0.342  -2.469  0.00  0.00    +0.265 C 
ATOM      2  O   UNL     1      -0.128   0.843  -2.708  0.00  0.00    -0.268 OA
ATOM      3  N   UNL     1       0.106  -1.226  -3.481  0.00  0.00    -0.296 N 
ATOM      4  C   UNL     1       0.123  -2.671  -3.214  0.00  0.00    +0.108 C 
ATOM      5  C   UNL     1       1.367  -3.278  -3.870  0.00  0.00    +0.020 C 
ATOM      6  C   UNL     1       1.385  -2.913  -5.356  0.00  0.00    +0.016 C 
ATOM      7  C   UNL     1       1.453  -1.391  -5.508  0.00  0.00    +0.092 C 
ATOM      8  C   UNL     1       0.205  -0.763  -4.871  0.00  0.00    +0.120 C 
ENDROOT
BRANCH   1  11
ATOM      9  C   UNL     1      -0.543   1.440  -0.002  0.00  0.00    +0.042 C 
ATOM     10  C   UNL     1      -0.210  -0.030  -0.003  0.00  0.00    -0.023 C 
ATOM     11  C   UNL     1       0.026  -0.815  -1.069  0.00  0.00    +0.126 C 
ATOM     12  N   UNL     1       0.296  -2.099  -0.702  0.00  0.00    -0.250 NA
ATOM     13  C   UNL     1       0.268  -2.284   0.572  0.00  0.00    +0.034 C 
ATOM     14  C   UNL     1      -0.063  -0.944   1.199  0.00  0.00    +0.169 C 
ATOM     15  C   UNL     1       0.520  -3.580   1.299  0.00  0.00    +0.062 C 
BRANCH  14  16
ATOM     16  C   UNL     1       1.060  -0.478   2.088  0.00  0.00    +0.320 C 
ATOM     17  O   UNL     1       1.697   0.506   1.793  0.00  0.00    -0.250 OA
BRANCH  16  18
ATOM     18  O   UNL     1       1.354  -1.155   3.210  0.00  0.00    -0.467 OA
ATOM     19  C   UNL     1       2.430  -0.656   4.006  0.00  0.00    +0.280 C 
ENDBRANCH  16  18
ENDBRANCH  14  16
ENDBRANCH   1  11
BRANCH   7  20
ATOM     20  C   UNL     1       1.505  -1.034  -6.971  0.00  0.00    +0.218 C 
ATOM     21  O   UNL     1       1.489  -1.909  -7.810  0.00  0.00    -0.275 OA
ATOM     22  N   UNL     1       1.569   0.259  -7.347  0.00  0.00    -0.315 N 
ATOM     23  H   UNL     1       1.582   0.959  -6.676  0.00  0.00    +0.149 HD
BRANCH  22  24
ATOM     24  C   UNL     1       1.619   0.606  -8.770  0.00  0.00    +0.108 C 
BRANCH  24  25
ATOM     25  C   UNL     1       1.687   2.127  -8.921  0.00  0.00    +0.052 C 
BRANCH  25  26
ATOM     26  C   UNL     1       1.739   2.485 -10.384  0.00  0.00    -0.040 C 
ATOM     27  C   UNL     1       0.695   2.820 -11.177  0.00  0.00    -0.001 A 
ATOM     28  C   UNL     1      -0.745   2.946 -10.923  0.00  0.00    +0.010 A 
ATOM     29  C   UNL     1      -1.561   3.306 -11.940  0.00  0.00    +0.001 A 
ATOM     30  C   UNL     1      -1.066   3.561 -13.227  0.00  0.00    +0.002 A 
ATOM     31  C   UNL     1       0.244   3.466 -13.536  0.00  0.00    +0.026 A 
ATOM     32  C   UNL     1       1.192   3.095 -12.543  0.00  0.00    +0.043 A 
ATOM     33  N   UNL     1       2.493   2.936 -12.594  0.00  0.00    -0.380 N 
ATOM     34  C   UNL     1       2.969   2.548 -11.262  0.00  0.00    +0.144 C 
ATOM     35  H   UNL     1       3.047   3.059 -13.380  0.00  0.00    +0.160 HD
ENDBRANCH  25  26
ENDBRANCH  24  25
ENDBRANCH  22  24
ENDBRANCH   7  20
TORSDOF 7
