REMARK  Name = ZINC16651225
REMARK  10 active torsions:
REMARK  status: ('A' for Active; 'I' for Inactive)
REMARK    1  A    between atoms: C_1  and  C_2
REMARK    2  A    between atoms: C_5  and  C_7
REMARK    3  A    between atoms: C_7  and  N_8
REMARK    4  A    between atoms: N_8  and  C_9
REMARK    5  A    between atoms: C_9  and  C_10
REMARK    6  A    between atoms: C_17  and  C_19
REMARK    7  A    between atoms: C_19  and  N_20
REMARK    8  A    between atoms: N_20  and  C_21
REMARK    9  A    between atoms: C_21  and  C_22
REMARK   10  A    between atoms: N_30  and  C_31
REMARK                            x       y       z     vdW  Elec       q    Type
REMARK                         _______ _______ _______ _____ _____    ______ ____
ROOT
ATOM      1  N   UNL     1      -2.870   1.911   3.097  0.00  0.00    -0.274 N 
ATOM      2  C   UNL     1      -3.739   1.013   3.601  0.00  0.00    +0.307 C 
ATOM      3  O   UNL     1      -3.654   0.672   4.765  0.00  0.00    -0.252 OA
ATOM      4  N   UNL     1      -4.702   0.492   2.815  0.00  0.00    -0.269 N 
ATOM      5  H   UNL     1      -4.822   0.823   1.911  0.00  0.00    +0.156 HD
ENDROOT
BRANCH   4   6
ATOM      6  C   UNL     1      -5.528  -0.523   3.302  0.00  0.00    +0.042 A 
ATOM      7  C   UNL     1      -5.094  -1.344   4.321  0.00  0.00    +0.024 A 
ATOM      8  C   UNL     1      -5.911  -2.355   4.817  0.00  0.00    +0.002 A 
ATOM      9  C   UNL     1      -7.154  -2.570   4.304  0.00  0.00    +0.008 A 
ATOM     10  C   UNL     1      -7.632  -1.759   3.260  0.00  0.00    -0.016 A 
ATOM     11  C   UNL     1      -6.811  -0.722   2.751  0.00  0.00    +0.003 A 
ATOM     12  C   UNL     1      -7.291   0.087   1.709  0.00  0.00    +0.010 A 
ATOM     13  C   UNL     1      -8.535  -0.134   1.202  0.00  0.00    +0.001 A 
ATOM     14  C   UNL     1      -9.342  -1.153   1.702  0.00  0.00    +0.001 A 
ATOM     15  C   UNL     1      -8.911  -1.957   2.712  0.00  0.00    +0.008 A 
ENDBRANCH   4   6
BRANCH   1  16
ATOM     16  C   UNL     1      -1.823   2.477   3.952  0.00  0.00    +0.205 C 
BRANCH  16  18
ATOM     17  N   UNL     1      -1.544   4.421   5.455  0.00  0.00    -0.289 N 
ATOM     18  C   UNL     1      -2.339   3.726   4.617  0.00  0.00    +0.234 C 
ATOM     19  O   UNL     1      -3.470   4.107   4.400  0.00  0.00    -0.274 OA
BRANCH  17  20
ATOM     20  C   UNL     1      -0.178   3.962   5.718  0.00  0.00    +0.182 C 
BRANCH  20  25
ATOM     21  C   UNL     1       2.564   4.650   1.541  0.00  0.00    +0.086 C 
ATOM     22  C   UNL     1       1.954   4.880   2.900  0.00  0.00    +0.102 A 
ATOM     23  C   UNL     1       2.177   5.944   3.692  0.00  0.00    +0.045 A 
ATOM     24  C   UNL     1       1.409   5.751   4.863  0.00  0.00    +0.046 A 
ATOM     25  C   UNL     1       0.762   4.581   4.716  0.00  0.00    +0.122 A 
ATOM     26  O   UNL     1       1.101   4.055   3.528  0.00  0.00    -0.463 OA
ENDBRANCH  20  25
ENDBRANCH  17  20
BRANCH  17  27
ATOM     27  C   UNL     1      -2.046   5.636   6.102  0.00  0.00    +0.143 C 
BRANCH  27  28
ATOM     28  C   UNL     1      -2.689   5.276   7.417  0.00  0.00    -0.030 A 
ATOM     29  C   UNL     1      -4.038   4.976   7.466  0.00  0.00    +0.008 A 
ATOM     30  C   UNL     1      -4.629   4.641   8.670  0.00  0.00    +0.038 A 
ATOM     31  C   UNL     1      -3.871   4.615   9.828  0.00  0.00    +0.123 A 
ATOM     32  C   UNL     1      -2.521   4.920   9.778  0.00  0.00    +0.038 A 
ATOM     33  C   UNL     1      -1.932   5.250   8.573  0.00  0.00    +0.008 A 
ATOM     34  F   UNL     1      -4.448   4.292  11.006  0.00  0.00    -0.205 F 
ENDBRANCH  27  28
ENDBRANCH  17  27
ENDBRANCH  16  18
ENDBRANCH   1  16
BRANCH   1  35
ATOM     35  C   UNL     1      -2.972   2.322   1.694  0.00  0.00    +0.141 C 
BRANCH  35  36
ATOM     36  C   UNL     1      -2.120   1.393   0.828  0.00  0.00    +0.136 C 
ATOM     37  C   UNL     1      -2.212   1.808  -0.657  0.00  0.00    +0.035 C 
ATOM     38  C   UNL     1      -0.787   1.567  -1.204  0.00  0.00    +0.031 C 
ATOM     39  C   UNL     1      -0.002   1.036   0.015  0.00  0.00    +0.160 C 
ATOM     40  O   UNL     1      -0.720   1.534   1.165  0.00  0.00    -0.375 OA
ENDBRANCH  35  36
ENDBRANCH   1  35
TORSDOF 9
