REMARK  Name = ZINC39674629
REMARK  10 active torsions:
REMARK  status: ('A' for Active; 'I' for Inactive)
REMARK    1  A    between atoms: C_1  and  C_2
REMARK    2  A    between atoms: C_4  and  C_14
REMARK    3  A    between atoms: C_7  and  C_12
REMARK    4  A    between atoms: C_14  and  C_15
REMARK    5  A    between atoms: C_15  and  N_16
REMARK    6  A    between atoms: C_17  and  C_19
REMARK    7  A    between atoms: C_30  and  C_32
REMARK    8  A    between atoms: C_37  and  O_38
REMARK    9  A    between atoms: O_38  and  C_39
REMARK   10  A    between atoms: C_39  and  C_41
REMARK                            x       y       z     vdW  Elec       q    Type
REMARK                         _______ _______ _______ _____ _____    ______ ____
ROOT
ATOM      1  C   UNL     1       1.524  -0.720  -7.769  0.00  0.00    +0.100 C 
ATOM      2  C   UNL     1       0.187  -1.483  -7.909  0.00  0.00    +0.121 C 
ATOM      3  N   UNL     1       0.281  -2.166  -9.221  0.00  0.00    -0.296 N 
ATOM      4  C   UNL     1       1.688  -2.627  -9.296  0.00  0.00    +0.115 C 
ATOM      5  C   UNL     1       2.506  -1.475  -8.680  0.00  0.00    -0.004 C 
ATOM      6  C   UNL     1       3.666  -2.032  -7.860  0.00  0.00    -0.010 C 
ATOM      7  C   UNL     1       4.659  -2.727  -8.795  0.00  0.00    -0.082 C 
ATOM      8  N   UNL     1       5.153  -1.766  -9.789  0.00  0.00    +0.379 N 
ATOM      9  C   UNL     1       4.045  -1.306 -10.635  0.00  0.00    -0.082 C 
ATOM     10  C   UNL     1       3.026  -0.551  -9.777  0.00  0.00    -0.010 C 
ATOM     11  C   UNL     1      -0.692  -2.329 -10.139  0.00  0.00    +0.250 C 
ATOM     12  O   UNL     1      -0.484  -2.999 -11.132  0.00  0.00    -0.270 OA
ATOM     13  H   UNL     1       5.564  -0.976  -9.316  0.00  0.00    -0.086 HD
ATOM     14  H   UNL     1       5.852  -2.210 -10.366  0.00  0.00    -0.086 HD
ENDROOT
BRANCH  11  15
ATOM     15  C   UNL     1      -2.010  -1.696  -9.938  0.00  0.00    +0.079 A 
ATOM     16  C   UNL     1      -2.544  -1.579  -8.652  0.00  0.00    +0.017 A 
ATOM     17  C   UNL     1      -3.775  -0.987  -8.471  0.00  0.00    +0.001 A 
ATOM     18  C   UNL     1      -4.486  -0.506  -9.559  0.00  0.00    +0.004 A 
ATOM     19  C   UNL     1      -3.970  -0.616 -10.835  0.00  0.00    +0.047 A 
ATOM     20  C   UNL     1      -2.730  -1.205 -11.034  0.00  0.00    +0.144 A 
BRANCH  20  21
ATOM     21  O   UNL     1      -2.219  -1.309 -12.287  0.00  0.00    -0.425 OA
BRANCH  21  22
ATOM     22  C   UNL     1      -1.408  -0.330 -12.721  0.00  0.00    +0.309 C 
ATOM     23  O   UNL     1      -1.080   0.560 -11.971  0.00  0.00    -0.251 OA
ATOM     24  C   UNL     1      -0.907  -0.340 -14.142  0.00  0.00    +0.136 C 
ENDBRANCH  21  22
ENDBRANCH  20  21
ENDBRANCH  11  15
BRANCH   1  26
ATOM     25  N   UNL     1       2.842   0.195  -5.887  0.00  0.00    -0.315 N 
ATOM     26  C   UNL     1       2.000  -0.755  -6.340  0.00  0.00    +0.218 C 
ATOM     27  O   UNL     1       1.627  -1.639  -5.598  0.00  0.00    -0.275 OA
ATOM     28  H   UNL     1       3.140   0.902  -6.480  0.00  0.00    +0.149 HD
BRANCH  25  29
ATOM     29  C   UNL     1       3.305   0.161  -4.497  0.00  0.00    +0.108 C 
BRANCH  29  30
ATOM     30  C   UNL     1       4.243   1.343  -4.243  0.00  0.00    +0.052 C 
BRANCH  30  33
ATOM     31  C   UNL     1       7.014   2.286  -2.852  0.00  0.00    +0.035 C 
ATOM     32  C   UNL     1       5.657   2.287  -2.144  0.00  0.00    +0.103 C 
ATOM     33  C   UNL     1       4.720   1.308  -2.814  0.00  0.00    -0.037 C 
ATOM     34  C   UNL     1       4.395   0.391  -1.867  0.00  0.00    +0.000 A 
ATOM     35  C   UNL     1       3.558  -0.755  -1.907  0.00  0.00    +0.028 A 
ATOM     36  C   UNL     1       3.397  -1.531  -0.782  0.00  0.00    +0.052 A 
ATOM     37  C   UNL     1       4.073  -1.202   0.468  0.00  0.00    +0.021 A 
ATOM     38  C   UNL     1       4.880  -0.125   0.564  0.00  0.00    +0.027 A 
ATOM     39  C   UNL     1       5.086   0.736  -0.606  0.00  0.00    +0.043 A 
ATOM     40  N   UNL     1       5.808   1.821  -0.762  0.00  0.00    -0.378 N 
ATOM     41  H   UNL     1       6.351   2.244  -0.079  0.00  0.00    +0.160 HD
BRANCH  36  42
ATOM     42  C   UNL     1       2.549  -2.683  -0.840  0.00  0.00    +0.099 C 
ATOM     43  N   UNL     1       1.877  -3.598  -0.886  0.00  0.00    -0.191 NA
ENDBRANCH  36  42
ENDBRANCH  30  33
ENDBRANCH  29  30
ENDBRANCH  25  29
ENDBRANCH   1  26
TORSDOF 8
