REMARK  Name = ZINC21730566
REMARK  2 active torsions:
REMARK  status: ('A' for Active; 'I' for Inactive)
REMARK    1  A    between atoms: C_5  and  C_7
REMARK    2  A    between atoms: C_9  and  C_12
REMARK                            x       y       z     vdW  Elec       q    Type
REMARK                         _______ _______ _______ _____ _____    ______ ____
ROOT
ATOM      1  C   UNL     1       1.949  -4.154  -0.037  0.00  0.00    +0.203 A 
ATOM      2  N   UNL     1       2.382  -2.877  -0.036  0.00  0.00    -0.187 NA
ATOM      3  C   UNL     1       1.289  -2.133  -0.021  0.00  0.00    +0.264 A 
ATOM      4  O   UNL     1       0.245  -2.978  -0.009  0.00  0.00    -0.332 OA
ATOM      5  N   UNL     1       0.641  -4.124  -0.024  0.00  0.00    -0.056 NA
ENDROOT
BRANCH   3   6
ATOM      6  C   UNL     1       1.228  -0.662  -0.013  0.00  0.00    +0.104 A 
ATOM      7  C   UNL     1       0.002  -0.004   0.002  0.00  0.00    +0.020 A 
ATOM      8  C   UNL     1      -0.017   1.392   0.010  0.00  0.00    +0.018 A 
ATOM      9  C   UNL     1       1.147   2.089   0.002  0.00  0.00    +0.086 A 
ATOM     10  N   UNL     1       2.345   1.454  -0.013  0.00  0.00    -0.328 N 
ATOM     11  H   UNL     1       3.277   2.039  -0.018  0.00  0.00    +0.168 HD
ATOM     12  C   UNL     1       2.419   0.110  -0.021  0.00  0.00    +0.261 A 
ATOM     13  O   UNL     1       3.505  -0.443  -0.034  0.00  0.00    -0.267 OA
ENDBRANCH   3   6
BRANCH   1  18
ATOM     14  C   UNL     1       4.974  -6.387  -0.077  0.00  0.00    +0.001 A 
ATOM     15  C   UNL     1       4.387  -7.639  -0.077  0.00  0.00    +0.001 A 
ATOM     16  C   UNL     1       3.010  -7.763  -0.064  0.00  0.00    +0.016 A 
ATOM     17  C   UNL     1       2.213  -6.635  -0.051  0.00  0.00    +0.029 A 
ATOM     18  C   UNL     1       2.800  -5.370  -0.051  0.00  0.00    +0.036 A 
ATOM     19  C   UNL     1       4.188  -5.253  -0.070  0.00  0.00    +0.013 A 
ATOM     20 BR   UNL     1       0.329  -6.805  -0.035  0.00  0.00    -0.050 Br
ENDBRANCH   1  18
TORSDOF 2
