REMARK  Name = ZINC09586578
REMARK  9 active torsions:
REMARK  status: ('A' for Active; 'I' for Inactive)
REMARK    1  A    between atoms: C_1  and  C_2
REMARK    2  A    between atoms: C_2  and  O_3
REMARK    3  A    between atoms: O_3  and  C_4
REMARK    4  A    between atoms: C_6  and  C_14
REMARK    5  A    between atoms: C_9  and  O_10
REMARK    6  A    between atoms: O_10  and  C_11
REMARK    7  A    between atoms: C_11  and  C_12
REMARK    8  A    between atoms: C_14  and  N_15
REMARK    9  A    between atoms: C_21  and  N_26
REMARK                            x       y       z     vdW  Elec       q    Type
REMARK                         _______ _______ _______ _____ _____    ______ ____
ROOT
ATOM      1  C   UNL     1       1.530   0.033   6.143  0.00  0.00    +0.153 C 
ENDROOT
BRANCH   1   2
ATOM      2  N   UNL     1       0.794   0.686   7.228  0.00  0.00    -0.230 N 
ATOM      3  C   UNL     1       1.051   1.925   7.684  0.00  0.00    +0.254 C 
ATOM      4  O   UNL     1       1.916   2.668   7.267  0.00  0.00    -0.270 OA
ATOM      5  C   UNL     1       0.101   2.232   8.774  0.00  0.00    +0.050 A 
ATOM      6  C   UNL     1      -0.108   3.328   9.596  0.00  0.00    +0.016 A 
ATOM      7  C   UNL     1      -1.111   3.289  10.552  0.00  0.00    +0.033 A 
ATOM      8  C   UNL     1      -1.903   2.165  10.691  0.00  0.00    +0.127 A 
ATOM      9  C   UNL     1      -1.705   1.061   9.877  0.00  0.00    +0.046 A 
ATOM     10  C   UNL     1      -0.707   1.085   8.916  0.00  0.00    +0.052 A 
ATOM     11  C   UNL     1      -0.224   0.123   7.904  0.00  0.00    +0.254 C 
ATOM     12  O   UNL     1      -0.672  -0.990   7.713  0.00  0.00    -0.270 OA
BRANCH   8  13
ATOM     13  N   UNL     1      -2.969   2.139  11.717  0.00  0.00    +0.056 N 
ATOM     14  O   UNL     1      -3.146   3.107  12.436  0.00  0.00    -0.126 OA
ATOM     15  O   UNL     1      -3.670   1.151  11.844  0.00  0.00    -0.126 OA
ENDBRANCH   8  13
ENDBRANCH   1   2
BRANCH   1  18
ATOM     16  C   UNL     1      -0.777   1.556   3.568  0.00  0.00    +0.162 A 
ATOM     17  C   UNL     1      -0.224   1.191   4.785  0.00  0.00    +0.055 A 
ATOM     18  C   UNL     1       0.929   0.428   4.819  0.00  0.00    -0.012 A 
ATOM     19  C   UNL     1       1.532   0.028   3.640  0.00  0.00    +0.026 A 
ATOM     20  C   UNL     1       0.981   0.384   2.422  0.00  0.00    +0.065 A 
ATOM     21  C   UNL     1      -0.171   1.153   2.382  0.00  0.00    +0.163 A 
ATOM     22 BR   UNL     1       3.109  -1.015   3.693  0.00  0.00    -0.050 Br
BRANCH  16  23
ATOM     23  O   UNL     1      -1.911   2.307   3.534  0.00  0.00    -0.489 OA
BRANCH  23  25
ATOM     24  C   UNL     1      -3.738   3.518   4.551  0.00  0.00    +0.048 C 
ATOM     25  C   UNL     1      -2.478   2.684   4.790  0.00  0.00    +0.226 C 
ENDBRANCH  23  25
ENDBRANCH  16  23
BRANCH  21  26
ATOM     26  O   UNL     1      -0.712   1.509   1.186  0.00  0.00    -0.489 OA
BRANCH  26  27
ATOM     27  C   UNL     1      -0.036   1.060   0.009  0.00  0.00    +0.226 C 
ATOM     28  C   UNL     1      -0.786   1.554  -1.229  0.00  0.00    +0.048 C 
ENDBRANCH  26  27
ENDBRANCH  21  26
ENDBRANCH   1  18
TORSDOF 7
