REMARK  Name = ZINC25473411
REMARK  5 active torsions:
REMARK  status: ('A' for Active; 'I' for Inactive)
REMARK    1  A    between atoms: C_1  and  N_2
REMARK    2  A    between atoms: C_3  and  C_24
REMARK    3  A    between atoms: N_5  and  C_8
REMARK    4  A    between atoms: C_8  and  N_9
REMARK    5  A    between atoms: C_13  and  C_16
REMARK                            x       y       z     vdW  Elec       q    Type
REMARK                         _______ _______ _______ _____ _____    ______ ____
ROOT
ATOM      1  N   UNL     1      -2.897   1.371   1.406  0.00  0.00    +0.393 N 
ATOM      2  C   UNL     1      -2.564   2.745   1.801  0.00  0.00    -0.076 C 
ATOM      3  C   UNL     1      -3.002   2.981   3.248  0.00  0.00    -0.018 C 
ATOM      4  C   UNL     1      -4.511   2.748   3.365  0.00  0.00    +0.009 C 
ATOM      5  C   UNL     1      -4.837   1.326   2.901  0.00  0.00    +0.059 C 
ATOM      6  C   UNL     1      -4.346   1.138   1.464  0.00  0.00    -0.064 C 
ATOM      7  H   UNL     1      -2.419   0.690   2.125  0.00  0.00    -0.079 HD
ENDROOT
BRANCH   5   8
ATOM      8  C   UNL     1      -6.327   1.108   2.957  0.00  0.00    +0.217 C 
ATOM      9  O   UNL     1      -7.002   1.279   1.964  0.00  0.00    -0.275 OA
ATOM     10  N   UNL     1      -6.910   0.723   4.110  0.00  0.00    -0.297 N 
ATOM     11  C   UNL     1      -8.345   0.406   4.164  0.00  0.00    +0.136 C 
ATOM     12  C   UNL     1      -8.508  -0.964   4.842  0.00  0.00    +0.179 C 
ATOM     13  O   UNL     1      -7.813  -0.954   6.092  0.00  0.00    -0.377 OA
ATOM     14  C   UNL     1      -6.401  -0.761   5.974  0.00  0.00    +0.179 C 
ATOM     15  C   UNL     1      -6.129   0.613   5.353  0.00  0.00    +0.136 C 
ENDBRANCH   5   8
BRANCH   1  16
ATOM     16  C   UNL     1      -2.368   1.064   0.070  0.00  0.00    +0.072 C 
BRANCH  16  21
ATOM     17  C   UNL     1       2.593   1.218   0.254  0.00  0.00    +0.153 C 
ATOM     18  N   UNL     1       1.193   1.600   0.055  0.00  0.00    -0.304 N 
ATOM     19  C   UNL     1       0.744   2.826  -0.400  0.00  0.00    +0.198 A 
ATOM     20  N   UNL     1      -0.561   2.797  -0.449  0.00  0.00    -0.149 NA
ATOM     21  N   UNL     1      -0.982   1.529  -0.024  0.00  0.00    -0.257 N 
ATOM     22  C   UNL     1       0.120   0.816   0.284  0.00  0.00    +0.176 A 
ATOM     23  S   UNL     1       0.152  -0.797   0.856  0.00  0.00    -0.011 S 
BRANCH  19  24
ATOM     24  C   UNL     1       1.594   3.971  -0.767  0.00  0.00    +0.172 A 
ATOM     25  C   UNL     1       1.200   5.063  -1.480  0.00  0.00    +0.053 A 
ATOM     26  C   UNL     1       2.326   5.901  -1.593  0.00  0.00    +0.042 A 
ATOM     27  C   UNL     1       3.343   5.284  -0.958  0.00  0.00    +0.196 A 
ATOM     28  O   UNL     1       2.898   4.119  -0.461  0.00  0.00    -0.460 OA
ENDBRANCH  19  24
ENDBRANCH  16  21
ENDBRANCH   1  16
TORSDOF 4
