REMARK  Name = ZINC12984725
REMARK  10 active torsions:
REMARK  status: ('A' for Active; 'I' for Inactive)
REMARK    1  A    between atoms: C_1  and  O_2
REMARK    2  A    between atoms: O_2  and  C_3
REMARK    3  A    between atoms: C_6  and  C_9
REMARK    4  A    between atoms: N_14  and  C_16
REMARK    5  A    between atoms: C_16  and  N_56
REMARK    6  A    between atoms: C_20  and  C_22
REMARK    7  A    between atoms: C_24  and  O_30
REMARK    8  A    between atoms: C_27  and  O_28
REMARK    9  A    between atoms: O_28  and  C_29
REMARK   10  A    between atoms: O_30  and  C_31
REMARK                            x       y       z     vdW  Elec       q    Type
REMARK                         _______ _______ _______ _____ _____    ______ ____
ROOT
ATOM      1  C   UNL     1       0.002  -0.004   0.002  0.00  0.00    +0.072 C 
ENDROOT
BRANCH   1   7
ATOM      2  C   UNL     1      -0.769   3.518   0.028  0.00  0.00    +0.160 A 
ATOM      3  N   UNL     1       0.612   3.545   0.015  0.00  0.00    -0.317 N 
ATOM      4  H   UNL     1       1.165   4.341   0.014  0.00  0.00    +0.169 HD
ATOM      5  C   UNL     1       1.059   2.273   0.004  0.00  0.00    +0.174 A 
ATOM      6  S   UNL     1       2.698   1.778  -0.014  0.00  0.00    -0.012 S 
ATOM      7  N   UNL     1      -0.018   1.461   0.010  0.00  0.00    -0.257 N 
ATOM      8  N   UNL     1      -1.159   2.274   0.019  0.00  0.00    -0.153 NA
BRANCH   2  12
ATOM      9  C   UNL     1      -3.316   6.919   0.072  0.00  0.00    +0.120 A 
ATOM     10  C   UNL     1      -3.865   5.643   0.070  0.00  0.00    +0.046 A 
ATOM     11  C   UNL     1      -3.041   4.538   0.056  0.00  0.00    +0.015 A 
ATOM     12  C   UNL     1      -1.655   4.702   0.043  0.00  0.00    +0.019 A 
ATOM     13  C   UNL     1      -1.108   5.986   0.051  0.00  0.00    +0.015 A 
ATOM     14  C   UNL     1      -1.938   7.087   0.061  0.00  0.00    +0.046 A 
BRANCH   9  16
ATOM     15  C   UNL     1      -3.501   9.289   0.089  0.00  0.00    +0.277 C 
ATOM     16  O   UNL     1      -4.131   8.006   0.087  0.00  0.00    -0.495 OA
ENDBRANCH   9  16
ENDBRANCH   2  12
ENDBRANCH   1   7
BRANCH   1  21
ATOM     17  C   UNL     1      -1.272  -0.251   2.056  0.00  0.00    -0.075 C 
ATOM     18  C   UNL     1      -0.963   0.039   3.537  0.00  0.00    -0.020 C 
ATOM     19  C   UNL     1       0.577  -0.032   3.650  0.00  0.00    -0.012 C 
ATOM     20  C   UNL     1       1.043   0.214   2.192  0.00  0.00    -0.031 C 
ATOM     21  N   UNL     1       0.024  -0.497   1.412  0.00  0.00    +0.397 N 
ATOM     22  H   UNL     1       0.226  -1.504   1.413  0.00  0.00    -0.078 HD
BRANCH  20  23
ATOM     23  C   UNL     1       2.410  -0.377   1.964  0.00  0.00    -0.016 A 
ATOM     24  C   UNL     1       2.535  -1.655   1.456  0.00  0.00    +0.051 A 
ATOM     25  C   UNL     1       3.794  -2.197   1.243  0.00  0.00    +0.121 A 
ATOM     26  C   UNL     1       4.928  -1.458   1.549  0.00  0.00    +0.049 A 
ATOM     27  C   UNL     1       4.803  -0.182   2.061  0.00  0.00    +0.049 A 
ATOM     28  C   UNL     1       3.544   0.362   2.270  0.00  0.00    +0.122 A 
BRANCH  28  29
ATOM     29  O   UNL     1       3.421   1.618   2.775  0.00  0.00    -0.495 OA
ATOM     30  C   UNL     1       4.631   2.321   3.067  0.00  0.00    +0.277 C 
ENDBRANCH  28  29
BRANCH  25  31
ATOM     31  O   UNL     1       3.916  -3.454   0.739  0.00  0.00    -0.495 OA
ATOM     32  C   UNL     1       5.243  -3.950   0.549  0.00  0.00    +0.277 C 
ENDBRANCH  25  31
ENDBRANCH  20  23
ENDBRANCH   1  21
TORSDOF 7
