REMARK  Name = ZINC63527226
REMARK  5 active torsions:
REMARK  status: ('A' for Active; 'I' for Inactive)
REMARK    1  A    between atoms: C_10  and  S_12
REMARK    2  A    between atoms: S_12  and  C_13
REMARK    3  A    between atoms: C_13  and  C_14
REMARK    4  A    between atoms: N_16  and  C_17
REMARK    5  A    between atoms: C_19  and  C_28
REMARK                            x       y       z     vdW  Elec       q    Type
REMARK                         _______ _______ _______ _____ _____    ______ ____
ROOT
ATOM      1  C   UNL     1       5.618  -1.221   5.755  0.00  0.00    +0.224 C 
ATOM      2  O   UNL     1       5.606  -2.360   6.170  0.00  0.00    -0.275 OA
ATOM      3  N   UNL     1       6.503  -0.332   6.250  0.00  0.00    -0.302 N 
ATOM      4  H   UNL     1       6.512   0.579   5.917  0.00  0.00    +0.150 HD
ENDROOT
BRANCH   3   5
ATOM      5  C   UNL     1       7.449  -0.743   7.289  0.00  0.00    +0.151 C 
ATOM      6  C   UNL     1       8.853  -0.136   7.051  0.00  0.00    +0.132 C 
ATOM      7  C   UNL     1       9.512   0.264   8.347  0.00  0.00    -0.046 C 
ATOM      8  C   UNL     1       8.734   0.421   9.411  0.00  0.00    -0.013 C 
ATOM      9  S   UNL     1       7.068   0.056   8.905  0.00  0.00    -0.106 S 
ATOM     10  C   UNL     1       9.162   0.829  10.793  0.00  0.00    +0.042 C 
ATOM     11  C   UNL     1      10.683   0.666  10.906  0.00  0.00    +0.005 C 
ATOM     12  C   UNL     1      11.334   1.314   9.680  0.00  0.00    +0.005 C 
ATOM     13  C   UNL     1      11.021   0.482   8.437  0.00  0.00    +0.032 C 
BRANCH   6  14
ATOM     14  C   UNL     1       8.720   1.081   6.172  0.00  0.00    +0.220 C 
ATOM     15  O   UNL     1       9.062   2.168   6.587  0.00  0.00    -0.275 OA
ATOM     16  N   UNL     1       8.222   0.961   4.926  0.00  0.00    -0.329 N 
ATOM     17  H   UNL     1       7.949   0.091   4.594  0.00  0.00    +0.145 HD
ATOM     18  H   UNL     1       8.137   1.744   4.360  0.00  0.00    +0.145 HD
ENDBRANCH   6  14
ENDBRANCH   3   5
BRANCH   1  19
ATOM     19  C   UNL     1       4.644  -0.799   4.685  0.00  0.00    +0.173 C 
BRANCH  19  20
ATOM     20  S   UNL     1       3.596  -2.208   4.231  0.00  0.00    -0.078 S 
BRANCH  20  30
ATOM     21  C   UNL     1      -0.019   1.524   0.010  0.00  0.00    +0.005 C 
ATOM     22  C   UNL     1       1.430   2.025  -0.001  0.00  0.00    +0.006 C 
ATOM     23  C   UNL     1       2.066   1.691   1.347  0.00  0.00    +0.056 C 
ATOM     24  C   UNL     1       1.857   0.238   1.686  0.00  0.00    +0.052 A 
ATOM     25  C   UNL     1       0.913  -0.527   1.079  0.00  0.00    +0.038 A 
ATOM     26  C   UNL     1       0.779  -1.878   1.464  0.00  0.00    +0.255 A 
ATOM     27  O   UNL     1      -0.062  -2.590   0.940  0.00  0.00    -0.267 OA
ATOM     28  N   UNL     1       1.593  -2.372   2.418  0.00  0.00    -0.302 N 
ATOM     29  H   UNL     1       1.515  -3.298   2.696  0.00  0.00    +0.171 HD
ATOM     30  C   UNL     1       2.527  -1.561   2.989  0.00  0.00    +0.170 A 
ATOM     31  N   UNL     1       2.642  -0.302   2.625  0.00  0.00    -0.228 NA
ATOM     32  C   UNL     1       0.002  -0.004   0.002  0.00  0.00    +0.042 C 
ENDBRANCH  20  30
ENDBRANCH  19  20
ENDBRANCH   1  19
TORSDOF 5
