REMARK  Name = ZINC05332828
REMARK  8 active torsions:
REMARK  status: ('A' for Active; 'I' for Inactive)
REMARK    1  A    between atoms: C_1  and  C_2
REMARK    2  A    between atoms: C_2  and  O_3
REMARK    3  A    between atoms: O_3  and  C_4
REMARK    4  A    between atoms: C_4  and  C_6
REMARK    5  A    between atoms: C_10  and  N_11
REMARK    6  A    between atoms: C_12  and  C_14
REMARK    7  A    between atoms: C_14  and  N_15
REMARK    8  A    between atoms: N_15  and  C_16
REMARK                            x       y       z     vdW  Elec       q    Type
REMARK                         _______ _______ _______ _____ _____    ______ ____
ROOT
ATOM      1  N   UNL     1      -3.033  -2.524   2.498  0.00  0.00    -0.278 N 
ATOM      2  C   UNL     1      -3.808  -2.867   3.546  0.00  0.00    +0.235 C 
ATOM      3  O   UNL     1      -4.910  -3.337   3.357  0.00  0.00    -0.274 OA
ATOM      4  H   UNL     1      -2.152  -2.147   2.650  0.00  0.00    +0.155 HD
ENDROOT
BRANCH   1   9
ATOM      5  C   UNL     1      -2.842  -2.416   0.016  0.00  0.00    +0.091 A 
ATOM      6  C   UNL     1      -3.548  -2.714  -1.219  0.00  0.00    -0.021 A 
ATOM      7  C   UNL     1      -4.777  -3.242  -1.039  0.00  0.00    -0.004 A 
ATOM      8  S   UNL     1      -4.974  -3.335   0.716  0.00  0.00    -0.077 S 
ATOM      9  C   UNL     1      -3.495  -2.708   1.205  0.00  0.00    +0.086 A 
ATOM     10  C   UNL     1      -5.745  -3.651  -2.106  0.00  0.00    +0.043 C 
ATOM     11  C   UNL     1      -5.287  -3.033  -3.435  0.00  0.00    +0.005 C 
ATOM     12  C   UNL     1      -3.790  -3.300  -3.616  0.00  0.00    +0.005 C 
ATOM     13  C   UNL     1      -2.988  -2.468  -2.612  0.00  0.00    +0.037 C 
BRANCH   5  14
ATOM     14  C   UNL     1      -1.497  -1.838   0.006  0.00  0.00    +0.342 C 
ATOM     15  O   UNL     1      -0.523  -2.566  -0.007  0.00  0.00    -0.245 OA
BRANCH  14  16
ATOM     16  O   UNL     1      -1.339  -0.499   0.012  0.00  0.00    -0.461 OA
BRANCH  16  18
ATOM     17  C   UNL     1      -0.019   1.526   0.010  0.00  0.00    +0.048 C 
ATOM     18  C   UNL     1       0.002  -0.004   0.002  0.00  0.00    +0.229 C 
ENDBRANCH  16  18
ENDBRANCH  14  16
ENDBRANCH   5  14
ENDBRANCH   1   9
BRANCH   2  19
ATOM     19  C   UNL     1      -3.306  -2.666   4.953  0.00  0.00    +0.198 C 
BRANCH  19  20
ATOM     20  N   UNL     1      -4.327  -3.113   5.904  0.00  0.00    -0.335 N 
ATOM     21  H   UNL     1      -5.168  -3.471   5.580  0.00  0.00    +0.147 HD
BRANCH  20  22
ATOM     22  C   UNL     1      -4.087  -3.025   7.280  0.00  0.00    +0.031 A 
ATOM     23  C   UNL     1      -2.885  -2.508   7.744  0.00  0.00    +0.027 A 
ATOM     24  C   UNL     1      -2.648  -2.421   9.102  0.00  0.00    +0.051 A 
ATOM     25  C   UNL     1      -3.609  -2.849  10.006  0.00  0.00    +0.162 A 
ATOM     26  C   UNL     1      -4.814  -3.365   9.545  0.00  0.00    +0.164 A 
ATOM     27  C   UNL     1      -5.053  -3.449   8.181  0.00  0.00    +0.072 A 
ATOM     28  O   UNL     1      -5.772  -3.783  10.417  0.00  0.00    -0.485 OA
ATOM     29  C   UNL     1      -5.354  -4.026  11.764  0.00  0.00    +0.270 C 
ATOM     30  C   UNL     1      -4.484  -2.846  12.218  0.00  0.00    +0.270 C 
ATOM     31  O   UNL     1      -3.355  -2.760  11.342  0.00  0.00    -0.485 OA
ENDBRANCH  20  22
ENDBRANCH  19  20
ENDBRANCH   2  19
TORSDOF 7
