REMARK  Name = ZINC40483344
REMARK  4 active torsions:
REMARK  status: ('A' for Active; 'I' for Inactive)
REMARK    1  A    between atoms: C_3  and  N_19
REMARK    2  A    between atoms: C_6  and  C_7
REMARK    3  A    between atoms: N_9  and  C_10
REMARK    4  A    between atoms: C_13  and  C_16
REMARK                            x       y       z     vdW  Elec       q    Type
REMARK                         _______ _______ _______ _____ _____    ______ ____
ROOT
ATOM      1  C   UNL     1       0.707  -0.490  -1.238  0.00  0.00    +0.216 C 
ATOM      2  O   UNL     1       1.150   0.308  -2.036  0.00  0.00    -0.276 OA
ATOM      3  N   UNL     1       0.847  -1.812  -1.460  0.00  0.00    -0.312 N 
ATOM      4  H   UNL     1       0.493  -2.451  -0.821  0.00  0.00    +0.149 HD
ENDROOT
BRANCH   1  10
ATOM      5  C   UNL     1      -0.019   1.526   0.010  0.00  0.00    +0.011 C 
ATOM      6  C   UNL     1       1.417   2.055  -0.000  0.00  0.00    -0.016 C 
ATOM      7  C   UNL     1       2.157   1.548   1.239  0.00  0.00    -0.075 C 
ATOM      8  C   UNL     1       2.178   0.019   1.231  0.00  0.00    -0.016 C 
ATOM      9  C   UNL     1       0.742  -0.511   1.242  0.00  0.00    +0.011 C 
ATOM     10  C   UNL     1       0.002  -0.004   0.002  0.00  0.00    +0.075 C 
BRANCH   7  11
ATOM     11  N   UNL     1       3.535   2.057   1.229  0.00  0.00    +0.380 N 
ATOM     12  H   UNL     1       3.521   3.066   1.234  0.00  0.00    -0.090 HD
ATOM     13  H   UNL     1       4.023   1.723   2.046  0.00  0.00    -0.090 HD
ATOM     14  H   UNL     1       4.007   1.732   0.399  0.00  0.00    -0.090 HD
ENDBRANCH   7  11
ENDBRANCH   1  10
BRANCH   3  15
ATOM     15  C   UNL     1       1.532  -2.285  -2.665  0.00  0.00    +0.073 C 
ATOM     16  C   UNL     1       3.041  -2.317  -2.414  0.00  0.00    +0.023 C 
ATOM     17  C   UNL     1       3.757  -2.810  -3.672  0.00  0.00    +0.016 C 
ATOM     18  C   UNL     1       3.268  -4.218  -4.019  0.00  0.00    +0.102 C 
ATOM     19  C   UNL     1       1.759  -4.186  -4.270  0.00  0.00    +0.016 C 
ATOM     20  C   UNL     1       1.043  -3.692  -3.012  0.00  0.00    +0.023 C 
BRANCH  18  21
ATOM     21  C   UNL     1       3.973  -4.704  -5.259  0.00  0.00    +0.359 C 
ATOM     22  O   UNL     1       4.342  -5.863  -5.335  0.00  0.00    -0.246 OA
ATOM     23  O   UNL     1       4.175  -3.938  -6.186  0.00  0.00    -0.246 OA
ENDBRANCH  18  21
ENDBRANCH   3  15
TORSDOF 4
