REMARK  Name = ZINC03324792
REMARK  11 active torsions:
REMARK  status: ('A' for Active; 'I' for Inactive)
REMARK    1  A    between atoms: C_1  and  C_2
REMARK    2  A    between atoms: C_3  and  C_17
REMARK    3  A    between atoms: C_4  and  C_16
REMARK    4  A    between atoms: N_5  and  C_7
REMARK    5  A    between atoms: C_7  and  C_8
REMARK    6  A    between atoms: C_18  and  C_19
REMARK    7  A    between atoms: C_19  and  O_21
REMARK    8  A    between atoms: O_21  and  C_22
REMARK    9  A    between atoms: C_22  and  C_23
REMARK   10  A    between atoms: N_25  and  N_26
REMARK   11  A    between atoms: C_27  and  C_29
REMARK                            x       y       z     vdW  Elec       q    Type
REMARK                         _______ _______ _______ _____ _____    ______ ____
ROOT
ATOM      1  C   UNL     1      -0.013   1.076   0.008  0.00  0.00    +0.018 C 
ATOM      2  C   UNL     1       1.149   1.768   0.001  0.00  0.00    +0.092 C 
ENDROOT
BRANCH   1   5
ATOM      3  C   UNL     1      -0.819   3.405   2.006  0.00  0.00    +0.068 C 
ATOM      4  C   UNL     1      -1.669   2.833   0.901  0.00  0.00    +0.067 A 
ATOM      5  C   UNL     1      -1.295   1.793   0.018  0.00  0.00    +0.018 A 
ATOM      6  C   UNL     1      -2.365   1.575  -0.831  0.00  0.00    +0.044 A 
ATOM      7  N   UNL     1      -3.334   2.439  -0.485  0.00  0.00    -0.263 N 
ATOM      8  N   UNL     1      -2.878   3.212   0.589  0.00  0.00    -0.175 NA
ATOM      9  C   UNL     1      -2.432   0.555  -1.939  0.00  0.00    +0.066 C 
BRANCH   7  10
ATOM     10  C   UNL     1      -4.647   2.553  -1.124  0.00  0.00    +0.181 C 
BRANCH  10  11
ATOM     11  C   UNL     1      -5.624   1.638  -0.432  0.00  0.00    +0.010 A 
ATOM     12  C   UNL     1      -5.785   0.337  -0.874  0.00  0.00    +0.047 A 
ATOM     13  C   UNL     1      -6.678  -0.504  -0.234  0.00  0.00    +0.020 A 
ATOM     14  C   UNL     1      -7.417  -0.042   0.839  0.00  0.00    +0.003 A 
ATOM     15  C   UNL     1      -7.260   1.259   1.277  0.00  0.00    +0.020 A 
ATOM     16  C   UNL     1      -6.364   2.100   0.642  0.00  0.00    +0.047 A 
ATOM     17 CL   UNL     1      -6.167   3.735   1.193  0.00  0.00    -0.083 Cl
ATOM     18 CL   UNL     1      -4.862  -0.241  -2.225  0.00  0.00    -0.083 Cl
ENDBRANCH  10  11
ENDBRANCH   7  10
ENDBRANCH   1   5
BRANCH   2  19
ATOM     19  C   UNL     1       2.384   1.076  -0.015  0.00  0.00    +0.332 C 
ATOM     20  O   UNL     1       2.401  -0.140  -0.022  0.00  0.00    -0.246 OA
BRANCH  19  21
ATOM     21  O   UNL     1       3.544   1.767  -0.022  0.00  0.00    -0.452 OA
BRANCH  21  22
ATOM     22  C   UNL     1       4.753   1.005  -0.038  0.00  0.00    +0.329 C 
BRANCH  22  23
ATOM     23  C   UNL     1       5.935   1.939  -0.044  0.00  0.00    +0.267 C 
ATOM     24  O   UNL     1       5.760   3.139  -0.036  0.00  0.00    -0.271 OA
ATOM     25  N   UNL     1       7.187   1.441  -0.059  0.00  0.00    -0.231 N 
ATOM     26  H   UNL     1       7.327   0.481  -0.065  0.00  0.00    +0.173 HD
BRANCH  25  27
ATOM     27  N   UNL     1       8.287   2.309  -0.065  0.00  0.00    -0.230 N 
ATOM     28  C   UNL     1       9.539   1.811  -0.079  0.00  0.00    +0.267 C 
ATOM     29  O   UNL     1       9.715   0.607  -0.087  0.00  0.00    -0.268 OA
ATOM     30  H   UNL     1       8.146   3.269  -0.058  0.00  0.00    +0.173 HD
BRANCH  28  31
ATOM     31  C   UNL     1      10.689   2.720  -0.085  0.00  0.00    +0.075 A 
ATOM     32  C   UNL     1      12.042   2.417  -0.094  0.00  0.00    +0.021 A 
ATOM     33  C   UNL     1      12.919   3.473  -0.102  0.00  0.00    +0.008 A 
ATOM     34  C   UNL     1      12.430   4.741  -0.090  0.00  0.00    +0.046 A 
ATOM     35  S   UNL     1      10.713   4.504  -0.075  0.00  0.00    -0.092 S 
ENDBRANCH  28  31
ENDBRANCH  25  27
ENDBRANCH  22  23
ENDBRANCH  21  22
ENDBRANCH  19  21
ENDBRANCH   2  19
TORSDOF 9
