REMARK  Name = ZINC13097322
REMARK  8 active torsions:
REMARK  status: ('A' for Active; 'I' for Inactive)
REMARK    1  A    between atoms: C_4  and  C_7
REMARK    2  A    between atoms: N_9  and  N_10
REMARK    3  A    between atoms: C_11  and  C_13
REMARK    4  A    between atoms: C_13  and  O_14
REMARK    5  A    between atoms: O_14  and  C_15
REMARK    6  A    between atoms: C_15  and  C_17
REMARK    7  A    between atoms: C_20  and  S_23
REMARK    8  A    between atoms: S_23  and  N_26
REMARK                            x       y       z     vdW  Elec       q    Type
REMARK                         _______ _______ _______ _____ _____    ______ ____
ROOT
ATOM      1  C   UNL     1      -5.152  -6.715   0.015  0.00  0.00    +0.059 A 
ATOM      2  C   UNL     1      -6.273  -5.882   0.036  0.00  0.00    +0.017 A 
ATOM      3  C   UNL     1      -7.537  -6.433   0.039  0.00  0.00    +0.029 A 
ATOM      4  C   UNL     1      -7.697  -7.808   0.034  0.00  0.00    +0.106 A 
ATOM      5  C   UNL     1      -6.590  -8.639   0.018  0.00  0.00    +0.029 A 
ATOM      6  C   UNL     1      -5.320  -8.101   0.009  0.00  0.00    +0.017 A 
ENDROOT
BRANCH   4   7
ATOM      7  S   UNL     1      -9.315  -8.503   0.046  0.00  0.00    +0.061 S 
ATOM      8  O   UNL     1     -10.185  -7.517  -0.492  0.00  0.00    -0.153 OA
ATOM      9  O   UNL     1      -9.202  -9.805  -0.513  0.00  0.00    -0.153 OA
BRANCH   7  10
ATOM     10  N   UNL     1      -9.750  -8.705   1.631  0.00  0.00    -0.172 NA
ATOM     11  C   UNL     1      -9.460  -9.956   2.352  0.00  0.00    +0.114 C 
ATOM     12  C   UNL     1      -8.478  -9.624   3.481  0.00  0.00    +0.052 C 
ATOM     13  C   UNL     1      -8.937  -8.414   4.251  0.00  0.00    -0.042 A 
ATOM     14  C   UNL     1      -8.418  -8.227   5.527  0.00  0.00    +0.004 A 
ATOM     15  C   UNL     1      -8.786  -7.133   6.281  0.00  0.00    +0.000 A 
ATOM     16  C   UNL     1      -9.680  -6.212   5.766  0.00  0.00    +0.000 A 
ATOM     17  C   UNL     1     -10.200  -6.397   4.501  0.00  0.00    +0.005 A 
ATOM     18  C   UNL     1      -9.832  -7.500   3.742  0.00  0.00    -0.028 A 
ATOM     19  C   UNL     1     -10.444  -7.646   2.372  0.00  0.00    +0.144 C 
ENDBRANCH   7  10
ENDBRANCH   4   7
BRANCH   1  20
ATOM     20  C   UNL     1      -3.795  -6.131   0.005  0.00  0.00    +0.340 C 
ATOM     21  O   UNL     1      -2.822  -6.858  -0.008  0.00  0.00    -0.245 OA
BRANCH  20  22
ATOM     22  O   UNL     1      -3.636  -4.794   0.011  0.00  0.00    -0.452 OA
BRANCH  22  23
ATOM     23  C   UNL     1      -2.274  -4.291   0.001  0.00  0.00    +0.329 C 
BRANCH  23  25
ATOM     24  N   UNL     1      -1.137  -2.095   0.002  0.00  0.00    -0.231 N 
ATOM     25  C   UNL     1      -2.295  -2.784   0.009  0.00  0.00    +0.267 C 
ATOM     26  O   UNL     1      -3.353  -2.192   0.022  0.00  0.00    -0.271 OA
ATOM     27  H   UNL     1      -0.290  -2.568  -0.009  0.00  0.00    +0.173 HD
BRANCH  24  30
ATOM     28  C   UNL     1       0.002  -0.004   0.002  0.00  0.00    +0.260 C 
ATOM     29  O   UNL     1       1.063  -0.597  -0.011  0.00  0.00    -0.269 OA
ATOM     30  N   UNL     1      -1.156  -0.694   0.009  0.00  0.00    -0.230 N 
ATOM     31  H   UNL     1      -2.002  -0.220   0.020  0.00  0.00    +0.173 HD
BRANCH  28  35
ATOM     32  C   UNL     1      -0.056   4.243   0.025  0.00  0.00    +0.000 A 
ATOM     33  C   UNL     1       1.154   3.571   0.010  0.00  0.00    +0.001 A 
ATOM     34  C   UNL     1       1.179   2.192   0.003  0.00  0.00    +0.013 A 
ATOM     35  C   UNL     1      -0.018   1.474   0.010  0.00  0.00    +0.038 A 
ATOM     36  C   UNL     1      -1.234   2.159   0.020  0.00  0.00    +0.013 A 
ATOM     37  C   UNL     1      -1.246   3.538   0.033  0.00  0.00    +0.001 A 
ENDBRANCH  28  35
ENDBRANCH  24  30
ENDBRANCH  23  25
ENDBRANCH  22  23
ENDBRANCH  20  22
ENDBRANCH   1  20
TORSDOF 8
