REMARK  Name = ZINC54871299
REMARK  4 active torsions:
REMARK  status: ('A' for Active; 'I' for Inactive)
REMARK    1  A    between atoms: C_9  and  C_12
REMARK    2  A    between atoms: N_14  and  N_15
REMARK    3  A    between atoms: C_16  and  C_18
REMARK    4  A    between atoms: C_21  and  C_24
REMARK                            x       y       z     vdW  Elec       q    Type
REMARK                         _______ _______ _______ _____ _____    ______ ____
ROOT
ATOM      1  N   UNL     1       6.355  -4.522  -0.120  0.00  0.00    -0.231 N 
ATOM      2  C   UNL     1       6.599  -5.807   0.203  0.00  0.00    +0.273 C 
ATOM      3  O   UNL     1       5.770  -6.448   0.813  0.00  0.00    -0.270 OA
ATOM      4  H   UNL     1       7.018  -4.010  -0.608  0.00  0.00    +0.173 HD
ENDROOT
BRANCH   2   5
ATOM      5  C   UNL     1       7.903  -6.449  -0.196  0.00  0.00    +0.297 C 
ATOM      6  C   UNL     1       9.087  -5.829   0.583  0.00  0.00    +0.117 C 
ATOM      7  C   UNL     1       9.230  -6.767   1.767  0.00  0.00    +0.098 C 
ATOM      8  N   UNL     1       8.573  -7.852   1.505  0.00  0.00    -0.088 NA
ATOM      9  O   UNL     1       7.954  -7.825   0.234  0.00  0.00    -0.380 OA
BRANCH   7  10
ATOM     10  C   UNL     1       9.983  -6.492   2.995  0.00  0.00    +0.038 A 
ATOM     11  C   UNL     1      10.162  -7.297   4.107  0.00  0.00    +0.019 A 
ATOM     12  C   UNL     1      10.919  -6.815   5.148  0.00  0.00    +0.028 A 
ATOM     13  C   UNL     1      11.465  -5.572   5.054  0.00  0.00    +0.079 A 
ATOM     14  S   UNL     1      10.914  -5.036   3.442  0.00  0.00    -0.075 S 
ATOM     15 CL   UNL     1      12.451  -4.726   6.205  0.00  0.00    -0.076 Cl
ENDBRANCH   7  10
ENDBRANCH   2   5
BRANCH   1  18
ATOM     16  C   UNL     1       4.898  -2.639  -0.071  0.00  0.00    +0.273 C 
ATOM     17  O   UNL     1       5.727  -1.999  -0.682  0.00  0.00    -0.270 OA
ATOM     18  N   UNL     1       5.143  -3.925   0.251  0.00  0.00    -0.231 N 
ATOM     19  H   UNL     1       4.479  -4.437   0.740  0.00  0.00    +0.173 HD
BRANCH  16  28
ATOM     20  C   UNL     1      -0.017   1.378   0.010  0.00  0.00    +0.004 A 
ATOM     21  C   UNL     1       1.170   2.088   0.002  0.00  0.00    +0.004 A 
ATOM     22  C   UNL     1       2.378   1.418  -0.014  0.00  0.00    +0.049 A 
ATOM     23  C   UNL     1       2.404   0.031  -0.023  0.00  0.00    +0.163 A 
ATOM     24  C   UNL     1       1.212  -0.683  -0.013  0.00  0.00    +0.162 A 
ATOM     25  C   UNL     1       0.002  -0.004   0.002  0.00  0.00    +0.049 A 
ATOM     26  O   UNL     1       1.214  -2.044  -0.013  0.00  0.00    -0.484 OA
ATOM     27  C   UNL     1       2.434  -2.685  -0.404  0.00  0.00    +0.283 C 
ATOM     28  C   UNL     1       3.594  -1.997   0.328  0.00  0.00    +0.297 C 
ATOM     29  O   UNL     1       3.602  -0.615  -0.043  0.00  0.00    -0.472 OA
ENDBRANCH  16  28
ENDBRANCH   1  18
TORSDOF 4
