REMARK  Name = ZINC14070749
REMARK  8 active torsions:
REMARK  status: ('A' for Active; 'I' for Inactive)
REMARK    1  A    between atoms: C_1  and  C_2
REMARK    2  A    between atoms: C_5  and  C_34
REMARK    3  A    between atoms: C_9  and  C_10
REMARK    4  A    between atoms: C_9  and  N_64
REMARK    5  A    between atoms: N_14  and  C_15
REMARK    6  A    between atoms: C_15  and  C_16
REMARK    7  A    between atoms: N_28  and  C_33
REMARK    8  A    between atoms: N_31  and  C_32
REMARK                            x       y       z     vdW  Elec       q    Type
REMARK                         _______ _______ _______ _____ _____    ______ ____
ROOT
ATOM      1  C   UNL     1       0.160   3.022  -0.174  0.00  0.00    +0.096 A 
ATOM      2  N   UNL     1       0.218   1.730   0.032  0.00  0.00    -0.216 NA
ATOM      3  C   UNL     1       1.470   1.374   0.326  0.00  0.00    +0.168 A 
ATOM      4  C   UNL     1       2.245   2.527   0.293  0.00  0.00    +0.152 A 
ATOM      5  N   UNL     1       1.387   3.560  -0.027  0.00  0.00    -0.319 N 
ATOM      6  C   UNL     1       3.627   2.435   0.566  0.00  0.00    +0.282 A 
ATOM      7  O   UNL     1       4.327   3.432   0.543  0.00  0.00    -0.265 OA
ATOM      8  N   UNL     1       4.163   1.231   0.852  0.00  0.00    -0.262 N 
ATOM      9  C   UNL     1       3.402   0.123   0.881  0.00  0.00    +0.333 A 
ATOM     10  O   UNL     1       3.920  -0.945   1.143  0.00  0.00    -0.246 OA
ATOM     11  N   UNL     1       2.081   0.167   0.627  0.00  0.00    -0.280 N 
ATOM     12  C   UNL     1       1.287  -1.063   0.669  0.00  0.00    +0.155 C 
ATOM     13  C   UNL     1       5.597   1.128   1.135  0.00  0.00    +0.157 C 
ENDROOT
BRANCH   1  14
ATOM     14  C   UNL     1      -1.087   3.789  -0.526  0.00  0.00    -0.003 C 
BRANCH  14  22
ATOM     15  C   UNL     1      -1.079   1.188  -4.701  0.00  0.00    +0.005 C 
ATOM     16  C   UNL     1      -1.157   2.591  -4.095  0.00  0.00    -0.031 C 
ATOM     17  C   UNL     1      -2.454   3.270  -4.544  0.00  0.00    +0.003 C 
ATOM     18  C   UNL     1      -2.553   4.650  -3.887  0.00  0.00    -0.031 C 
ATOM     19  C   UNL     1      -2.497   4.489  -2.366  0.00  0.00    -0.075 C 
ATOM     20  C   UNL     1      -1.143   2.490  -2.568  0.00  0.00    -0.075 C 
ATOM     21  C   UNL     1      -3.874   5.311  -4.283  0.00  0.00    +0.005 C 
ATOM     22  N   UNL     1      -1.215   3.852  -1.997  0.00  0.00    +0.385 N 
ATOM     23  H   UNL     1      -0.443   4.413  -2.375  0.00  0.00    -0.081 HD
ENDBRANCH  14  22
ENDBRANCH   1  14
BRANCH   5  24
ATOM     24  C   UNL     1       1.742   4.973  -0.179  0.00  0.00    +0.159 C 
BRANCH  24  25
ATOM     25  C   UNL     1       2.056   5.259  -1.625  0.00  0.00    -0.020 A 
ATOM     26  C   UNL     1       3.179   4.745  -2.197  0.00  0.00    +0.006 A 
ATOM     27  C   UNL     1       3.485   4.998  -3.532  0.00  0.00    +0.001 A 
ATOM     28  C   UNL     1       2.670   5.769  -4.304  0.00  0.00    +0.008 A 
ATOM     29  C   UNL     1       1.502   6.317  -3.749  0.00  0.00    -0.018 A 
ATOM     30  C   UNL     1       1.187   6.055  -2.392  0.00  0.00    -0.013 A 
ATOM     31  C   UNL     1       0.021   6.607  -1.835  0.00  0.00    +0.009 A 
ATOM     32  C   UNL     1      -0.793   7.378  -2.607  0.00  0.00    +0.001 A 
ATOM     33  C   UNL     1      -0.487   7.632  -3.942  0.00  0.00    +0.001 A 
ATOM     34  C   UNL     1       0.636   7.117  -4.514  0.00  0.00    +0.008 A 
ENDBRANCH  24  25
ENDBRANCH   5  24
TORSDOF 4
