REMARK  Name = ZINC12021111
REMARK  6 active torsions:
REMARK  status: ('A' for Active; 'I' for Inactive)
REMARK    1  A    between atoms: C_1  and  C_2
REMARK    2  A    between atoms: C_2  and  C_3
REMARK    3  A    between atoms: C_10  and  C_11
REMARK    4  A    between atoms: C_10  and  N_63
REMARK    5  A    between atoms: C_21  and  C_22
REMARK    6  A    between atoms: C_21  and  N_65
REMARK                            x       y       z     vdW  Elec       q    Type
REMARK                         _______ _______ _______ _____ _____    ______ ____
ROOT
ATOM      1  C   UNL     1      -1.014   2.862  -3.230  0.00  0.00    -0.064 A 
ATOM      2  C   UNL     1      -2.188   2.363  -3.766  0.00  0.00    +0.005 A 
ATOM      3  C   UNL     1      -2.890   1.376  -3.103  0.00  0.00    +0.046 A 
ATOM      4  C   UNL     1      -2.414   0.887  -1.895  0.00  0.00    +0.122 A 
ATOM      5  C   UNL     1      -1.233   1.377  -1.371  0.00  0.00    -0.022 A 
ATOM      6  C   UNL     1      -0.534   2.368  -2.030  0.00  0.00    +0.007 A 
ATOM      7  C   UNL     1      -0.708   0.814  -0.065  0.00  0.00    -0.039 C 
ATOM      8  C   UNL     1      -2.756   0.326   1.159  0.00  0.00    -0.036 C 
ATOM      9  C   UNL     1      -3.732   0.410   0.005  0.00  0.00    +0.210 C 
ATOM     10  O   UNL     1      -3.124  -0.050  -1.208  0.00  0.00    -0.494 OA
ATOM     11  N   UNL     1      -1.614   1.258   1.019  0.00  0.00    +0.388 N 
ATOM     12  H   UNL     1      -1.976   2.190   0.784  0.00  0.00    -0.081 HD
ENDROOT
BRANCH   1  13
ATOM     13  C   UNL     1      -0.258   3.946  -3.954  0.00  0.00    -0.042 C 
BRANCH  13  21
ATOM     14  C   UNL     1       1.547   2.382  -4.354  0.00  0.00    +0.019 C 
ATOM     15  C   UNL     1       2.322   1.664  -5.422  0.00  0.00    +0.199 C 
ATOM     16  O   UNL     1       3.338   1.081  -5.109  0.00  0.00    -0.278 OA
ATOM     17  N   UNL     1       1.939   1.642  -6.703  0.00  0.00    -0.318 N 
ATOM     18  C   UNL     1       0.753   2.342  -7.189  0.00  0.00    +0.085 C 
ATOM     19  C   UNL     1      -0.173   2.679  -6.018  0.00  0.00    -0.058 C 
ATOM     20  H   UNL     1       2.473   1.139  -7.338  0.00  0.00    +0.149 HD
ATOM     21  N   UNL     1       0.631   3.354  -4.980  0.00  0.00    +0.391 N 
ATOM     22  H   UNL     1       1.183   4.103  -5.416  0.00  0.00    -0.080 HD
BRANCH  14  24
ATOM     23  C   UNL     1       3.269   4.189  -4.248  0.00  0.00    +0.002 C 
ATOM     24  C   UNL     1       2.517   3.131  -3.438  0.00  0.00    -0.010 C 
ENDBRANCH  14  24
ENDBRANCH  13  21
ENDBRANCH   1  13
BRANCH  11  25
ATOM     25  C   UNL     1      -0.874   1.341   2.290  0.00  0.00    -0.023 C 
BRANCH  25  26
ATOM     26  C   UNL     1      -1.761   1.989   3.322  0.00  0.00    +0.009 A 
ATOM     27  C   UNL     1      -2.519   1.343   4.231  0.00  0.00    +0.021 A 
ATOM     28  C   UNL     1      -3.187   2.320   4.997  0.00  0.00    +0.020 A 
ATOM     29  C   UNL     1      -2.813   3.527   4.527  0.00  0.00    +0.093 A 
ATOM     30  N   UNL     1      -1.933   3.332   3.501  0.00  0.00    -0.307 N 
ATOM     31  C   UNL     1      -1.313   4.340   2.756  0.00  0.00    +0.138 A 
ATOM     32  C   UNL     1      -1.583   5.673   3.043  0.00  0.00    +0.048 A 
ATOM     33  C   UNL     1      -0.959   6.661   2.301  0.00  0.00    +0.025 A 
ATOM     34  C   UNL     1      -0.091   6.279   1.287  0.00  0.00    +0.059 A 
ATOM     35  C   UNL     1       0.127   4.934   1.054  0.00  0.00    +0.133 A 
ATOM     36  N   UNL     1      -0.479   4.016   1.782  0.00  0.00    -0.236 NA
ATOM     37 CL   UNL     1       0.713   7.478   0.322  0.00  0.00    -0.082 Cl
ENDBRANCH  25  26
ENDBRANCH  11  25
TORSDOF 5
