REMARK  Name = ZINC33681949
REMARK  16 active torsions:
REMARK  status: ('A' for Active; 'I' for Inactive)
REMARK    1  A    between atoms: C_1  and  C_2
REMARK    2  A    between atoms: C_2  and  C_3
REMARK    3  A    between atoms: C_3  and  C_4
REMARK    4  A    between atoms: C_4  and  N_5
REMARK    5  A    between atoms: N_5  and  C_6
REMARK    6  A    between atoms: C_6  and  C_7
REMARK    7  A    between atoms: N_9  and  C_10
REMARK    8  A    between atoms: C_12  and  C_23
REMARK    9  A    between atoms: N_14  and  C_15
REMARK   10  A    between atoms: C_23  and  C_24
REMARK   11  A    between atoms: C_23  and  C_25
REMARK   12  A    between atoms: C_23  and  C_26
REMARK   13  A    between atoms: N_29  and  C_30
REMARK   14  A    between atoms: C_30  and  C_31
REMARK   15  A    between atoms: C_30  and  C_32
REMARK   16  A    between atoms: C_30  and  C_33
REMARK                            x       y       z     vdW  Elec       q    Type
REMARK                         _______ _______ _______ _____ _____    ______ ____
ROOT
ATOM      1  C   UNL     1       6.098   1.182  -2.013  0.00  0.00    +0.236 C 
ATOM      2  O   UNL     1       7.030   0.418  -1.877  0.00  0.00    -0.274 OA
ATOM      3  N   UNL     1       4.912   0.909  -1.432  0.00  0.00    -0.269 N 
ATOM      4  H   UNL     1       4.067   1.602  -1.556  0.00  0.00    +0.156 HD
ENDROOT
BRANCH   3   5
ATOM      5  C   UNL     1       4.758  -0.252  -0.675  0.00  0.00    +0.129 A 
ATOM      6  C   UNL     1       5.713  -1.192  -0.439  0.00  0.00    +0.069 A 
ATOM      7  C   UNL     1       5.146  -2.187   0.363  0.00  0.00    +0.071 A 
ATOM      8  N   UNL     1       3.902  -1.863   0.610  0.00  0.00    -0.169 NA
ATOM      9  N   UNL     1       3.625  -0.651  -0.035  0.00  0.00    -0.218 N 
BRANCH   9  10
ATOM     10  C   UNL     1       2.400   0.032  -0.021  0.00  0.00    +0.069 A 
ATOM     11  C   UNL     1       2.378   1.420  -0.013  0.00  0.00    +0.029 A 
ATOM     12  C   UNL     1       1.171   2.091   0.002  0.00  0.00    +0.023 A 
ATOM     13  C   UNL     1      -0.017   1.381   0.010  0.00  0.00    +0.059 A 
ATOM     14  C   UNL     1       0.002  -0.004   0.002  0.00  0.00    +0.061 A 
ATOM     15  C   UNL     1       1.208  -0.679  -0.013  0.00  0.00    +0.049 A 
ATOM     16 CL   UNL     1      -1.490  -0.892   0.011  0.00  0.00    -0.082 Cl
ATOM     17 CL   UNL     1      -1.532   2.227   0.021  0.00  0.00    -0.082 Cl
ENDBRANCH   9  10
BRANCH   7  18
ATOM     18  C   UNL     1       5.850  -3.421   0.866  0.00  0.00    +0.006 C 
ATOM     19  C   UNL     1       6.800  -3.039   2.003  0.00  0.00    +0.017 C 
ATOM     20  C   UNL     1       4.817  -4.424   1.381  0.00  0.00    +0.017 C 
ATOM     21  C   UNL     1       6.649  -4.052  -0.276  0.00  0.00    +0.017 C 
ENDBRANCH   7  18
ENDBRANCH   3   5
BRANCH   1  22
ATOM     22  C   UNL     1       6.265   2.436  -2.832  0.00  0.00    +0.205 C 
BRANCH  22  23
ATOM     23  N   UNL     1       7.633   2.501  -3.351  0.00  0.00    -0.277 N 
ATOM     24  C   UNL     1       8.598   3.111  -2.634  0.00  0.00    +0.303 C 
ATOM     25  O   UNL     1       8.332   3.607  -1.556  0.00  0.00    -0.253 OA
ATOM     26  N   UNL     1       9.856   3.171  -3.111  0.00  0.00    -0.294 N 
ATOM     27  H   UNL     1      10.097   2.723  -4.087  0.00  0.00    +0.151 HD
BRANCH  26  28
ATOM     28  C   UNL     1      10.905   3.834  -2.332  0.00  0.00    +0.028 C 
ATOM     29  C   UNL     1      11.055   3.133  -0.980  0.00  0.00    +0.031 C 
ATOM     30  C   UNL     1      12.229   3.762  -3.094  0.00  0.00    +0.031 C 
ATOM     31  C   UNL     1      10.524   5.299  -2.107  0.00  0.00    +0.031 C 
ENDBRANCH  26  28
BRANCH  23  32
ATOM     32  C   UNL     1       7.953   1.904  -4.650  0.00  0.00    +0.110 C 
BRANCH  32  33
ATOM     33  C   UNL     1       7.758   2.946  -5.753  0.00  0.00    +0.019 C 
BRANCH  33  35
ATOM     34  C   UNL     1       7.896   3.365  -8.212  0.00  0.00    +0.004 C 
ATOM     35  C   UNL     1       8.092   2.323  -7.109  0.00  0.00    -0.002 C 
ENDBRANCH  33  35
ENDBRANCH  32  33
ENDBRANCH  23  32
ENDBRANCH  22  23
ENDBRANCH   1  22
TORSDOF 9
