REMARK  Name = ZINC10107586
REMARK  11 active torsions:
REMARK  status: ('A' for Active; 'I' for Inactive)
REMARK    1  A    between atoms: C_1  and  C_2
REMARK    2  A    between atoms: N_9  and  C_10
REMARK    3  A    between atoms: C_13  and  O_16
REMARK    4  A    between atoms: O_16  and  C_17
REMARK    5  A    between atoms: N_18  and  C_35
REMARK    6  A    between atoms: N_21  and  C_24
REMARK    7  A    between atoms: C_24  and  C_25
REMARK    8  A    between atoms: C_25  and  C_27
REMARK    9  A    between atoms: C_25  and  C_28
REMARK   10  A    between atoms: C_28  and  N_69
REMARK   11  A    between atoms: C_31  and  C_34
REMARK                            x       y       z     vdW  Elec       q    Type
REMARK                         _______ _______ _______ _____ _____    ______ ____
ROOT
ATOM      1  C   UNL     1      -0.019   8.722 -11.028  0.00  0.00    +0.065 C 
ATOM      2  C   UNL     1      -0.605   8.791  -9.642  0.00  0.00    +0.040 A 
ATOM      3  C   UNL     1      -0.016   8.376  -8.524  0.00  0.00    +0.116 A 
ATOM      4  N   UNL     1      -0.875   8.613  -7.465  0.00  0.00    -0.277 N 
ATOM      5  C   UNL     1      -1.040   8.499  -6.093  0.00  0.00    +0.157 A 
ATOM      6  C   UNL     1      -2.301   9.020  -5.806  0.00  0.00    +0.170 A 
ATOM      7  N   UNL     1      -2.841   9.417  -6.955  0.00  0.00    -0.193 NA
ATOM      8  C   UNL     1      -2.002   9.181  -7.953  0.00  0.00    +0.223 A 
ATOM      9  N   UNL     1      -1.849   9.299  -9.311  0.00  0.00    -0.283 N 
ATOM     10  N   UNL     1      -2.734   9.032  -4.488  0.00  0.00    -0.279 N 
ATOM     11  C   UNL     1      -1.941   8.546  -3.514  0.00  0.00    +0.333 A 
ATOM     12  O   UNL     1      -2.336   8.565  -2.364  0.00  0.00    -0.246 OA
ATOM     13  N   UNL     1      -0.724   8.042  -3.782  0.00  0.00    -0.259 N 
ATOM     14  C   UNL     1      -0.247   8.008  -5.043  0.00  0.00    +0.283 A 
ATOM     15  O   UNL     1       0.861   7.552  -5.269  0.00  0.00    -0.265 OA
ATOM     16  C   UNL     1      -4.054   9.573  -4.156  0.00  0.00    +0.155 C 
ENDROOT
BRANCH   9  17
ATOM     17  C   UNL     1      -2.785   9.838 -10.205  0.00  0.00    +0.050 A 
ATOM     18  C   UNL     1      -3.131  11.180 -10.121  0.00  0.00    +0.030 A 
ATOM     19  C   UNL     1      -4.049  11.712 -11.005  0.00  0.00    +0.047 A 
ATOM     20  C   UNL     1      -4.634  10.903 -11.969  0.00  0.00    +0.120 A 
ATOM     21  C   UNL     1      -4.292   9.561 -12.049  0.00  0.00    +0.047 A 
ATOM     22  C   UNL     1      -3.370   9.029 -11.169  0.00  0.00    +0.030 A 
BRANCH  20  23
ATOM     23  O   UNL     1      -5.542  11.426 -12.835  0.00  0.00    -0.495 OA
ATOM     24  C   UNL     1      -5.846  12.815 -12.696  0.00  0.00    +0.277 C 
ENDBRANCH  20  23
ENDBRANCH   9  17
BRANCH  13  25
ATOM     25  C   UNL     1       0.099   7.526  -2.685  0.00  0.00    +0.131 C 
BRANCH  25  26
ATOM     26  C   UNL     1      -0.196   6.039  -2.482  0.00  0.00    -0.011 C 
ATOM     27  C   UNL     1      -1.643   5.864  -2.018  0.00  0.00    +0.007 C 
BRANCH  26  28
ATOM     28  C   UNL     1       0.751   5.471  -1.423  0.00  0.00    -0.074 C 
BRANCH  28  35
ATOM     29  C   UNL     1       3.071   4.975  -0.939  0.00  0.00    -0.079 C 
ATOM     30  C   UNL     1       4.510   5.245  -1.385  0.00  0.00    -0.016 C 
ATOM     31  C   UNL     1       4.723   4.662  -2.785  0.00  0.00    -0.018 C 
ATOM     32  C   UNL     1       3.708   5.284  -3.748  0.00  0.00    -0.016 C 
ATOM     33  C   UNL     1       2.292   5.013  -3.233  0.00  0.00    -0.079 C 
ATOM     34  C   UNL     1       6.141   4.981  -3.261  0.00  0.00    +0.007 C 
ATOM     35  N   UNL     1       2.144   5.620  -1.893  0.00  0.00    +0.380 N 
ATOM     36  H   UNL     1       2.371   6.620  -1.954  0.00  0.00    -0.082 HD
ENDBRANCH  28  35
ENDBRANCH  26  28
ENDBRANCH  25  26
ENDBRANCH  13  25
TORSDOF 6
