REMARK  Name = ZINC01334236
REMARK  9 active torsions:
REMARK  status: ('A' for Active; 'I' for Inactive)
REMARK    1  A    between atoms: C_1  and  C_2
REMARK    2  A    between atoms: C_5  and  C_8
REMARK    3  A    between atoms: C_8  and  N_9
REMARK    4  A    between atoms: C_14  and  C_16
REMARK    5  A    between atoms: C_23  and  C_25
REMARK    6  A    between atoms: C_28  and  C_31
REMARK    7  A    between atoms: C_31  and  C_32
REMARK    8  A    between atoms: C_31  and  C_33
REMARK    9  A    between atoms: C_31  and  C_34
REMARK                            x       y       z     vdW  Elec       q    Type
REMARK                         _______ _______ _______ _____ _____    ______ ____
ROOT
ATOM      1  N   UNL     1       1.881  -5.755  -0.185  0.00  0.00    -0.222 N 
ATOM      2  C   UNL     1       2.692  -5.717  -1.279  0.00  0.00    +0.186 A 
ATOM      3  C   UNL     1       4.002  -5.822  -0.794  0.00  0.00    +0.195 A 
ATOM      4  C   UNL     1       5.095  -5.808  -1.770  0.00  0.00    +0.281 A 
ATOM      5  N   UNL     1       4.766  -5.695  -3.078  0.00  0.00    -0.309 N 
ATOM      6  C   UNL     1       3.466  -5.599  -3.452  0.00  0.00    +0.117 A 
ATOM      7  N   UNL     1       2.483  -5.610  -2.599  0.00  0.00    -0.213 NA
ATOM      8  O   UNL     1       6.257  -5.895  -1.417  0.00  0.00    -0.265 OA
ATOM      9  N   UNL     1       3.945  -5.917   0.541  0.00  0.00    -0.122 NA
ATOM     10  N   UNL     1       2.719  -5.875   0.934  0.00  0.00    -0.063 NA
ATOM     11  H   UNL     1       5.464  -5.682  -3.751  0.00  0.00    +0.170 HD
ENDROOT
BRANCH   6  12
ATOM     12  C   UNL     1       3.146  -5.474  -4.919  0.00  0.00    +0.072 C 
ATOM     13  C   UNL     1       1.729  -5.991  -5.178  0.00  0.00    +0.014 C 
ATOM     14  C   UNL     1       1.415  -5.895  -6.673  0.00  0.00    +0.020 C 
ATOM     15  C   UNL     1       1.482  -4.428  -7.112  0.00  0.00    +0.108 C 
ATOM     16  N   UNL     1       2.793  -3.882  -6.734  0.00  0.00    -0.297 N 
ATOM     17  C   UNL     1       3.234  -4.003  -5.338  0.00  0.00    +0.119 C 
ATOM     18  C   UNL     1       3.576  -3.281  -7.652  0.00  0.00    +0.247 C 
ATOM     19  O   UNL     1       4.627  -2.772  -7.314  0.00  0.00    -0.270 OA
BRANCH  18  20
ATOM     20  C   UNL     1       3.158  -3.241  -9.069  0.00  0.00    +0.037 A 
ATOM     21  C   UNL     1       1.881  -2.793  -9.411  0.00  0.00    +0.013 A 
ATOM     22  C   UNL     1       1.497  -2.758 -10.735  0.00  0.00    +0.005 A 
ATOM     23  C   UNL     1       2.374  -3.166 -11.724  0.00  0.00    -0.042 A 
ATOM     24  C   UNL     1       3.642  -3.611 -11.392  0.00  0.00    +0.005 A 
ATOM     25  C   UNL     1       4.040  -3.645 -10.072  0.00  0.00    +0.013 A 
BRANCH  23  26
ATOM     26  C   UNL     1       1.948  -3.125 -13.169  0.00  0.00    -0.013 C 
ATOM     27  C   UNL     1       1.594  -1.688 -13.556  0.00  0.00    +0.015 C 
ATOM     28  C   UNL     1       3.093  -3.624 -14.053  0.00  0.00    +0.015 C 
ATOM     29  C   UNL     1       0.724  -4.022 -13.365  0.00  0.00    +0.015 C 
ENDBRANCH  23  26
ENDBRANCH  18  20
ENDBRANCH   6  12
BRANCH   1  30
ATOM     30  C   UNL     1       0.418  -5.678  -0.178  0.00  0.00    +0.182 C 
BRANCH  30  35
ATOM     31  C   UNL     1      -1.223  -0.151   0.202  0.00  0.00    +0.044 C 
ATOM     32  C   UNL     1      -0.795  -1.592   0.103  0.00  0.00    -0.050 A 
ATOM     33  C   UNL     1      -0.600  -2.171  -1.137  0.00  0.00    +0.004 A 
ATOM     34  C   UNL     1      -0.207  -3.494  -1.228  0.00  0.00    +0.006 A 
ATOM     35  C   UNL     1      -0.009  -4.237  -0.079  0.00  0.00    -0.026 A 
ATOM     36  C   UNL     1      -0.204  -3.657   1.161  0.00  0.00    +0.006 A 
ATOM     37  C   UNL     1      -0.593  -2.334   1.252  0.00  0.00    +0.004 A 
ENDBRANCH  30  35
ENDBRANCH   1  30
TORSDOF 5
