REMARK  Name = ZINC31630496
REMARK  6 active torsions:
REMARK  status: ('A' for Active; 'I' for Inactive)
REMARK    1  A    between atoms: C_1  and  C_2
REMARK    2  A    between atoms: C_2  and  C_23
REMARK    3  A    between atoms: N_5  and  C_9
REMARK    4  A    between atoms: C_9  and  C_10
REMARK    5  A    between atoms: N_12  and  C_13
REMARK    6  A    between atoms: C_16  and  N_20
REMARK                            x       y       z     vdW  Elec       q    Type
REMARK                         _______ _______ _______ _____ _____    ______ ____
ROOT
ATOM      1  C   UNL     1       1.302  -2.921   1.064  0.00  0.00    +0.047 C 
ATOM      2  C   UNL     1       0.035  -2.205   0.593  0.00  0.00    +0.135 C 
ATOM      3  C   UNL     1       0.017  -0.772   1.086  0.00  0.00    +0.251 C 
ATOM      4  O   UNL     1       0.015  -0.394   2.239  0.00  0.00    -0.272 OA
ATOM      5  N   UNL     1       0.003  -0.004  -0.022  0.00  0.00    -0.215 N 
ATOM      6  C   UNL     1       0.005  -0.746  -1.135  0.00  0.00    +0.310 C 
ATOM      7  O   UNL     1      -0.009  -0.280  -2.257  0.00  0.00    -0.252 OA
ATOM      8  N   UNL     1       0.029  -2.066  -0.874  0.00  0.00    -0.281 N 
ATOM      9  H   UNL     1       0.043  -2.962  -1.511  0.00  0.00    +0.152 HD
ENDROOT
BRANCH   2  10
ATOM     10  C   UNL     1      -1.194  -2.942   1.060  0.00  0.00    -0.015 A 
ATOM     11  C   UNL     1      -1.795  -2.595   2.256  0.00  0.00    +0.007 A 
ATOM     12  C   UNL     1      -2.925  -3.267   2.682  0.00  0.00    +0.020 A 
ATOM     13  C   UNL     1      -3.448  -4.295   1.918  0.00  0.00    +0.041 A 
ATOM     14  C   UNL     1      -2.842  -4.646   0.725  0.00  0.00    +0.020 A 
ATOM     15  C   UNL     1      -1.716  -3.969   0.296  0.00  0.00    +0.007 A 
ATOM     16 CL   UNL     1      -4.862  -5.144   2.457  0.00  0.00    -0.084 Cl
ENDBRANCH   2  10
BRANCH   5  17
ATOM     17  C   UNL     1      -0.017   1.460  -0.008  0.00  0.00    +0.214 C 
BRANCH  17  18
ATOM     18  C   UNL     1       1.397   1.982  -0.007  0.00  0.00    +0.235 C 
ATOM     19  O   UNL     1       2.329   1.207  -0.017  0.00  0.00    -0.274 OA
ATOM     20  N   UNL     1       1.624   3.311   0.004  0.00  0.00    -0.283 N 
ATOM     21  H   UNL     1       0.781   4.014  -0.062  0.00  0.00    +0.155 HD
BRANCH  20  22
ATOM     22  C   UNL     1       2.934   3.795   0.100  0.00  0.00    +0.052 A 
ATOM     23  C   UNL     1       3.977   3.107  -0.505  0.00  0.00    +0.027 A 
ATOM     24  C   UNL     1       5.267   3.590  -0.413  0.00  0.00    +0.034 A 
ATOM     25  C   UNL     1       5.524   4.754   0.289  0.00  0.00    +0.128 A 
ATOM     26  C   UNL     1       4.489   5.440   0.898  0.00  0.00    +0.054 A 
ATOM     27  C   UNL     1       3.194   4.964   0.805  0.00  0.00    +0.064 A 
ATOM     28 CL   UNL     1       1.895   5.825   1.570  0.00  0.00    -0.082 Cl
BRANCH  25  29
ATOM     29  N   UNL     1       6.909   5.266   0.390  0.00  0.00    +0.056 N 
ATOM     30  O   UNL     1       7.136   6.290   1.008  0.00  0.00    -0.126 OA
ATOM     31  O   UNL     1       7.821   4.662  -0.146  0.00  0.00    -0.126 OA
ENDBRANCH  25  29
ENDBRANCH  20  22
ENDBRANCH  17  18
ENDBRANCH   5  17
TORSDOF 5
