REMARK  Name = ZINC65108151
REMARK  5 active torsions:
REMARK  status: ('A' for Active; 'I' for Inactive)
REMARK    1  A    between atoms: C_1  and  C_2
REMARK    2  A    between atoms: C_2  and  C_3
REMARK    3  A    between atoms: C_2  and  N_15
REMARK    4  A    between atoms: C_16  and  C_18
REMARK    5  A    between atoms: C_20  and  C_24
REMARK                            x       y       z     vdW  Elec       q    Type
REMARK                         _______ _______ _______ _____ _____    ______ ____
ROOT
ATOM      1  C   UNL     1      -0.019   1.526   0.010  0.00  0.00    +0.033 C 
ATOM      2  C   UNL     1       0.002  -0.004   0.002  0.00  0.00    +0.101 C 
ENDROOT
BRANCH   2   3
ATOM      3  C   UNL     1       0.731  -0.503   1.223  0.00  0.00    -0.025 A 
ATOM      4  C   UNL     1       0.077  -0.557   2.442  0.00  0.00    +0.007 A 
ATOM      5  C   UNL     1       0.737  -1.013   3.566  0.00  0.00    +0.028 A 
ATOM      6  C   UNL     1       2.059  -1.419   3.474  0.00  0.00    +0.067 A 
ATOM      7  C   UNL     1       2.719  -1.364   2.244  0.00  0.00    +0.067 A 
ATOM      8  C   UNL     1       2.047  -0.910   1.120  0.00  0.00    +0.033 A 
ATOM      9  N   UNL     1       4.014  -1.829   2.461  0.00  0.00    -0.306 N 
ATOM     10  H   UNL     1       4.709  -1.906   1.789  0.00  0.00    +0.170 HD
ATOM     11  C   UNL     1       4.137  -2.151   3.763  0.00  0.00    +0.325 A 
ATOM     12  O   UNL     1       5.145  -2.589   4.284  0.00  0.00    -0.247 OA
ATOM     13  N   UNL     1       2.974  -1.915   4.400  0.00  0.00    -0.306 N 
ATOM     14  H   UNL     1       2.803  -2.064   5.343  0.00  0.00    +0.170 HD
ENDBRANCH   2   3
BRANCH   2  15
ATOM     15  N   UNL     1      -1.372  -0.511   0.012  0.00  0.00    -0.304 N 
ATOM     16  C   UNL     1      -2.051  -0.643  -1.145  0.00  0.00    +0.263 C 
ATOM     17  O   UNL     1      -1.522  -0.340  -2.198  0.00  0.00    -0.268 OA
ATOM     18  H   UNL     1      -1.794  -0.752   0.852  0.00  0.00    +0.150 HD
BRANCH  16  19
ATOM     19  C   UNL     1      -3.430  -1.152  -1.134  0.00  0.00    +0.134 A 
ATOM     20  C   UNL     1      -4.253  -1.348  -2.231  0.00  0.00    +0.071 A 
ATOM     21  C   UNL     1      -5.453  -1.841  -1.710  0.00  0.00    +0.081 A 
ATOM     22  N   UNL     1      -5.324  -1.919  -0.411  0.00  0.00    -0.177 NA
ATOM     23  N   UNL     1      -4.157  -1.532  -0.040  0.00  0.00    -0.271 N 
ATOM     24  H   UNL     1      -3.840  -1.509   0.876  0.00  0.00    +0.189 HD
ATOM     25 BR   UNL     1      -3.840  -1.020  -4.047  0.00  0.00    -0.046 Br
BRANCH  21  26
ATOM     26  C   UNL     1      -6.678  -2.215  -2.505  0.00  0.00    +0.041 C 
ATOM     27  C   UNL     1      -7.953  -2.542  -1.725  0.00  0.00    +0.010 C 
ATOM     28  C   UNL     1      -7.166  -3.661  -2.410  0.00  0.00    +0.010 C 
ENDBRANCH  21  26
ENDBRANCH  16  19
ENDBRANCH   2  15
TORSDOF 4
