REMARK  Name = ZINC40232083
REMARK  2 active torsions:
REMARK  status: ('A' for Active; 'I' for Inactive)
REMARK    1  A    between atoms: C_5  and  C_6
REMARK    2  A    between atoms: N_8  and  C_9
REMARK                            x       y       z     vdW  Elec       q    Type
REMARK                         _______ _______ _______ _____ _____    ______ ____
ROOT
ATOM      1  C   UNL     1      -1.996  -3.126   0.098  0.00  0.00    +0.050 A 
ATOM      2  C   UNL     1      -3.280  -2.602   0.100  0.00  0.00    +0.052 A 
ATOM      3  C   UNL     1      -4.371  -3.451   0.198  0.00  0.00    +0.069 A 
ATOM      4  C   UNL     1      -4.174  -4.831   0.294  0.00  0.00    +0.068 A 
ATOM      5  C   UNL     1      -2.888  -5.349   0.292  0.00  0.00    +0.045 A 
ATOM      6  C   UNL     1      -1.803  -4.501   0.188  0.00  0.00    +0.041 A 
ATOM      7 BR   UNL     1      -0.050  -5.209   0.178  0.00  0.00    -0.048 Br
ATOM      8  N   UNL     1      -5.439  -5.413   0.377  0.00  0.00    -0.306 N 
ATOM      9  H   UNL     1      -5.623  -6.362   0.453  0.00  0.00    +0.170 HD
ATOM     10  C   UNL     1      -6.360  -4.432   0.333  0.00  0.00    +0.325 A 
ATOM     11  O   UNL     1      -7.564  -4.600   0.384  0.00  0.00    -0.247 OA
ATOM     12  N   UNL     1      -5.748  -3.239   0.225  0.00  0.00    -0.306 N 
ATOM     13  H   UNL     1      -6.189  -2.376   0.175  0.00  0.00    +0.170 HD
ENDROOT
BRANCH   1  16
ATOM     14  C   UNL     1      -1.027  -1.060  -0.579  0.00  0.00    +0.255 C 
ATOM     15  O   UNL     1      -2.081  -0.751  -1.105  0.00  0.00    -0.269 OA
ATOM     16  N   UNL     1      -0.892  -2.270  -0.001  0.00  0.00    -0.280 N 
ATOM     17  H   UNL     1      -0.030  -2.548   0.346  0.00  0.00    +0.155 HD
BRANCH  14  22
ATOM     18  C   UNL     1       0.163   1.161  -1.108  0.00  0.00    +0.022 A 
ATOM     19  C   UNL     1       1.362   1.811  -0.947  0.00  0.00    +0.024 A 
ATOM     20  C   UNL     1       2.372   1.180  -0.296  0.00  0.00    +0.056 A 
ATOM     21  S   UNL     1       1.725  -0.315   0.116  0.00  0.00    -0.077 S 
ATOM     22  C   UNL     1       0.094  -0.118  -0.576  0.00  0.00    +0.075 A 
ATOM     23 BR   UNL     1       4.110   1.833   0.063  0.00  0.00    -0.043 Br
ENDBRANCH  14  22
ENDBRANCH   1  16
TORSDOF 2
