REMARK  Name = ZINC09319888
REMARK  8 active torsions:
REMARK  status: ('A' for Active; 'I' for Inactive)
REMARK    1  A    between atoms: C_1  and  C_2
REMARK    2  A    between atoms: C_2  and  C_3
REMARK    3  A    between atoms: C_6  and  N_9
REMARK    4  A    between atoms: C_10  and  C_12
REMARK    5  A    between atoms: C_12  and  N_13
REMARK    6  A    between atoms: N_22  and  C_25
REMARK    7  A    between atoms: C_25  and  C_26
REMARK    8  A    between atoms: C_28  and  C_31
REMARK                            x       y       z     vdW  Elec       q    Type
REMARK                         _______ _______ _______ _____ _____    ______ ____
ROOT
ATOM      1  N   UNL     1       3.416   2.296  -0.311  0.00  0.00    -0.284 N 
ATOM      2  C   UNL     1       3.885   3.045   0.758  0.00  0.00    +0.059 A 
ATOM      3  C   UNL     1       3.459   2.804   2.056  0.00  0.00    +0.027 A 
ATOM      4  C   UNL     1       3.951   3.573   3.092  0.00  0.00    +0.002 A 
ATOM      5  C   UNL     1       4.867   4.584   2.849  0.00  0.00    +0.001 A 
ATOM      6  C   UNL     1       5.302   4.839   1.565  0.00  0.00    +0.015 A 
ATOM      7  C   UNL     1       4.814   4.071   0.511  0.00  0.00    +0.063 A 
ATOM      8  C   UNL     1       5.245   4.300  -0.880  0.00  0.00    +0.265 A 
ATOM      9  O   UNL     1       6.047   5.174  -1.148  0.00  0.00    -0.267 OA
ATOM     10  N   UNL     1       4.728   3.514  -1.848  0.00  0.00    -0.251 N 
ATOM     11  C   UNL     1       3.847   2.543  -1.561  0.00  0.00    +0.333 A 
ATOM     12  O   UNL     1       3.416   1.860  -2.470  0.00  0.00    -0.246 OA
ENDROOT
BRANCH   1  13
ATOM     13  C   UNL     1       2.448   1.223  -0.076  0.00  0.00    +0.222 C 
BRANCH  13  15
ATOM     14  N   UNL     1      -0.011   0.966   0.007  0.00  0.00    -0.284 N 
ATOM     15  C   UNL     1       1.050   1.777  -0.174  0.00  0.00    +0.237 C 
ATOM     16  O   UNL     1       0.879   2.953  -0.417  0.00  0.00    -0.274 OA
ATOM     17  H   UNL     1       0.122   0.012   0.124  0.00  0.00    +0.155 HD
BRANCH  14  21
ATOM     18  C   UNL     1      -3.863   2.553   0.051  0.00  0.00    -0.048 A 
ATOM     19  C   UNL     1      -3.645   1.284  -0.456  0.00  0.00    +0.005 A 
ATOM     20  C   UNL     1      -2.369   0.756  -0.472  0.00  0.00    +0.023 A 
ATOM     21  C   UNL     1      -1.305   1.499   0.022  0.00  0.00    +0.033 A 
ATOM     22  C   UNL     1      -1.528   2.769   0.536  0.00  0.00    +0.023 A 
ATOM     23  C   UNL     1      -2.805   3.295   0.543  0.00  0.00    +0.005 A 
BRANCH  18  25
ATOM     24  C   UNL     1      -5.945   2.760   1.382  0.00  0.00    +0.009 C 
ATOM     25  C   UNL     1      -5.256   3.127   0.066  0.00  0.00    +0.032 C 
ENDBRANCH  18  25
ENDBRANCH  14  21
ENDBRANCH  13  15
ENDBRANCH   1  13
BRANCH  10  26
ATOM     26  C   UNL     1       5.140   3.720  -3.239  0.00  0.00    +0.228 C 
BRANCH  26  27
ATOM     27  C   UNL     1       6.347   2.869  -3.537  0.00  0.00    +0.247 A 
ATOM     28  N   UNL     1       6.343   1.641  -3.995  0.00  0.00    -0.195 NA
ATOM     29  C   UNL     1       7.636   1.290  -4.105  0.00  0.00    +0.169 A 
ATOM     30  N   UNL     1       8.349   2.304  -3.715  0.00  0.00    -0.062 NA
ATOM     31  O   UNL     1       7.627   3.224  -3.389  0.00  0.00    -0.336 OA
ATOM     32  C   UNL     1       8.163  -0.036  -4.590  0.00  0.00    +0.091 C 
ENDBRANCH  26  27
ENDBRANCH  10  26
TORSDOF 6
