REMARK  Name = ZINC15044334
REMARK  9 active torsions:
REMARK  status: ('A' for Active; 'I' for Inactive)
REMARK    1  A    between atoms: C_6  and  C_7
REMARK    2  A    between atoms: N_11  and  C_15
REMARK    3  A    between atoms: C_15  and  C_16
REMARK    4  A    between atoms: C_16  and  C_17
REMARK    5  A    between atoms: C_17  and  C_18
REMARK    6  A    between atoms: C_18  and  C_19
REMARK    7  A    between atoms: C_19  and  C_20
REMARK    8  A    between atoms: N_22  and  C_23
REMARK    9  A    between atoms: C_26  and  O_29
REMARK                            x       y       z     vdW  Elec       q    Type
REMARK                         _______ _______ _______ _____ _____    ______ ____
ROOT
ATOM      1  C   UNL     1      -1.581   2.143   2.232  0.00  0.00    +0.115 C 
ENDROOT
BRANCH   1   6
ATOM      2  C   UNL     1      -2.573   6.572   0.229  0.00  0.00    +0.028 C 
ATOM      3  C   UNL     1      -1.925   5.668   1.006  0.00  0.00    +0.077 C 
ATOM      4  C   UNL     1      -2.180   4.222   1.181  0.00  0.00    +0.258 C 
ATOM      5  O   UNL     1      -3.079   3.655   0.589  0.00  0.00    -0.269 OA
ATOM      6  N   UNL     1      -1.380   3.577   2.014  0.00  0.00    -0.255 N 
ATOM      7  C   UNL     1      -0.388   4.211   2.671  0.00  0.00    +0.121 C 
ATOM      8  S   UNL     1       0.737   3.557   3.784  0.00  0.00    -0.027 S 
ATOM      9  S   UNL     1      -0.529   5.896   2.098  0.00  0.00    -0.061 S 
BRANCH   2  15
ATOM     10  C   UNL     1      -1.552   8.481   1.453  0.00  0.00    +0.009 A 
ATOM     11  C   UNL     1      -1.244   9.822   1.544  0.00  0.00    +0.016 A 
ATOM     12  C   UNL     1      -1.630  10.694   0.539  0.00  0.00    +0.018 A 
ATOM     13  C   UNL     1      -2.321  10.227  -0.566  0.00  0.00    +0.016 A 
ATOM     14  C   UNL     1      -2.631   8.888  -0.674  0.00  0.00    +0.009 A 
ATOM     15  C   UNL     1      -2.245   8.001   0.337  0.00  0.00    -0.024 A 
ATOM     16 BR   UNL     1      -1.209  12.533   0.678  0.00  0.00    -0.050 Br
ENDBRANCH   2  15
ENDBRANCH   1   6
BRANCH   1  17
ATOM     17  C   UNL     1      -0.751   1.352   1.219  0.00  0.00    +0.019 C 
BRANCH  17  18
ATOM     18  C   UNL     1      -0.961  -0.147   1.447  0.00  0.00    +0.002 C 
BRANCH  18  19
ATOM     19  C   UNL     1      -0.131  -0.938   0.433  0.00  0.00    +0.009 C 
BRANCH  19  20
ATOM     20  C   UNL     1      -0.340  -2.436   0.661  0.00  0.00    +0.096 C 
BRANCH  20  21
ATOM     21  C   UNL     1       0.477  -3.215  -0.337  0.00  0.00    +0.217 C 
ATOM     22  O   UNL     1       1.160  -2.629  -1.151  0.00  0.00    -0.275 OA
ATOM     23  N   UNL     1       0.449  -4.562  -0.326  0.00  0.00    -0.285 N 
ATOM     24  H   UNL     1      -0.026  -5.032   0.378  0.00  0.00    +0.155 HD
BRANCH  23  25
ATOM     25  C   UNL     1       1.107  -5.285  -1.330  0.00  0.00    +0.034 A 
ATOM     26  C   UNL     1       0.577  -6.487  -1.781  0.00  0.00    +0.027 A 
ATOM     27  C   UNL     1       1.223  -7.196  -2.774  0.00  0.00    +0.047 A 
ATOM     28  C   UNL     1       2.407  -6.714  -3.313  0.00  0.00    +0.117 A 
ATOM     29  C   UNL     1       2.939  -5.516  -2.859  0.00  0.00    +0.047 A 
ATOM     30  C   UNL     1       2.291  -4.803  -1.870  0.00  0.00    +0.027 A 
BRANCH  28  31
ATOM     31  O   UNL     1       3.045  -7.416  -4.287  0.00  0.00    -0.507 OA
ATOM     32  H   UNL     1       3.688  -8.056  -3.954  0.00  0.00    +0.292 HD
ENDBRANCH  28  31
ENDBRANCH  23  25
ENDBRANCH  20  21
ENDBRANCH  19  20
ENDBRANCH  18  19
ENDBRANCH  17  18
ENDBRANCH   1  17
TORSDOF 9
