REMARK  Name = ZINC09451617
REMARK  4 active torsions:
REMARK  status: ('A' for Active; 'I' for Inactive)
REMARK    1  A    between atoms: C_4  and  C_7
REMARK    2  A    between atoms: N_13  and  C_14
REMARK    3  A    between atoms: C_14  and  C_16
REMARK    4  A    between atoms: C_17  and  C_18
REMARK                            x       y       z     vdW  Elec       q    Type
REMARK                         _______ _______ _______ _____ _____    ______ ____
ROOT
ATOM      1  C   UNL     1       3.696  -0.686  -0.037  0.00  0.00    +0.161 A 
ATOM      2  N   UNL     1       3.854  -2.055  -0.046  0.00  0.00    -0.310 N 
ATOM      3  C   UNL     1       5.187  -2.328  -0.061  0.00  0.00    +0.216 A 
ATOM      4  N   UNL     1       5.841  -1.144  -0.062  0.00  0.00    -0.246 N 
ATOM      5  H   UNL     1       3.138  -2.711  -0.042  0.00  0.00    +0.170 HD
ATOM      6  N   UNL     1       4.875  -0.129  -0.052  0.00  0.00    -0.153 NA
ATOM      7  N   UNL     1       5.745  -3.536  -0.073  0.00  0.00    -0.142 NA
ATOM      8  H   UNL     1       6.803  -1.020  -0.071  0.00  0.00    +0.192 HD
ENDROOT
BRANCH   1  12
ATOM      9  C   UNL     1      -0.017   1.379   0.010  0.00  0.00    +0.000 A 
ATOM     10  C   UNL     1       1.168   2.093   0.002  0.00  0.00    +0.001 A 
ATOM     11  C   UNL     1       2.377   1.428  -0.013  0.00  0.00    +0.011 A 
ATOM     12  C   UNL     1       2.403   0.033  -0.021  0.00  0.00    +0.019 A 
ATOM     13  C   UNL     1       1.205  -0.680  -0.013  0.00  0.00    +0.011 A 
ATOM     14  C   UNL     1       0.002  -0.004   0.002  0.00  0.00    +0.001 A 
ENDBRANCH   1  12
BRANCH   7  15
ATOM     15  C   UNL     1       7.078  -3.658  -0.087  0.00  0.00    +0.263 C 
ATOM     16  O   UNL     1       7.782  -2.661  -0.090  0.00  0.00    -0.269 OA
BRANCH  15  17
ATOM     17  C   UNL     1       7.693  -4.990  -0.100  0.00  0.00    +0.070 C 
ATOM     18  C   UNL     1       9.034  -5.113  -0.114  0.00  0.00    +0.013 C 
BRANCH  18  19
ATOM     19  C   UNL     1       9.651  -6.449  -0.127  0.00  0.00    -0.021 A 
ATOM     20  C   UNL     1       8.846  -7.593  -0.130  0.00  0.00    +0.012 A 
ATOM     21  C   UNL     1       9.427  -8.842  -0.140  0.00  0.00    +0.050 A 
ATOM     22  C   UNL     1      10.811  -8.971  -0.148  0.00  0.00    +0.162 A 
ATOM     23  C   UNL     1      11.618  -7.836  -0.148  0.00  0.00    +0.163 A 
ATOM     24  C   UNL     1      11.043  -6.579  -0.142  0.00  0.00    +0.057 A 
ATOM     25  O   UNL     1      12.975  -7.947  -0.164  0.00  0.00    -0.485 OA
ATOM     26  C   UNL     1      13.521  -9.220   0.200  0.00  0.00    +0.270 C 
ATOM     27  C   UNL     1      12.736 -10.309  -0.543  0.00  0.00    +0.270 C 
ATOM     28  O   UNL     1      11.361 -10.215  -0.154  0.00  0.00    -0.485 OA
ENDBRANCH  18  19
ENDBRANCH  15  17
ENDBRANCH   7  15
TORSDOF 4
