REMARK  Name = ZINC08757878
REMARK  7 active torsions:
REMARK  status: ('A' for Active; 'I' for Inactive)
REMARK    1  A    between atoms: C_1  and  C_2
REMARK    2  A    between atoms: C_5  and  N_11
REMARK    3  A    between atoms: C_6  and  N_8
REMARK    4  A    between atoms: C_12  and  C_14
REMARK    5  A    between atoms: C_14  and  O_15
REMARK    6  A    between atoms: O_15  and  C_16
REMARK    7  A    between atoms: C_16  and  C_18
REMARK                            x       y       z     vdW  Elec       q    Type
REMARK                         _______ _______ _______ _____ _____    ______ ____
ROOT
ATOM      1  N   UNL     1       8.359   1.130  -0.075  0.00  0.00    -0.281 N 
ATOM      2  C   UNL     1       7.028   1.339  -0.057  0.00  0.00    +0.255 C 
ATOM      3  O   UNL     1       6.592   2.471  -0.032  0.00  0.00    -0.272 OA
ATOM      4  H   UNL     1       8.709   0.228  -0.014  0.00  0.00    +0.155 HD
ENDROOT
BRANCH   1   9
ATOM      5  C   UNL     1      11.914   5.530  -0.508  0.00  0.00    +0.044 C 
ATOM      6  C   UNL     1      10.970   4.361  -0.393  0.00  0.00    -0.048 A 
ATOM      7  C   UNL     1       9.680   4.466  -0.881  0.00  0.00    +0.005 A 
ATOM      8  C   UNL     1       8.812   3.397  -0.777  0.00  0.00    +0.026 A 
ATOM      9  C   UNL     1       9.236   2.216  -0.182  0.00  0.00    +0.064 A 
ATOM     10  C   UNL     1      10.530   2.116   0.312  0.00  0.00    +0.148 A 
ATOM     11  C   UNL     1      11.395   3.187   0.200  0.00  0.00    +0.038 A 
BRANCH  10  12
ATOM     12  N   UNL     1      10.983   0.861   0.953  0.00  0.00    +0.058 N 
ATOM     13  O   UNL     1      12.087   0.803   1.466  0.00  0.00    -0.126 OA
ATOM     14  O   UNL     1      10.254  -0.114   0.967  0.00  0.00    -0.126 OA
ENDBRANCH  10  12
ENDBRANCH   1   9
BRANCH   2  15
ATOM     15  C   UNL     1       6.081   0.167  -0.068  0.00  0.00    +0.328 C 
BRANCH  15  16
ATOM     16  O   UNL     1       4.734   0.642  -0.045  0.00  0.00    -0.451 OA
BRANCH  16  17
ATOM     17  C   UNL     1       3.756  -0.287  -0.051  0.00  0.00    +0.346 C 
ATOM     18  O   UNL     1       4.041  -1.470  -0.076  0.00  0.00    -0.244 OA
BRANCH  17  19
ATOM     19  C   UNL     1       2.353   0.127  -0.028  0.00  0.00    +0.097 A 
ATOM     20  C   UNL     1       1.209  -0.659  -0.030  0.00  0.00    +0.024 A 
ATOM     21  C   UNL     1       0.003  -0.006  -0.006  0.00  0.00    +0.024 A 
ATOM     22  C   UNL     1      -0.015   1.354   0.019  0.00  0.00    +0.056 A 
ATOM     23  S   UNL     1       1.667   1.773   0.009  0.00  0.00    -0.075 S 
ATOM     24 BR   UNL     1      -1.513   2.508   0.049  0.00  0.00    -0.043 Br
ENDBRANCH  17  19
ENDBRANCH  16  17
ENDBRANCH  15  16
ENDBRANCH   2  15
TORSDOF 6
