REMARK  Name = ZINC09092646
REMARK  7 active torsions:
REMARK  status: ('A' for Active; 'I' for Inactive)
REMARK    1  A    between atoms: C_1  and  C_2
REMARK    2  A    between atoms: C_4  and  C_30
REMARK    3  A    between atoms: C_5  and  N_9
REMARK    4  A    between atoms: C_10  and  C_12
REMARK    5  A    between atoms: C_12  and  N_13
REMARK    6  A    between atoms: C_16  and  C_20
REMARK    7  A    between atoms: C_16  and  C_21
REMARK                            x       y       z     vdW  Elec       q    Type
REMARK                         _______ _______ _______ _____ _____    ______ ____
ROOT
ATOM      1  N   UNL     1       4.428   5.647   4.365  0.00  0.00    -0.215 N 
ATOM      2  C   UNL     1       3.703   6.452   3.563  0.00  0.00    +0.251 C 
ATOM      3  O   UNL     1       3.518   6.324   2.371  0.00  0.00    -0.272 OA
ATOM      4  C   UNL     1       3.167   7.549   4.460  0.00  0.00    +0.135 C 
ATOM      5  N   UNL     1       3.702   7.207   5.789  0.00  0.00    -0.281 N 
ATOM      6  C   UNL     1       4.424   6.079   5.631  0.00  0.00    +0.310 C 
ATOM      7  O   UNL     1       5.008   5.519   6.538  0.00  0.00    -0.252 OA
ATOM      8  C   UNL     1       3.686   8.916   4.007  0.00  0.00    +0.047 C 
ATOM      9  H   UNL     1       3.562   7.697   6.614  0.00  0.00    +0.152 HD
ENDROOT
BRANCH   4  10
ATOM     10  C   UNL     1       1.661   7.534   4.474  0.00  0.00    -0.012 A 
ATOM     11  C   UNL     1       0.964   7.138   3.348  0.00  0.00    +0.010 A 
ATOM     12  C   UNL     1      -0.418   7.122   3.356  0.00  0.00    +0.050 A 
ATOM     13  C   UNL     1      -1.109   7.509   4.493  0.00  0.00    +0.166 A 
ATOM     14  C   UNL     1      -0.407   7.902   5.630  0.00  0.00    +0.167 A 
ATOM     15  C   UNL     1       0.978   7.916   5.614  0.00  0.00    +0.055 A 
ATOM     16  O   UNL     1      -1.305   8.224   6.607  0.00  0.00    -0.453 OA
ATOM     17  C   UNL     1      -2.550   7.630   6.196  0.00  0.00    +0.466 C 
ATOM     18  O   UNL     1      -2.446   7.575   4.761  0.00  0.00    -0.453 OA
ENDBRANCH   4  10
BRANCH   1  19
ATOM     19  C   UNL     1       5.132   4.446   3.907  0.00  0.00    +0.214 C 
BRANCH  19  21
ATOM     20  N   UNL     1       7.369   3.863   3.027  0.00  0.00    -0.283 N 
ATOM     21  C   UNL     1       6.531   4.814   3.487  0.00  0.00    +0.235 C 
ATOM     22  O   UNL     1       6.904   5.966   3.562  0.00  0.00    -0.274 OA
ATOM     23  H   UNL     1       7.097   2.932   3.036  0.00  0.00    +0.155 HD
BRANCH  20  28
ATOM     24  C   UNL     1      12.486   5.308   1.044  0.00  0.00    +0.044 C 
ATOM     25  C   UNL     1      11.126   4.924   1.571  0.00  0.00    -0.049 A 
ATOM     26  C   UNL     1      10.980   4.545   2.892  0.00  0.00    +0.008 A 
ATOM     27  C   UNL     1       9.735   4.198   3.380  0.00  0.00    -0.028 A 
ATOM     28  C   UNL     1       8.631   4.220   2.538  0.00  0.00    +0.055 A 
ATOM     29  C   UNL     1       8.781   4.601   1.210  0.00  0.00    +0.063 A 
ATOM     30  C   UNL     1      10.029   4.953   0.731  0.00  0.00    +0.025 A 
ATOM     31 CL   UNL     1       7.403   4.635   0.155  0.00  0.00    -0.082 Cl
ATOM     32  C   UNL     1       9.576   3.791   4.822  0.00  0.00    +0.046 C 
ENDBRANCH  20  28
ENDBRANCH  19  21
ENDBRANCH   1  19
TORSDOF 4
