REMARK  Name = ZINC38747413
REMARK  5 active torsions:
REMARK  status: ('A' for Active; 'I' for Inactive)
REMARK    1  A    between atoms: C_1  and  C_2
REMARK    2  A    between atoms: C_4  and  C_22
REMARK    3  A    between atoms: C_8  and  S_12
REMARK    4  A    between atoms: S_12  and  C_13
REMARK    5  A    between atoms: C_13  and  C_14
REMARK                            x       y       z     vdW  Elec       q    Type
REMARK                         _______ _______ _______ _____ _____    ______ ____
ROOT
ATOM      1  C   UNL     1      -0.019   1.526   0.010  0.00  0.00    +0.024 C 
ATOM      2  C   UNL     1       0.002  -0.004   0.002  0.00  0.00    +0.076 C 
ATOM      3  C   UNL     1      -1.399  -0.565   0.089  0.00  0.00    -0.045 C 
ATOM      4  C   UNL     1      -1.705  -1.319   1.152  0.00  0.00    +0.071 C 
ATOM      5  C   UNL     1      -0.645  -1.546   2.161  0.00  0.00    +0.112 C 
ATOM      6  N   UNL     1      -0.880  -2.274   3.222  0.00  0.00    -0.217 NA
ATOM      7  C   UNL     1      -2.074  -2.832   3.430  0.00  0.00    +0.182 C 
ATOM      8  N   UNL     1      -3.090  -2.695   2.596  0.00  0.00    -0.151 NA
ATOM      9  C   UNL     1      -3.009  -1.985   1.471  0.00  0.00    +0.272 C 
ATOM     10  O   UNL     1      -3.967  -1.880   0.724  0.00  0.00    -0.268 OA
ATOM     11  S   UNL     1       0.764  -0.661   1.541  0.00  0.00    -0.098 S 
ATOM     12  C   UNL     1      -2.418  -0.283  -0.985  0.00  0.00    +0.041 C 
ENDROOT
BRANCH   7  13
ATOM     13  S   UNL     1      -2.306  -3.798   4.885  0.00  0.00    -0.084 S 
BRANCH  13  14
ATOM     14  C   UNL     1      -4.029  -4.353   4.772  0.00  0.00    +0.112 C 
BRANCH  14  15
ATOM     15  C   UNL     1      -4.363  -5.201   5.972  0.00  0.00    -0.037 A 
ATOM     16  C   UNL     1      -4.157  -6.568   5.932  0.00  0.00    +0.005 A 
ATOM     17  C   UNL     1      -4.463  -7.346   7.033  0.00  0.00    +0.015 A 
ATOM     18  C   UNL     1      -4.975  -6.757   8.175  0.00  0.00    +0.018 A 
ATOM     19  C   UNL     1      -5.182  -5.390   8.215  0.00  0.00    +0.015 A 
ATOM     20  C   UNL     1      -4.871  -4.612   7.115  0.00  0.00    +0.005 A 
ATOM     21 BR   UNL     1      -5.394  -7.821   9.681  0.00  0.00    -0.050 Br
ENDBRANCH  14  15
ENDBRANCH  13  14
ENDBRANCH   7  13
TORSDOF 3
