REMARK  Name = ZINC12641969
REMARK  9 active torsions:
REMARK  status: ('A' for Active; 'I' for Inactive)
REMARK    1  A    between atoms: C_1  and  C_2
REMARK    2  A    between atoms: C_2  and  O_3
REMARK    3  A    between atoms: O_3  and  C_4
REMARK    4  A    between atoms: C_4  and  C_6
REMARK    5  A    between atoms: C_6  and  N_7
REMARK    6  A    between atoms: C_8  and  C_12
REMARK    7  A    between atoms: C_12  and  C_14
REMARK    8  A    between atoms: C_12  and  N_55
REMARK    9  A    between atoms: C_23  and  C_26
REMARK                            x       y       z     vdW  Elec       q    Type
REMARK                         _______ _______ _______ _____ _____    ______ ____
ROOT
ATOM      1  C   UNL     1      -1.416   3.638  -2.351  0.00  0.00    +0.034 C 
ENDROOT
BRANCH   1   2
ATOM      2  C   UNL     1      -1.647   5.114  -2.156  0.00  0.00    -0.053 A 
ATOM      3  C   UNL     1      -0.787   5.849  -1.361  0.00  0.00    +0.005 A 
ATOM      4  C   UNL     1      -0.995   7.204  -1.186  0.00  0.00    +0.038 A 
ATOM      5  C   UNL     1      -2.071   7.823  -1.798  0.00  0.00    +0.123 A 
ATOM      6  C   UNL     1      -2.935   7.085  -2.590  0.00  0.00    +0.038 A 
ATOM      7  C   UNL     1      -2.722   5.731  -2.768  0.00  0.00    +0.005 A 
ATOM      8  F   UNL     1      -2.279   9.146  -1.623  0.00  0.00    -0.205 F 
ENDBRANCH   1   2
BRANCH   1  14
ATOM      9  C   UNL     1      -0.751   1.592  -1.234  0.00  0.00    -0.072 C 
ATOM     10  C   UNL     1      -0.013   1.086   0.008  0.00  0.00    +0.017 C 
ATOM     11  C   UNL     1      -0.715   1.570   1.246  0.00  0.00    -0.048 C 
ATOM     12  C   UNL     1      -1.587   2.553   1.230  0.00  0.00    -0.041 C 
ATOM     13  C   UNL     1      -1.975   3.282  -0.023  0.00  0.00    -0.049 C 
ATOM     14  N   UNL     1      -0.966   3.045  -1.071  0.00  0.00    +0.392 N 
ATOM     15  H   UNL     1      -0.082   3.485  -0.792  0.00  0.00    -0.080 HD
BRANCH  11  16
ATOM     16  C   UNL     1      -0.410   0.914   2.535  0.00  0.00    -0.022 A 
ATOM     17  C   UNL     1       0.870   1.006   3.083  0.00  0.00    +0.011 A 
ATOM     18  C   UNL     1       1.146   0.398   4.290  0.00  0.00    +0.039 A 
ATOM     19  C   UNL     1       0.159  -0.315   4.952  0.00  0.00    +0.123 A 
ATOM     20  C   UNL     1      -1.112  -0.415   4.409  0.00  0.00    +0.039 A 
ATOM     21  C   UNL     1      -1.401   0.195   3.206  0.00  0.00    +0.011 A 
ATOM     22  F   UNL     1       0.437  -0.913   6.131  0.00  0.00    -0.205 F 
ENDBRANCH  11  16
ENDBRANCH   1  14
BRANCH   1  24
ATOM     23  N   UNL     1      -0.527   3.027  -4.663  0.00  0.00    -0.220 N 
ATOM     24  C   UNL     1      -0.345   3.430  -3.392  0.00  0.00    +0.143 A 
ATOM     25  N   UNL     1       0.943   3.612  -3.236  0.00  0.00    -0.115 NA
ATOM     26  N   UNL     1       1.523   3.328  -4.351  0.00  0.00    -0.023 NA
ATOM     27  N   UNL     1       0.637   2.977  -5.216  0.00  0.00    -0.043 NA
BRANCH  23  28
ATOM     28  C   UNL     1      -1.808   2.706  -5.299  0.00  0.00    +0.267 C 
BRANCH  28  29
ATOM     29  C   UNL     1      -2.382   3.949  -5.927  0.00  0.00    +0.329 C 
ATOM     30  O   UNL     1      -1.784   4.996  -5.851  0.00  0.00    -0.249 OA
BRANCH  29  31
ATOM     31  O   UNL     1      -3.559   3.894  -6.570  0.00  0.00    -0.464 OA
BRANCH  31  33
ATOM     32  C   UNL     1      -5.394   4.872  -7.837  0.00  0.00    +0.048 C 
ATOM     33  C   UNL     1      -4.052   5.130  -7.151  0.00  0.00    +0.229 C 
ENDBRANCH  31  33
ENDBRANCH  29  31
ENDBRANCH  28  29
ENDBRANCH  23  28
ENDBRANCH   1  24
TORSDOF 8
