REMARK  Name = ZINC12218782
REMARK  8 active torsions:
REMARK  status: ('A' for Active; 'I' for Inactive)
REMARK    1  A    between atoms: C_5  and  N_7
REMARK    2  A    between atoms: C_12  and  C_13
REMARK    3  A    between atoms: C_12  and  N_72
REMARK    4  A    between atoms: C_17  and  O_19
REMARK    5  A    between atoms: O_19  and  C_20
REMARK    6  A    between atoms: C_20  and  C_21
REMARK    7  A    between atoms: C_28  and  C_30
REMARK    8  A    between atoms: C_30  and  C_31
REMARK                            x       y       z     vdW  Elec       q    Type
REMARK                         _______ _______ _______ _____ _____    ______ ____
ROOT
ATOM      1  C   UNL     1     -10.020  10.049   2.861  0.00  0.00    -0.060 A 
ATOM      2  C   UNL     1     -10.985   9.058   2.845  0.00  0.00    +0.002 A 
ATOM      3  C   UNL     1     -10.613   7.730   2.747  0.00  0.00    +0.004 A 
ATOM      4  C   UNL     1      -9.277   7.390   2.662  0.00  0.00    +0.045 A 
ATOM      5  C   UNL     1      -8.308   8.382   2.677  0.00  0.00    +0.121 A 
ATOM      6  C   UNL     1      -8.683   9.714   2.782  0.00  0.00    +0.047 A 
ENDROOT
BRANCH   1   7
ATOM      7  C   UNL     1     -10.428  11.496   2.969  0.00  0.00    -0.043 C 
BRANCH   7  13
ATOM      8  N   UNL     1     -11.723  12.985   6.704  0.00  0.00    -0.331 N 
ATOM      9  C   UNL     1     -10.643  13.702   6.014  0.00  0.00    +0.086 C 
ATOM     10  C   UNL     1     -10.657  13.334   4.529  0.00  0.00    -0.059 C 
ATOM     11  C   UNL     1     -11.576  11.163   5.075  0.00  0.00    -0.059 C 
ATOM     12  C   UNL     1     -11.562  11.531   6.561  0.00  0.00    +0.086 C 
ATOM     13  N   UNL     1     -10.472  11.874   4.398  0.00  0.00    +0.384 N 
ATOM     14  H   UNL     1      -9.584  11.609   4.840  0.00  0.00    -0.081 HD
BRANCH   8  19
ATOM     15  C   UNL     1     -10.761  13.504  10.215  0.00  0.00    +0.002 A 
ATOM     16  C   UNL     1     -11.914  14.075  10.721  0.00  0.00    +0.003 A 
ATOM     17  C   UNL     1     -13.005  14.287   9.898  0.00  0.00    +0.040 A 
ATOM     18  C   UNL     1     -12.946  13.926   8.564  0.00  0.00    +0.144 A 
ATOM     19  C   UNL     1     -11.787  13.351   8.052  0.00  0.00    +0.065 A 
ATOM     20  C   UNL     1     -10.697  13.137   8.884  0.00  0.00    +0.026 A 
ATOM     21  F   UNL     1     -14.012  14.132   7.760  0.00  0.00    -0.204 F 
ENDBRANCH   8  19
ENDBRANCH   7  13
ENDBRANCH   1   7
BRANCH   5  22
ATOM     22  O   UNL     1      -6.992   8.050   2.594  0.00  0.00    -0.492 OA
BRANCH  22  23
ATOM     23  C   UNL     1      -6.680   6.659   2.494  0.00  0.00    +0.234 C 
BRANCH  23  24
ATOM     24  C   UNL     1      -5.162   6.482   2.411  0.00  0.00    +0.044 C 
ATOM     25  C   UNL     1      -4.521   6.947   3.720  0.00  0.00    +0.010 C 
ATOM     26  C   UNL     1      -3.001   6.802   3.626  0.00  0.00    +0.019 C 
ATOM     27  C   UNL     1      -2.646   5.327   3.412  0.00  0.00    +0.108 C 
ATOM     28  N   UNL     1      -3.373   4.832   2.235  0.00  0.00    -0.301 N 
ATOM     29  C   UNL     1      -4.831   5.009   2.180  0.00  0.00    +0.114 C 
ATOM     30  C   UNL     1      -2.716   4.231   1.224  0.00  0.00    +0.218 C 
ATOM     31  O   UNL     1      -3.328   3.827   0.258  0.00  0.00    -0.276 OA
BRANCH  30  32
ATOM     32  C   UNL     1      -1.220   4.063   1.292  0.00  0.00    +0.127 C 
BRANCH  32  33
ATOM     33  C   UNL     1      -0.727   3.357   0.027  0.00  0.00    +0.169 C 
ATOM     34  C   UNL     1       0.787   3.284   0.012  0.00  0.00    +0.241 C 
ATOM     35  O   UNL     1       1.565   4.213   0.010  0.00  0.00    -0.273 OA
ATOM     36  N   UNL     1       1.087   1.970   0.002  0.00  0.00    -0.239 N 
ATOM     37  C   UNL     1      -0.014   1.211   0.009  0.00  0.00    +0.307 C 
ATOM     38  O   UNL     1       0.002  -0.004   0.002  0.00  0.00    -0.252 OA
ATOM     39  N   UNL     1      -1.143   1.944   0.018  0.00  0.00    -0.287 N 
ATOM     40  H   UNL     1       1.991   1.618  -0.008  0.00  0.00    +0.159 HD
ATOM     41  H   UNL     1      -2.052   1.607   0.019  0.00  0.00    +0.151 HD
ENDBRANCH  32  33
ENDBRANCH  30  32
ENDBRANCH  23  24
ENDBRANCH  22  23
ENDBRANCH   5  22
TORSDOF 8
