REMARK  Name = ZINC45335395
REMARK  12 active torsions:
REMARK  status: ('A' for Active; 'I' for Inactive)
REMARK    1  A    between atoms: C_1  and  C_2
REMARK    2  A    between atoms: C_2  and  O_3
REMARK    3  A    between atoms: O_3  and  C_4
REMARK    4  A    between atoms: C_4  and  C_6
REMARK    5  A    between atoms: C_7  and  C_35
REMARK    6  A    between atoms: C_11  and  N_34
REMARK    7  A    between atoms: C_13  and  C_15
REMARK    8  A    between atoms: C_15  and  S_16
REMARK    9  A    between atoms: S_16  and  C_17
REMARK   10  A    between atoms: C_20  and  C_28
REMARK   11  A    between atoms: N_21  and  C_22
REMARK   12  A    between atoms: C_28  and  N_29
REMARK                            x       y       z     vdW  Elec       q    Type
REMARK                         _______ _______ _______ _____ _____    ______ ____
ROOT
ATOM      1  C   UNL     1      -6.797  -4.622   3.726  0.00  0.00    +0.153 C 
ENDROOT
BRANCH   1   9
ATOM      2  C   UNL     1      -3.102  -3.478  -0.345  0.00  0.00    +0.112 A 
ATOM      3  C   UNL     1      -3.932  -3.861  -1.355  0.00  0.00    +0.119 A 
ATOM      4  O   UNL     1      -5.103  -4.269  -0.848  0.00  0.00    -0.441 OA
ATOM      5  C   UNL     1      -5.114  -4.183   0.493  0.00  0.00    +0.233 A 
ATOM      6  C   UNL     1      -3.865  -3.690   0.897  0.00  0.00    +0.094 A 
ATOM      7  C   UNL     1      -3.616  -3.511   2.262  0.00  0.00    +0.131 A 
ATOM      8  N   UNL     1      -4.580  -3.822   3.126  0.00  0.00    -0.216 NA
ATOM      9  C   UNL     1      -5.741  -4.286   2.705  0.00  0.00    +0.145 A 
ATOM     10  N   UNL     1      -6.018  -4.461   1.430  0.00  0.00    -0.196 NA
ATOM     11  C   UNL     1      -3.586  -3.829  -2.821  0.00  0.00    +0.087 C 
BRANCH   7  12
ATOM     12  N   UNL     1      -2.398  -3.024   2.703  0.00  0.00    -0.342 N 
ATOM     13  H   UNL     1      -1.704  -2.802   2.062  0.00  0.00    +0.144 HD
ATOM     14  H   UNL     1      -2.238  -2.905   3.652  0.00  0.00    +0.144 HD
ENDBRANCH   7  12
BRANCH   2  15
ATOM     15  C   UNL     1      -1.729  -2.968  -0.469  0.00  0.00    +0.343 C 
ATOM     16  O   UNL     1      -0.790  -3.740  -0.459  0.00  0.00    -0.245 OA
BRANCH  15  17
ATOM     17  O   UNL     1      -1.512  -1.643  -0.593  0.00  0.00    -0.461 OA
BRANCH  17  19
ATOM     18  C   UNL     1      -0.105   0.307  -0.840  0.00  0.00    +0.048 C 
ATOM     19  C   UNL     1      -0.153  -1.217  -0.709  0.00  0.00    +0.229 C 
ENDBRANCH  17  19
ENDBRANCH  15  17
ENDBRANCH   2  15
ENDBRANCH   1   9
BRANCH   1  20
ATOM     20  S   UNL     1      -7.825  -3.160   4.037  0.00  0.00    -0.078 S 
BRANCH  20  21
ATOM     21  C   UNL     1      -8.995  -3.707   5.235  0.00  0.00    +0.196 A 
ATOM     22  N   UNL     1      -9.069  -4.907   5.763  0.00  0.00    -0.122 NA
ATOM     23  N   UNL     1     -10.041  -4.958   6.601  0.00  0.00    -0.135 NA
ATOM     24  C   UNL     1     -10.643  -3.803   6.660  0.00  0.00    +0.122 A 
ATOM     25  N   UNL     1      -9.995  -2.961   5.796  0.00  0.00    -0.276 N 
BRANCH  25  26
ATOM     26  C   UNL     1     -10.296  -1.616   5.538  0.00  0.00    +0.050 A 
ATOM     27  C   UNL     1     -10.111  -0.660   6.527  0.00  0.00    +0.026 A 
ATOM     28  C   UNL     1     -10.408   0.664   6.270  0.00  0.00    +0.002 A 
ATOM     29  C   UNL     1     -10.888   1.038   5.028  0.00  0.00    +0.000 A 
ATOM     30  C   UNL     1     -11.073   0.088   4.041  0.00  0.00    +0.002 A 
ATOM     31  C   UNL     1     -10.773  -1.237   4.290  0.00  0.00    +0.026 A 
ENDBRANCH  25  26
BRANCH  24  32
ATOM     32  C   UNL     1     -11.829  -3.457   7.524  0.00  0.00    -0.001 C 
BRANCH  32  33
ATOM     33  N   UNL     1     -13.065  -3.619   6.747  0.00  0.00    +0.384 N 
ATOM     34  C   UNL     1     -13.310  -5.056   6.467  0.00  0.00    -0.078 C 
ATOM     35  C   UNL     1     -14.832  -5.107   6.180  0.00  0.00    -0.020 C 
ATOM     36  C   UNL     1     -15.407  -4.083   7.185  0.00  0.00    -0.020 C 
ATOM     37  C   UNL     1     -14.227  -3.157   7.536  0.00  0.00    -0.078 C 
ATOM     38  H   UNL     1     -13.003  -3.101   5.883  0.00  0.00    -0.081 HD
ENDBRANCH  32  33
ENDBRANCH  24  32
ENDBRANCH  20  21
ENDBRANCH   1  20
TORSDOF 10
