REMARK  Name = ZINC57845051
REMARK  5 active torsions:
REMARK  status: ('A' for Active; 'I' for Inactive)
REMARK    1  A    between atoms: C_1  and  C_2
REMARK    2  A    between atoms: C_2  and  C_3
REMARK    3  A    between atoms: C_3  and  C_13
REMARK    4  A    between atoms: N_6  and  C_10
REMARK    5  A    between atoms: C_10  and  C_11
REMARK                            x       y       z     vdW  Elec       q    Type
REMARK                         _______ _______ _______ _____ _____    ______ ____
ROOT
ATOM      1  C   UNL     1       0.718  -0.497  -1.257  0.00  0.00    +0.138 C 
ATOM      2  C   UNL     1       2.144   0.016  -1.295  0.00  0.00    +0.252 C 
ATOM      3  O   UNL     1       3.025  -0.210  -0.494  0.00  0.00    -0.272 OA
ATOM      4  N   UNL     1       2.228   0.775  -2.405  0.00  0.00    -0.210 N 
ATOM      5  C   UNL     1       1.066   0.812  -3.067  0.00  0.00    +0.310 C 
ATOM      6  O   UNL     1       0.895   1.432  -4.099  0.00  0.00    -0.252 OA
ATOM      7  N   UNL     1       0.107   0.087  -2.463  0.00  0.00    -0.281 N 
ATOM      8  H   UNL     1      -0.807  -0.029  -2.764  0.00  0.00    +0.152 HD
ENDROOT
BRANCH   1   9
ATOM      9  C   UNL     1       0.691  -2.003  -1.325  0.00  0.00    -0.015 A 
ATOM     10  C   UNL     1       0.664  -2.749  -0.161  0.00  0.00    +0.006 A 
ATOM     11  C   UNL     1       0.642  -4.127  -0.232  0.00  0.00    +0.004 A 
ATOM     12  C   UNL     1       0.646  -4.771  -1.462  0.00  0.00    -0.044 A 
ATOM     13  C   UNL     1       0.668  -4.027  -2.621  0.00  0.00    -0.044 A 
ATOM     14  C   UNL     1       0.688  -2.640  -2.548  0.00  0.00    +0.010 A 
ATOM     15  C   UNL     1       0.657  -4.658  -3.989  0.00  0.00    +0.035 C 
ATOM     16  C   UNL     1       1.060  -6.129  -3.906  0.00  0.00    +0.005 C 
ATOM     17  C   UNL     1       0.200  -6.806  -2.833  0.00  0.00    +0.005 C 
ATOM     18  C   UNL     1       0.629  -6.277  -1.466  0.00  0.00    +0.035 C 
ENDBRANCH   1   9
BRANCH   1  20
ATOM     19  C   UNL     1      -0.019   1.526   0.010  0.00  0.00    +0.007 C 
ATOM     20  C   UNL     1       0.002  -0.004   0.002  0.00  0.00    +0.037 C 
ENDBRANCH   1  20
BRANCH   4  21
ATOM     21  C   UNL     1       3.442   1.474  -2.834  0.00  0.00    +0.236 C 
BRANCH  21  22
ATOM     22  C   UNL     1       4.231   0.593  -3.711  0.00  0.00    +0.082 C 
ATOM     23  N   UNL     1       4.840  -0.087  -4.388  0.00  0.00    -0.195 NA
ENDBRANCH  21  22
ENDBRANCH   4  21
TORSDOF 4
