REMARK  Name = ZINC32651928
REMARK  7 active torsions:
REMARK  status: ('A' for Active; 'I' for Inactive)
REMARK    1  A    between atoms: C_1  and  C_2
REMARK    2  A    between atoms: C_2  and  N_3
REMARK    3  A    between atoms: C_8  and  C_12
REMARK    4  A    between atoms: N_10  and  C_11
REMARK    5  A    between atoms: N_15  and  C_16
REMARK    6  A    between atoms: C_16  and  C_17
REMARK    7  A    between atoms: C_20  and  C_22
REMARK                            x       y       z     vdW  Elec       q    Type
REMARK                         _______ _______ _______ _____ _____    ______ ____
ROOT
ATOM      1  N   UNL     1      -0.698   1.558   1.213  0.00  0.00    -0.280 N 
ATOM      2  C   UNL     1      -1.677   0.808   1.766  0.00  0.00    +0.281 A 
ATOM      3  O   UNL     1      -1.996  -0.260   1.274  0.00  0.00    -0.265 OA
ATOM      4  C   UNL     1      -2.319   1.290   2.928  0.00  0.00    +0.152 A 
ATOM      5  C   UNL     1      -1.919   2.522   3.459  0.00  0.00    +0.120 A 
ATOM      6  C   UNL     1      -2.712   2.757   4.597  0.00  0.00    +0.086 A 
ATOM      7  N   UNL     1      -3.532   1.752   4.753  0.00  0.00    -0.174 NA
ATOM      8  N   UNL     1      -3.320   0.815   3.733  0.00  0.00    -0.260 N 
ATOM      9  C   UNL     1      -4.041  -0.448   3.559  0.00  0.00    +0.173 C 
ATOM     10  C   UNL     1      -2.629   3.968   5.490  0.00  0.00    +0.070 C 
ATOM     11  N   UNL     1      -0.929   3.217   2.847  0.00  0.00    -0.212 NA
ATOM     12  C   UNL     1      -0.341   2.751   1.773  0.00  0.00    +0.199 A 
ATOM     13  N   UNL     1       0.661   3.487   1.189  0.00  0.00    -0.310 N 
ATOM     14  H   UNL     1       1.163   3.113   0.284  0.00  0.00    +0.149 HD
ENDROOT
BRANCH   1  16
ATOM     15  C   UNL     1      -0.753   1.593  -1.232  0.00  0.00    +0.027 C 
ATOM     16  C   UNL     1      -0.013   1.086   0.008  0.00  0.00    +0.125 C 
ENDBRANCH   1  16
BRANCH  13  17
ATOM     17  C   UNL     1       1.062   4.770   1.771  0.00  0.00    +0.148 C 
BRANCH  17  18
ATOM     18  C   UNL     1       2.172   5.370   0.948  0.00  0.00    +0.027 A 
ATOM     19  C   UNL     1       2.105   6.201  -0.123  0.00  0.00    +0.124 A 
ATOM     20  N   UNL     1       3.231   6.598  -0.679  0.00  0.00    -0.252 NA
ATOM     21  C   UNL     1       4.396   6.200  -0.225  0.00  0.00    +0.075 A 
ATOM     22  S   UNL     1       3.942   5.179   1.105  0.00  0.00    -0.076 S 
ATOM     23  C   UNL     1       5.775   6.539  -0.730  0.00  0.00    +0.073 C 
ENDBRANCH  17  18
ENDBRANCH  13  17
TORSDOF 3
