REMARK  Name = ZINC38827320
REMARK  7 active torsions:
REMARK  status: ('A' for Active; 'I' for Inactive)
REMARK    1  A    between atoms: C_4  and  C_7
REMARK    2  A    between atoms: C_7  and  C_8
REMARK    3  A    between atoms: C_8  and  N_9
REMARK    4  A    between atoms: C_13  and  C_18
REMARK    5  A    between atoms: C_14  and  C_16
REMARK    6  A    between atoms: C_20  and  C_25
REMARK    7  A    between atoms: C_22  and  N_24
REMARK                            x       y       z     vdW  Elec       q    Type
REMARK                         _______ _______ _______ _____ _____    ______ ____
ROOT
ATOM      1  N   UNL     1       5.450  -1.678   1.382  0.00  0.00    -0.327 N 
ATOM      2  C   UNL     1       5.585  -3.057   1.368  0.00  0.00    +0.144 A 
ATOM      3  C   UNL     1       6.928  -3.442   1.353  0.00  0.00    +0.093 A 
ATOM      4  N   UNL     1       7.264  -4.715   1.338  0.00  0.00    -0.234 NA
ATOM      5  C   UNL     1       6.322  -5.656   1.337  0.00  0.00    +0.176 A 
ATOM      6  C   UNL     1       4.967  -5.280   1.352  0.00  0.00    +0.178 A 
ATOM      7  N   UNL     1       4.638  -3.994   1.367  0.00  0.00    -0.217 NA
ATOM      8  C   UNL     1       7.781  -2.193   1.358  0.00  0.00    +0.111 C 
ATOM      9  C   UNL     1       6.767  -1.037   1.371  0.00  0.00    +0.031 C 
ENDROOT
BRANCH   8  10
ATOM     10  C   UNL     1       8.630  -2.131   0.115  0.00  0.00    +0.142 A 
ATOM     11  N   UNL     1       8.027  -2.130  -1.064  0.00  0.00    -0.193 NA
ATOM     12  C   UNL     1       8.715  -2.077  -2.194  0.00  0.00    +0.281 A 
ATOM     13  O   UNL     1       8.086  -2.077  -3.392  0.00  0.00    -0.265 OA
ATOM     14  C   UNL     1      10.126  -2.020  -2.116  0.00  0.00    +0.068 A 
ATOM     15  C   UNL     1      10.933  -1.961  -3.258  0.00  0.00    +0.030 A 
ATOM     16  C   UNL     1      12.290  -1.907  -3.120  0.00  0.00    +0.019 A 
ATOM     17  C   UNL     1      12.881  -1.910  -1.858  0.00  0.00    +0.017 A 
ATOM     18  C   UNL     1      12.123  -1.967  -0.727  0.00  0.00    +0.029 A 
ATOM     19  C   UNL     1      10.726  -2.023  -0.832  0.00  0.00    +0.078 A 
ATOM     20  N   UNL     1       9.934  -2.074   0.249  0.00  0.00    -0.231 NA
ATOM     21 BR   UNL     1      13.382  -1.828  -4.662  0.00  0.00    -0.050 Br
ENDBRANCH   8  10
BRANCH   9  22
ATOM     22  N   UNL     1       6.946  -0.221   2.579  0.00  0.00    +0.391 N 
ATOM     23  H   UNL     1       6.848  -0.804   3.397  0.00  0.00    -0.087 HD
ATOM     24  H   UNL     1       7.865   0.195   2.571  0.00  0.00    -0.087 HD
ATOM     25  H   UNL     1       6.247   0.507   2.600  0.00  0.00    -0.087 HD
ENDBRANCH   9  22
BRANCH   6  26
ATOM     26  C   UNL     1       3.945  -6.282   1.352  0.00  0.00    +0.122 C 
ATOM     27  N   UNL     1       3.133  -7.077   1.352  0.00  0.00    -0.189 NA
ENDBRANCH   6  26
BRANCH   5  28
ATOM     28  C   UNL     1       6.686  -7.041   1.321  0.00  0.00    +0.122 C 
ATOM     29  N   UNL     1       6.975  -8.140   1.308  0.00  0.00    -0.189 NA
ENDBRANCH   5  28
BRANCH   1  30
ATOM     30  C   UNL     1       4.171  -0.963   1.399  0.00  0.00    +0.109 C 
BRANCH  30  31
ATOM     31  C   UNL     1       3.711  -0.707  -0.038  0.00  0.00    +0.054 C 
BRANCH  31  35
ATOM     32  C   UNL     1      -0.017   1.378   0.010  0.00  0.00    +0.000 A 
ATOM     33  C   UNL     1       1.171   2.086   0.002  0.00  0.00    +0.000 A 
ATOM     34  C   UNL     1       2.377   1.411  -0.013  0.00  0.00    +0.004 A 
ATOM     35  C   UNL     1       2.396   0.029  -0.020  0.00  0.00    -0.046 A 
ATOM     36  C   UNL     1       1.208  -0.679  -0.012  0.00  0.00    +0.004 A 
ATOM     37  C   UNL     1       0.002  -0.004   0.002  0.00  0.00    +0.000 A 
ENDBRANCH  31  35
ENDBRANCH  30  31
ENDBRANCH   1  30
TORSDOF 7
