REMARK  Name = ZINC09666284
REMARK  12 active torsions:
REMARK  status: ('A' for Active; 'I' for Inactive)
REMARK    1  A    between atoms: C_1  and  C_2
REMARK    2  A    between atoms: C_2  and  O_3
REMARK    3  A    between atoms: O_3  and  C_4
REMARK    4  A    between atoms: C_4  and  C_6
REMARK    5  A    between atoms: C_7  and  C_30
REMARK    6  A    between atoms: C_8  and  C_26
REMARK    7  A    between atoms: C_10  and  N_11
REMARK    8  A    between atoms: C_12  and  C_14
REMARK    9  A    between atoms: C_14  and  O_15
REMARK   10  A    between atoms: O_15  and  C_16
REMARK   11  A    between atoms: C_16  and  C_18
REMARK   12  A    between atoms: N_28  and  C_29
REMARK                            x       y       z     vdW  Elec       q    Type
REMARK                         _______ _______ _______ _____ _____    ______ ____
ROOT
ATOM      1  C   UNL     1       3.644   1.753  -0.023  0.00  0.00    +0.091 A 
ATOM      2  C   UNL     1       4.705   0.861  -0.038  0.00  0.00    -0.015 A 
ATOM      3  C   UNL     1       4.412  -0.476  -0.042  0.00  0.00    +0.079 A 
ATOM      4  S   UNL     1       2.630  -0.486  -0.018  0.00  0.00    -0.068 S 
ATOM      5  C   UNL     1       2.349   1.224  -0.014  0.00  0.00    +0.087 A 
ATOM      6  C   UNL     1       6.132   1.346  -0.049  0.00  0.00    +0.046 C 
ENDROOT
BRANCH   3   7
ATOM      7  C   UNL     1       5.334  -1.614  -0.056  0.00  0.00    +0.251 C 
ATOM      8  O   UNL     1       6.536  -1.423  -0.067  0.00  0.00    -0.270 OA
ATOM      9  N   UNL     1       4.850  -2.872  -0.058  0.00  0.00    -0.314 N 
ATOM     10  C   UNL     1       5.772  -4.011  -0.072  0.00  0.00    +0.128 C 
ATOM     11  H   UNL     1       3.892  -3.023  -0.050  0.00  0.00    +0.149 HD
ENDBRANCH   3   7
BRANCH   5  12
ATOM     12  N   UNL     1       1.143   1.898   0.001  0.00  0.00    -0.277 N 
ATOM     13  C   UNL     1      -0.014   1.208   0.009  0.00  0.00    +0.255 C 
ATOM     14  O   UNL     1       0.002  -0.004   0.002  0.00  0.00    -0.272 OA
ATOM     15  H   UNL     1       1.130   2.868   0.007  0.00  0.00    +0.155 HD
BRANCH  13  16
ATOM     16  C   UNL     1      -1.330   1.944   0.019  0.00  0.00    +0.328 C 
BRANCH  16  17
ATOM     17  O   UNL     1      -2.420   0.986   0.019  0.00  0.00    -0.452 OA
BRANCH  17  18
ATOM     18  C   UNL     1      -3.672   1.484   0.028  0.00  0.00    +0.341 C 
ATOM     19  O   UNL     1      -3.848   2.686   0.035  0.00  0.00    -0.245 OA
BRANCH  18  20
ATOM     20  C   UNL     1      -4.831   0.568   0.028  0.00  0.00    +0.079 A 
ATOM     21  C   UNL     1      -4.633  -0.814   0.020  0.00  0.00    +0.016 A 
ATOM     22  C   UNL     1      -5.719  -1.664   0.021  0.00  0.00    +0.002 A 
ATOM     23  C   UNL     1      -7.004  -1.151   0.030  0.00  0.00    +0.021 A 
ATOM     24  C   UNL     1      -7.210   0.217   0.038  0.00  0.00    +0.060 A 
ATOM     25  C   UNL     1      -6.130   1.081   0.043  0.00  0.00    +0.073 A 
ATOM     26 CL   UNL     1      -6.389   2.798   0.061  0.00  0.00    -0.081 Cl
ATOM     27 CL   UNL     1      -8.826   0.851   0.049  0.00  0.00    -0.082 Cl
ENDBRANCH  18  20
ENDBRANCH  17  18
ENDBRANCH  16  17
ENDBRANCH  13  16
ENDBRANCH   5  12
BRANCH   1  28
ATOM     28  C   UNL     1       3.871   3.203  -0.019  0.00  0.00    +0.342 C 
ATOM     29  O   UNL     1       3.975   3.798   1.036  0.00  0.00    -0.245 OA
BRANCH  28  30
ATOM     30  O   UNL     1       3.964   3.874  -1.184  0.00  0.00    -0.461 OA
BRANCH  30  32
ATOM     31  C   UNL     1       4.266   5.891  -2.515  0.00  0.00    +0.048 C 
ATOM     32  C   UNL     1       4.189   5.306  -1.104  0.00  0.00    +0.229 C 
ENDBRANCH  30  32
ENDBRANCH  28  30
ENDBRANCH   1  28
TORSDOF 9
