REMARK  Name = ZINC36740723
REMARK  11 active torsions:
REMARK  status: ('A' for Active; 'I' for Inactive)
REMARK    1  A    between atoms: C_1  and  C_2
REMARK    2  A    between atoms: C_2  and  C_3
REMARK    3  A    between atoms: C_3  and  C_4
REMARK    4  A    between atoms: C_3  and  C_5
REMARK    5  A    between atoms: C_3  and  C_6
REMARK    6  A    between atoms: C_13  and  N_17
REMARK    7  A    between atoms: C_14  and  C_15
REMARK    8  A    between atoms: C_18  and  C_20
REMARK    9  A    between atoms: C_20  and  N_21
REMARK   10  A    between atoms: C_24  and  C_28
REMARK   11  A    between atoms: C_24  and  C_29
REMARK                            x       y       z     vdW  Elec       q    Type
REMARK                         _______ _______ _______ _____ _____    ______ ____
ROOT
ATOM      1  N   UNL     1      -0.768  -7.882  -2.502  0.00  0.00    -0.278 N 
ATOM      2  C   UNL     1       0.197  -8.121  -3.413  0.00  0.00    +0.236 C 
ATOM      3  O   UNL     1       0.896  -7.212  -3.809  0.00  0.00    -0.274 OA
ATOM      4  H   UNL     1      -1.327  -8.608  -2.185  0.00  0.00    +0.155 HD
ENDROOT
BRANCH   1  11
ATOM      5  C   UNL     1      -1.413  -2.063   0.004  0.00  0.00    -0.000 C 
ATOM      6  C   UNL     1      -2.848  -2.596   0.009  0.00  0.00    +0.009 C 
ATOM      7  C   UNL     1      -2.843  -4.107   0.249  0.00  0.00    +0.037 C 
ATOM      8  C   UNL     1      -1.893  -4.755  -0.747  0.00  0.00    -0.018 A 
ATOM      9  C   UNL     1      -0.956  -4.031  -1.398  0.00  0.00    -0.004 A 
ATOM     10  S   UNL     1      -0.117  -5.201  -2.425  0.00  0.00    -0.077 S 
ATOM     11  C   UNL     1      -0.961  -6.595  -2.018  0.00  0.00    +0.090 A 
ATOM     12  C   UNL     1      -1.895  -6.167  -1.089  0.00  0.00    +0.084 A 
ATOM     13  C   UNL     1      -0.699  -2.561  -1.261  0.00  0.00    +0.047 C 
BRANCH   5  14
ATOM     14  C   UNL     1      -1.433  -0.534   0.013  0.00  0.00    -0.032 C 
ATOM     15  C   UNL     1      -2.149  -0.040   1.272  0.00  0.00    +0.011 C 
ATOM     16  C   UNL     1      -2.173  -0.027  -1.227  0.00  0.00    +0.011 C 
BRANCH  14  18
ATOM     17  C   UNL     1      -0.019   1.526   0.010  0.00  0.00    +0.004 C 
ATOM     18  C   UNL     1       0.002  -0.004   0.002  0.00  0.00    +0.003 C 
ENDBRANCH  14  18
ENDBRANCH   5  14
BRANCH  12  19
ATOM     19  C   UNL     1      -2.823  -7.078  -0.489  0.00  0.00    +0.102 C 
ATOM     20  N   UNL     1      -3.559  -7.801  -0.014  0.00  0.00    -0.191 NA
ENDBRANCH  12  19
ENDBRANCH   1  11
BRANCH   2  21
ATOM     21  C   UNL     1       0.407  -9.518  -3.938  0.00  0.00    +0.214 C 
BRANCH  21  22
ATOM     22  N   UNL     1       1.505  -9.514  -4.908  0.00  0.00    -0.215 N 
ATOM     23  C   UNL     1       1.347  -9.307  -6.230  0.00  0.00    +0.251 C 
ATOM     24  O   UNL     1       0.308  -9.097  -6.819  0.00  0.00    -0.272 OA
ATOM     25  C   UNL     1       2.737  -9.392  -6.828  0.00  0.00    +0.135 C 
ATOM     26  N   UNL     1       3.598  -9.662  -5.663  0.00  0.00    -0.281 N 
ATOM     27  C   UNL     1       2.789  -9.711  -4.590  0.00  0.00    +0.310 C 
ATOM     28  O   UNL     1       3.181  -9.914  -3.457  0.00  0.00    -0.252 OA
ATOM     29  C   UNL     1       2.821 -10.539  -7.837  0.00  0.00    +0.047 C 
ATOM     30  H   UNL     1       4.561  -9.779  -5.669  0.00  0.00    +0.152 HD
BRANCH  25  31
ATOM     31  C   UNL     1       3.116  -8.085  -7.476  0.00  0.00    -0.016 A 
ATOM     32  C   UNL     1       2.138  -7.272  -8.016  0.00  0.00    +0.006 A 
ATOM     33  C   UNL     1       2.486  -6.074  -8.611  0.00  0.00    +0.000 A 
ATOM     34  C   UNL     1       3.812  -5.688  -8.664  0.00  0.00    +0.000 A 
ATOM     35  C   UNL     1       4.790  -6.500  -8.122  0.00  0.00    +0.000 A 
ATOM     36  C   UNL     1       4.442  -7.697  -7.524  0.00  0.00    +0.006 A 
ENDBRANCH  25  31
ENDBRANCH  21  22
ENDBRANCH   2  21
TORSDOF 7
