REMARK  Name = ZINC06335246
REMARK  2 active torsions:
REMARK  status: ('A' for Active; 'I' for Inactive)
REMARK    1  A    between atoms: C_7  and  C_11
REMARK    2  A    between atoms: C_7  and  O_17
REMARK                            x       y       z     vdW  Elec       q    Type
REMARK                         _______ _______ _______ _____ _____    ______ ____
ROOT
ATOM      1  C   UNL     1      -0.455   3.875  -1.973  0.00  0.00    +0.047 A 
ATOM      2  C   UNL     1      -0.189   5.185  -2.339  0.00  0.00    +0.125 A 
ATOM      3  C   UNL     1      -0.309   6.198  -1.403  0.00  0.00    +0.055 A 
ATOM      4  C   UNL     1      -0.692   5.910  -0.108  0.00  0.00    +0.042 A 
ATOM      5  C   UNL     1      -0.960   4.594   0.266  0.00  0.00    +0.055 A 
ATOM      6  C   UNL     1      -0.837   3.586  -0.682  0.00  0.00    +0.023 A 
ATOM      7  C   UNL     1      -1.190   2.296   0.021  0.00  0.00    +0.202 C 
ATOM      8  C   UNL     1      -1.513   2.723   1.436  0.00  0.00    +0.259 C 
ATOM      9  O   UNL     1      -1.850   1.998   2.349  0.00  0.00    -0.272 OA
ATOM     10  N   UNL     1      -1.357   4.056   1.492  0.00  0.00    -0.281 N 
ATOM     11 BR   UNL     1      -0.852   7.303   1.161  0.00  0.00    -0.048 Br
ATOM     12  F   UNL     1       0.186   5.473  -3.605  0.00  0.00    -0.205 F 
ATOM     13  H   UNL     1      -1.502   4.585   2.293  0.00  0.00    +0.155 HD
ENDROOT
BRANCH   7  14
ATOM     14  C   UNL     1      -0.016   1.350   0.009  0.00  0.00    +0.056 A 
ATOM     15  C   UNL     1       0.002  -0.004   0.002  0.00  0.00    +0.128 A 
ATOM     16  N   UNL     1       1.171  -0.618  -0.012  0.00  0.00    -0.233 NA
ATOM     17  C   UNL     1       2.300   0.065  -0.020  0.00  0.00    +0.156 A 
ATOM     18  S   UNL     1       1.734   1.707  -0.005  0.00  0.00    -0.054 S 
ATOM     19  N   UNL     1       3.603  -0.408  -0.035  0.00  0.00    -0.338 N 
ATOM     20  H   UNL     1       3.772  -1.363  -0.041  0.00  0.00    +0.144 HD
ATOM     21  H   UNL     1       4.345   0.217  -0.039  0.00  0.00    +0.144 HD
ENDBRANCH   7  14
BRANCH   7  22
ATOM     22  O   UNL     1      -2.327   1.687  -0.594  0.00  0.00    -0.371 OA
ATOM     23  H   UNL     1      -2.616   0.869  -0.164  0.00  0.00    +0.212 HD
ENDBRANCH   7  22
TORSDOF 2
