REMARK  Name = ZINC13500588
REMARK  15 active torsions:
REMARK  status: ('A' for Active; 'I' for Inactive)
REMARK    1  A    between atoms: C_1  and  C_2
REMARK    2  A    between atoms: C_2  and  C_3
REMARK    3  A    between atoms: C_3  and  C_4
REMARK    4  A    between atoms: C_3  and  C_5
REMARK    5  A    between atoms: C_3  and  N_6
REMARK    6  A    between atoms: C_7  and  C_11
REMARK    7  A    between atoms: C_11  and  C_13
REMARK    8  A    between atoms: C_11  and  N_74
REMARK    9  A    between atoms: C_13  and  C_14
REMARK   10  A    between atoms: C_13  and  C_15
REMARK   11  A    between atoms: C_16  and  C_17
REMARK   12  A    between atoms: C_16  and  N_74
REMARK   13  A    between atoms: C_21  and  C_30
REMARK   14  A    between atoms: C_23  and  C_29
REMARK   15  A    between atoms: C_31  and  N_74
REMARK                            x       y       z     vdW  Elec       q    Type
REMARK                         _______ _______ _______ _____ _____    ______ ____
ROOT
ATOM      1  N   UNL     1      -1.994   8.235  -0.864  0.00  0.00    +0.391 N 
ATOM      2  H   UNL     1      -2.938   7.835  -0.902  0.00  0.00    -0.080 HD
ENDROOT
BRANCH   1   3
ATOM      3  C   UNL     1      -1.032   7.249  -1.401  0.00  0.00    -0.067 C 
ATOM      4  C   UNL     1      -1.568   5.827  -1.137  0.00  0.00    -0.015 C 
ATOM      5  C   UNL     1      -0.298   4.997  -0.819  0.00  0.00    -0.002 C 
ATOM      6  C   UNL     1       0.563   5.988   0.003  0.00  0.00    -0.002 C 
ATOM      7  C   UNL     1       0.322   7.352  -0.677  0.00  0.00    -0.015 C 
ENDBRANCH   1   3
BRANCH   1   8
ATOM      8  C   UNL     1      -1.961   9.468  -1.680  0.00  0.00    +0.006 C 
BRANCH   8  10
ATOM      9  N   UNL     1      -0.309  11.403  -1.857  0.00  0.00    -0.225 N 
ATOM     10  C   UNL     1      -0.601  10.112  -1.609  0.00  0.00    +0.139 A 
ATOM     11  N   UNL     1       0.529   9.524  -1.301  0.00  0.00    -0.115 NA
ATOM     12  N   UNL     1       1.465  10.408  -1.351  0.00  0.00    -0.023 NA
ATOM     13  N   UNL     1       0.961  11.545  -1.684  0.00  0.00    -0.043 NA
BRANCH   9  14
ATOM     14  C   UNL     1      -1.257  12.450  -2.246  0.00  0.00    +0.061 C 
ATOM     15  C   UNL     1      -2.687  11.941  -2.053  0.00  0.00    +0.036 C 
ATOM     16  C   UNL     1      -1.034  13.688  -1.376  0.00  0.00    +0.036 C 
BRANCH  14  18
ATOM     17  C   UNL     1      -2.030  13.907  -4.123  0.00  0.00    +0.006 C 
ATOM     18  C   UNL     1      -1.040  12.813  -3.716  0.00  0.00    +0.026 C 
ENDBRANCH  14  18
ENDBRANCH   9  14
ENDBRANCH   8  10
BRANCH   8  19
ATOM     19  C   UNL     1      -2.283   9.111  -3.133  0.00  0.00    -0.024 C 
ATOM     20  C   UNL     1      -0.980   8.970  -3.923  0.00  0.00    +0.006 C 
ATOM     21  C   UNL     1      -3.051   7.789  -3.175  0.00  0.00    +0.006 C 
ENDBRANCH   8  19
ENDBRANCH   1   8
BRANCH   1  22
ATOM     22  C   UNL     1      -1.662   8.551   0.541  0.00  0.00    -0.036 C 
BRANCH  22  23
ATOM     23  C   UNL     1      -2.875   9.157   1.199  0.00  0.00    +0.001 A 
ATOM     24  C   UNL     1      -3.782   8.357   1.812  0.00  0.00    +0.017 A 
ATOM     25  C   UNL     1      -4.949   8.978   2.442  0.00  0.00    -0.001 A 
ATOM     26  C   UNL     1      -5.918   8.204   3.089  0.00  0.00    +0.013 A 
ATOM     27  C   UNL     1      -6.996   8.814   3.666  0.00  0.00    -0.050 A 
ATOM     28  C   UNL     1      -7.138  10.194   3.616  0.00  0.00    +0.008 A 
ATOM     29  C   UNL     1      -6.198  10.975   2.979  0.00  0.00    -0.026 A 
ATOM     30  C   UNL     1      -5.089  10.377   2.389  0.00  0.00    +0.052 A 
ATOM     31  N   UNL     1      -4.131  11.134   1.749  0.00  0.00    -0.322 N 
ATOM     32  H   UNL     1      -4.230  12.099   1.713  0.00  0.00    +0.169 HD
ATOM     33  C   UNL     1      -3.063  10.556   1.174  0.00  0.00    +0.251 A 
ATOM     34  O   UNL     1      -2.235  11.257   0.617  0.00  0.00    -0.268 OA
ATOM     35  C   UNL     1      -6.368  12.472   2.926  0.00  0.00    +0.046 C 
ATOM     36  C   UNL     1      -8.040   7.981   4.364  0.00  0.00    +0.044 C 
ENDBRANCH  22  23
ENDBRANCH   1  22
TORSDOF 8
