REMARK  Name = ZINC53112669
REMARK  6 active torsions:
REMARK  status: ('A' for Active; 'I' for Inactive)
REMARK    1  A    between atoms: C_3  and  S_8
REMARK    2  A    between atoms: C_6  and  N_7
REMARK    3  A    between atoms: S_8  and  N_11
REMARK    4  A    between atoms: N_11  and  C_12
REMARK    5  A    between atoms: C_12  and  C_18
REMARK    6  A    between atoms: C_18  and  O_19
REMARK                            x       y       z     vdW  Elec       q    Type
REMARK                         _______ _______ _______ _____ _____    ______ ____
ROOT
ATOM      1  S   UNL     1       4.468   3.051   0.185  0.00  0.00    +0.059 S 
ATOM      2  O   UNL     1       5.696   2.492  -0.261  0.00  0.00    -0.153 OA
ATOM      3  O   UNL     1       4.082   4.384  -0.119  0.00  0.00    -0.153 OA
ENDROOT
BRANCH   1   6
ATOM      4  C   UNL     1       0.861   1.580  -0.796  0.00  0.00    +0.024 A 
ATOM      5  C   UNL     1       1.866   2.397  -0.317  0.00  0.00    +0.030 A 
ATOM      6  C   UNL     1       3.188   2.005  -0.425  0.00  0.00    +0.105 A 
ATOM      7  C   UNL     1       3.507   0.794  -1.012  0.00  0.00    +0.030 A 
ATOM      8  C   UNL     1       2.507  -0.028  -1.492  0.00  0.00    +0.024 A 
ATOM      9  C   UNL     1       1.178   0.363  -1.385  0.00  0.00    +0.025 A 
BRANCH   9  10
ATOM     10  N   UNL     1       0.164  -0.466  -1.869  0.00  0.00    -0.358 N 
ATOM     11  H   UNL     1      -0.764  -0.192  -1.794  0.00  0.00    +0.142 HD
ATOM     12  H   UNL     1       0.386  -1.316  -2.281  0.00  0.00    +0.142 HD
ENDBRANCH   9  10
ENDBRANCH   1   6
BRANCH   1  13
ATOM     13  N   UNL     1       4.460   2.921   1.836  0.00  0.00    -0.182 NA
ATOM     14  H   UNL     1       4.319   3.709   2.384  0.00  0.00    +0.149 HD
BRANCH  13  15
ATOM     15  C   UNL     1       4.667   1.616   2.469  0.00  0.00    +0.063 C 
ATOM     16  C   UNL     1       3.531   0.671   2.073  0.00  0.00    +0.026 C 
ATOM     17  C   UNL     1       2.196   1.257   2.535  0.00  0.00    +0.002 C 
ATOM     18  C   UNL     1       2.212   1.425   4.056  0.00  0.00    +0.000 C 
ATOM     19  C   UNL     1       3.348   2.370   4.453  0.00  0.00    +0.002 C 
ATOM     20  C   UNL     1       4.683   1.784   3.990  0.00  0.00    +0.026 C 
BRANCH  15  21
ATOM     21  C   UNL     1       6.003   1.031   2.006  0.00  0.00    +0.179 C 
BRANCH  21  22
ATOM     22  O   UNL     1       5.857   0.493   0.691  0.00  0.00    -0.393 OA
ATOM     23  H   UNL     1       6.666   0.104   0.333  0.00  0.00    +0.209 HD
ENDBRANCH  21  22
ENDBRANCH  15  21
ENDBRANCH  13  15
ENDBRANCH   1  13
TORSDOF 6
