REMARK  Name = ZINC36493235
REMARK  8 active torsions:
REMARK  status: ('A' for Active; 'I' for Inactive)
REMARK    1  A    between atoms: C_1  and  C_2
REMARK    2  A    between atoms: C_2  and  C_3
REMARK    3  A    between atoms: C_2  and  N_10
REMARK    4  A    between atoms: C_11  and  C_13
REMARK    5  A    between atoms: C_16  and  C_19
REMARK    6  A    between atoms: N_21  and  C_22
REMARK    7  A    between atoms: C_22  and  C_23
REMARK    8  A    between atoms: C_22  and  C_24
REMARK                            x       y       z     vdW  Elec       q    Type
REMARK                         _______ _______ _______ _____ _____    ______ ____
ROOT
ATOM      1  C   UNL     1       3.145  -0.628   3.395  0.00  0.00    +0.075 C 
ATOM      2  C   UNL     1       2.436  -1.979   3.507  0.00  0.00    +0.013 C 
ATOM      3  C   UNL     1       3.016  -2.762   4.686  0.00  0.00    +0.013 C 
ATOM      4  C   UNL     1       4.513  -2.989   4.462  0.00  0.00    +0.075 C 
ATOM      5  C   UNL     1       5.222  -1.638   4.349  0.00  0.00    +0.013 C 
ATOM      6  C   UNL     1       4.641  -0.854   3.170  0.00  0.00    +0.013 C 
ENDROOT
BRANCH   1   8
ATOM      7  N   UNL     1       1.264   0.461   2.214  0.00  0.00    -0.312 N 
ATOM      8  C   UNL     1       2.574   0.144   2.233  0.00  0.00    +0.216 C 
ATOM      9  O   UNL     1       3.292   0.480   1.316  0.00  0.00    -0.276 OA
ATOM     10  H   UNL     1       0.689   0.193   2.948  0.00  0.00    +0.149 HD
BRANCH   7  12
ATOM     11  C   UNL     1       0.917   2.709   1.316  0.00  0.00    +0.028 C 
ATOM     12  C   UNL     1       0.708   1.211   1.085  0.00  0.00    +0.073 C 
BRANCH  12  13
ATOM     13  C   UNL     1      -0.788   0.918   0.964  0.00  0.00    +0.012 C 
ATOM     14  C   UNL     1      -1.016  -0.530   0.472  0.00  0.00    +0.009 C 
ATOM     15  C   UNL     1      -1.774  -0.372  -0.881  0.00  0.00    -0.010 C 
ATOM     16  C   UNL     1      -0.711   0.215  -1.859  0.00  0.00    +0.004 C 
ATOM     17  C   UNL     1      -0.483   1.662  -1.366  0.00  0.00    +0.004 C 
ATOM     18  C   UNL     1      -1.431   1.814  -0.138  0.00  0.00    -0.006 C 
ATOM     19  C   UNL     1      -2.633   0.908  -0.584  0.00  0.00    +0.007 C 
ENDBRANCH  12  13
ENDBRANCH   7  12
ENDBRANCH   1   8
BRANCH   4  20
ATOM     20  C   UNL     1       5.084  -3.760   5.623  0.00  0.00    +0.216 C 
ATOM     21  O   UNL     1       4.365  -4.096   6.540  0.00  0.00    -0.276 OA
ATOM     22  N   UNL     1       6.394  -4.077   5.642  0.00  0.00    -0.312 N 
ATOM     23  H   UNL     1       6.969  -3.809   4.909  0.00  0.00    +0.149 HD
BRANCH  22  24
ATOM     24  C   UNL     1       6.950  -4.828   6.771  0.00  0.00    +0.073 C 
ATOM     25  C   UNL     1       7.318  -3.858   7.896  0.00  0.00    +0.028 C 
BRANCH  24  26
ATOM     26  C   UNL     1       8.201  -5.581   6.317  0.00  0.00    +0.012 C 
ATOM     27  C   UNL     1       7.818  -6.745   5.375  0.00  0.00    +0.009 C 
ATOM     28  C   UNL     1       8.314  -8.027   6.110  0.00  0.00    -0.010 C 
ATOM     29  C   UNL     1       7.353  -8.174   7.330  0.00  0.00    +0.004 C 
ATOM     30  C   UNL     1       7.737  -7.010   8.272  0.00  0.00    +0.004 C 
ATOM     31  C   UNL     1       8.893  -6.269   7.533  0.00  0.00    -0.006 C 
ATOM     32  C   UNL     1       9.601  -7.475   6.819  0.00  0.00    +0.007 C 
ENDBRANCH  24  26
ENDBRANCH  22  24
ENDBRANCH   4  20
TORSDOF 6
