REMARK  Name = ZINC63375224
REMARK  7 active torsions:
REMARK  status: ('A' for Active; 'I' for Inactive)
REMARK    1  A    between atoms: C_1  and  C_2
REMARK    2  A    between atoms: C_2  and  C_3
REMARK    3  A    between atoms: C_3  and  C_5
REMARK    4  A    between atoms: C_3  and  N_6
REMARK    5  A    between atoms: C_7  and  C_9
REMARK    6  A    between atoms: C_14  and  N_15
REMARK    7  A    between atoms: C_31  and  C_36
REMARK                            x       y       z     vdW  Elec       q    Type
REMARK                         _______ _______ _______ _____ _____    ______ ____
ROOT
ATOM      1  N   UNL     1       4.778   0.475   4.859  0.00  0.00    -0.192 N 
ATOM      2  C   UNL     1       4.753  -0.747   5.429  0.00  0.00    +0.248 C 
ATOM      3  O   UNL     1       5.289  -1.756   5.022  0.00  0.00    -0.273 OA
ATOM      4  C   UNL     1       3.917  -0.597   6.681  0.00  0.00    +0.169 C 
ATOM      5  C   UNL     1       2.711  -1.551   6.625  0.00  0.00    +0.065 C 
ATOM      6  C   UNL     1       1.659  -0.961   7.534  0.00  0.00    -0.034 C 
ATOM      7  C   UNL     1       1.000  -1.494   8.557  0.00  0.00    -0.001 A 
ATOM      8  C   UNL     1       0.985  -2.860   9.105  0.00  0.00    +0.010 A 
ATOM      9  C   UNL     1       0.196  -3.060  10.194  0.00  0.00    +0.001 A 
ATOM     10  C   UNL     1      -0.571  -2.050  10.784  0.00  0.00    +0.002 A 
ATOM     11  C   UNL     1      -0.624  -0.769  10.341  0.00  0.00    +0.026 A 
ATOM     12  C   UNL     1       0.160  -0.438   9.197  0.00  0.00    +0.043 A 
ATOM     13  N   UNL     1       0.281   0.688   8.559  0.00  0.00    -0.375 N 
ATOM     14  C   UNL     1       1.165   0.475   7.410  0.00  0.00    +0.131 C 
ATOM     15  C   UNL     1       2.403   1.381   7.475  0.00  0.00    +0.135 C 
ATOM     16  N   UNL     1       3.430   0.795   6.598  0.00  0.00    -0.264 N 
ATOM     17  C   UNL     1       4.049   1.360   5.553  0.00  0.00    +0.317 C 
ATOM     18  O   UNL     1       3.957   2.537   5.266  0.00  0.00    -0.252 OA
ATOM     19  H   UNL     1      -0.141   1.527   8.802  0.00  0.00    +0.160 HD
ENDROOT
BRANCH   1  25
ATOM     20  C   UNL     1       4.862   0.654   2.441  0.00  0.00    +0.059 A 
ATOM     21  C   UNL     1       5.574   0.970   1.282  0.00  0.00    +0.015 A 
ATOM     22  C   UNL     1       6.881   1.400   1.374  0.00  0.00    +0.001 A 
ATOM     23  C   UNL     1       7.492   1.520   2.611  0.00  0.00    +0.002 A 
ATOM     24  C   UNL     1       6.799   1.212   3.765  0.00  0.00    +0.025 A 
ATOM     25  C   UNL     1       5.482   0.783   3.692  0.00  0.00    +0.058 A 
BRANCH  20  27
ATOM     26  N   UNL     1       2.871   0.071   1.145  0.00  0.00    -0.309 N 
ATOM     27  C   UNL     1       3.463   0.193   2.350  0.00  0.00    +0.246 C 
ATOM     28  O   UNL     1       2.844  -0.076   3.361  0.00  0.00    -0.270 OA
ATOM     29  H   UNL     1       3.365   0.285   0.338  0.00  0.00    +0.149 HD
BRANCH  26  30
ATOM     30  C   UNL     1       1.482  -0.387   1.055  0.00  0.00    +0.070 C 
ATOM     31  C   UNL     1       1.447  -1.916   1.064  0.00  0.00    +0.028 C 
BRANCH  30  33
ATOM     32  C   UNL     1       0.780   1.657  -0.199  0.00  0.00    +0.005 C 
ATOM     33  C   UNL     1       0.859   0.130  -0.244  0.00  0.00    +0.018 C 
ENDBRANCH  30  33
ENDBRANCH  26  30
ENDBRANCH  20  27
ENDBRANCH   1  25
BRANCH  15  34
ATOM     34  C   UNL     1       2.051   2.768   7.004  0.00  0.00    -0.025 A 
ATOM     35  C   UNL     1       1.535   2.957   5.736  0.00  0.00    +0.005 A 
ATOM     36  C   UNL     1       1.212   4.230   5.303  0.00  0.00    +0.000 A 
ATOM     37  C   UNL     1       1.405   5.314   6.139  0.00  0.00    +0.000 A 
ATOM     38  C   UNL     1       1.921   5.125   7.408  0.00  0.00    +0.000 A 
ATOM     39  C   UNL     1       2.239   3.852   7.842  0.00  0.00    +0.005 A 
ENDBRANCH  15  34
TORSDOF 5
