REMARK  Name = ZINC39481229
REMARK  9 active torsions:
REMARK  status: ('A' for Active; 'I' for Inactive)
REMARK    1  A    between atoms: C_1  and  C_2
REMARK    2  A    between atoms: C_2  and  C_3
REMARK    3  A    between atoms: C_6  and  N_25
REMARK    4  A    between atoms: C_7  and  N_9
REMARK    5  A    between atoms: C_13  and  S_16
REMARK    6  A    between atoms: S_16  and  C_19
REMARK    7  A    between atoms: N_25  and  S_26
REMARK    8  A    between atoms: S_26  and  C_29
REMARK    9  A    between atoms: C_29  and  C_30
REMARK                            x       y       z     vdW  Elec       q    Type
REMARK                         _______ _______ _______ _____ _____    ______ ____
ROOT
ATOM      1  C   UNL     1      -1.639  -0.052  -0.317  0.00  0.00    -0.046 A 
ATOM      2  C   UNL     1      -2.146  -0.342   0.936  0.00  0.00    +0.005 A 
ATOM      3  C   UNL     1      -3.368  -0.977   1.062  0.00  0.00    +0.026 A 
ATOM      4  C   UNL     1      -4.088  -1.325  -0.070  0.00  0.00    +0.069 A 
ATOM      5  C   UNL     1      -3.577  -1.032  -1.334  0.00  0.00    +0.053 A 
ATOM      6  C   UNL     1      -2.353  -0.391  -1.451  0.00  0.00    +0.028 A 
ENDROOT
BRANCH   5   7
ATOM      7  N   UNL     1      -4.299  -1.382  -2.482  0.00  0.00    -0.324 N 
ATOM      8  C   UNL     1      -5.265  -0.447  -3.079  0.00  0.00    +0.120 C 
ATOM      9  C   UNL     1      -6.595  -1.182  -3.277  0.00  0.00    +0.101 C 
ATOM     10  N   UNL     1      -6.362  -2.411  -4.047  0.00  0.00    -0.292 NA
ATOM     11  C   UNL     1      -5.488  -3.339  -3.318  0.00  0.00    +0.220 C 
ATOM     12  C   UNL     1      -4.108  -2.690  -3.125  0.00  0.00    +0.147 C 
ATOM     13  H   UNL     1      -7.234  -2.854  -4.294  0.00  0.00    +0.124 HD
BRANCH  11  14
ATOM     14  S   UNL     1      -5.306  -4.873  -4.269  0.00  0.00    +0.014 S 
ATOM     15  O   UNL     1      -4.903  -4.580  -5.599  0.00  0.00    -0.168 OA
ATOM     16  O   UNL     1      -4.612  -5.846  -3.500  0.00  0.00    -0.168 OA
BRANCH  14  17
ATOM     17  C   UNL     1      -6.943  -5.506  -4.424  0.00  0.00    +0.090 A 
ATOM     18  C   UNL     1      -7.446  -6.364  -3.464  0.00  0.00    +0.027 A 
ATOM     19  C   UNL     1      -8.730  -6.861  -3.586  0.00  0.00    +0.002 A 
ATOM     20  C   UNL     1      -9.512  -6.499  -4.667  0.00  0.00    +0.000 A 
ATOM     21  C   UNL     1      -9.009  -5.641  -5.627  0.00  0.00    +0.002 A 
ATOM     22  C   UNL     1      -7.726  -5.141  -5.503  0.00  0.00    +0.027 A 
ENDBRANCH  14  17
ENDBRANCH  11  14
ENDBRANCH   5   7
BRANCH   1  24
ATOM     23  C   UNL     1      -0.519   2.156  -0.456  0.00  0.00    +0.009 C 
ATOM     24  C   UNL     1      -0.307   0.641  -0.447  0.00  0.00    +0.032 C 
ENDBRANCH   1  24
BRANCH   4  25
ATOM     25  N   UNL     1      -5.325  -1.970   0.055  0.00  0.00    -0.219 N 
ATOM     26  H   UNL     1      -5.590  -2.642  -0.592  0.00  0.00    +0.173 HD
BRANCH  25  27
ATOM     27  S   UNL     1      -6.336  -1.584   1.309  0.00  0.00    +0.047 S 
ATOM     28  O   UNL     1      -7.512  -2.347   1.074  0.00  0.00    -0.155 OA
ATOM     29  O   UNL     1      -5.558  -1.793   2.479  0.00  0.00    -0.155 OA
BRANCH  27  30
ATOM     30  C   UNL     1      -6.686   0.183   1.099  0.00  0.00    +0.223 C 
BRANCH  30  31
ATOM     31  C   UNL     1      -7.608   0.647   2.197  0.00  0.00    -0.025 A 
ATOM     32  C   UNL     1      -8.978   0.586   2.022  0.00  0.00    +0.005 A 
ATOM     33  C   UNL     1      -9.823   1.011   3.029  0.00  0.00    +0.000 A 
ATOM     34  C   UNL     1      -9.299   1.497   4.212  0.00  0.00    +0.000 A 
ATOM     35  C   UNL     1      -7.929   1.557   4.388  0.00  0.00    +0.000 A 
ATOM     36  C   UNL     1      -7.084   1.128   3.382  0.00  0.00    +0.005 A 
ENDBRANCH  30  31
ENDBRANCH  27  30
ENDBRANCH  25  27
ENDBRANCH   4  25
TORSDOF 8
