REMARK  Name = ZINC10109186
REMARK  8 active torsions:
REMARK  status: ('A' for Active; 'I' for Inactive)
REMARK    1  A    between atoms: C_1  and  C_2
REMARK    2  A    between atoms: C_2  and  C_4
REMARK    3  A    between atoms: C_4  and  N_5
REMARK    4  A    between atoms: N_16  and  C_17
REMARK    5  A    between atoms: C_20  and  N_23
REMARK    6  A    between atoms: N_23  and  C_24
REMARK    7  A    between atoms: N_23  and  C_25
REMARK    8  A    between atoms: N_26  and  C_29
REMARK                            x       y       z     vdW  Elec       q    Type
REMARK                         _______ _______ _______ _____ _____    ______ ____
ROOT
ATOM      1  N   UNL     1      -1.379  -0.906  -1.778  0.00  0.00    -0.255 N 
ATOM      2  C   UNL     1      -1.920   0.040  -2.571  0.00  0.00    +0.283 A 
ATOM      3  O   UNL     1      -1.268   1.018  -2.895  0.00  0.00    -0.265 OA
ATOM      4  C   UNL     1      -3.244  -0.111  -3.022  0.00  0.00    +0.153 A 
ATOM      5  C   UNL     1      -3.965  -1.239  -2.637  0.00  0.00    +0.170 A 
ATOM      6  N   UNL     1      -5.180  -1.153  -3.187  0.00  0.00    -0.196 NA
ATOM      7  C   UNL     1      -5.273  -0.050  -3.888  0.00  0.00    +0.205 A 
ATOM      8  N   UNL     1      -4.092   0.633  -3.819  0.00  0.00    -0.306 N 
ATOM      9  C   UNL     1      -3.841   1.910  -4.489  0.00  0.00    +0.127 C 
ATOM     10  C   UNL     1      -4.877   2.095  -5.605  0.00  0.00    +0.041 C 
ATOM     11  C   UNL     1      -6.283   1.828  -5.054  0.00  0.00    +0.115 C 
ATOM     12  N   UNL     1      -6.355   0.423  -4.610  0.00  0.00    -0.271 N 
ATOM     13  N   UNL     1      -3.353  -2.177  -1.822  0.00  0.00    -0.279 N 
ATOM     14  C   UNL     1      -2.082  -1.994  -1.417  0.00  0.00    +0.334 A 
ATOM     15  O   UNL     1      -1.560  -2.829  -0.704  0.00  0.00    -0.246 OA
ATOM     16  C   UNL     1      -4.088  -3.373  -1.402  0.00  0.00    +0.155 C 
ENDROOT
BRANCH  12  17
ATOM     17  C   UNL     1      -7.459  -0.388  -4.904  0.00  0.00    +0.037 A 
ATOM     18  C   UNL     1      -8.527   0.127  -5.626  0.00  0.00    +0.025 A 
ATOM     19  C   UNL     1      -9.612  -0.674  -5.920  0.00  0.00    +0.025 A 
ATOM     20  C   UNL     1      -9.640  -1.992  -5.484  0.00  0.00    +0.029 A 
ATOM     21  C   UNL     1      -8.575  -2.506  -4.757  0.00  0.00    +0.025 A 
ATOM     22  C   UNL     1      -7.487  -1.706  -4.467  0.00  0.00    +0.025 A 
BRANCH  20  23
ATOM     23  N   UNL     1     -10.743  -2.803  -5.778  0.00  0.00    -0.336 N 
ATOM     24  C   UNL     1     -10.773  -4.193  -5.317  0.00  0.00    +0.129 C 
ATOM     25  C   UNL     1     -11.867  -2.260  -6.545  0.00  0.00    +0.129 C 
ENDBRANCH  20  23
ENDBRANCH  12  17
BRANCH   1  26
ATOM     26  C   UNL     1      -0.000  -0.750  -1.307  0.00  0.00    +0.160 C 
BRANCH  26  28
ATOM     27  C   UNL     1      -0.018   1.503   0.010  0.00  0.00    +0.040 C 
ATOM     28  C   UNL     1       0.002  -0.004   0.002  0.00  0.00    -0.060 C 
ATOM     29  C   UNL     1       0.022  -0.665   1.133  0.00  0.00    +0.009 C 
ENDBRANCH  26  28
ENDBRANCH   1  26
TORSDOF 4
