REMARK  Name = ZINC20758169
REMARK  2 active torsions:
REMARK  status: ('A' for Active; 'I' for Inactive)
REMARK    1  A    between atoms: C_1  and  N_2
REMARK    2  A    between atoms: C_5  and  C_11
REMARK                            x       y       z     vdW  Elec       q    Type
REMARK                         _______ _______ _______ _____ _____    ______ ____
ROOT
ATOM      1  C   UNL     1      -2.574   1.261   0.017  0.00  0.00    +0.018 C 
ATOM      2  C   UNL     1      -1.139   1.734   0.016  0.00  0.00    +0.011 A 
ATOM      3  C   UNL     1      -0.796   3.038   0.027  0.00  0.00    -0.022 A 
ATOM      4  C   UNL     1       0.659   3.109   0.013  0.00  0.00    +0.003 A 
ATOM      5  C   UNL     1       1.588   4.151   0.010  0.00  0.00    +0.010 A 
ATOM      6  C   UNL     1       2.925   3.871  -0.004  0.00  0.00    +0.001 A 
ATOM      7  C   UNL     1       3.370   2.557  -0.016  0.00  0.00    +0.002 A 
ATOM      8  C   UNL     1       2.473   1.512  -0.014  0.00  0.00    +0.026 A 
ATOM      9  C   UNL     1       1.107   1.773   0.001  0.00  0.00    +0.047 A 
ATOM     10  N   UNL     1      -0.011   0.966   0.007  0.00  0.00    -0.359 N 
ATOM     11  H   UNL     1      -0.093  -0.131   0.006  0.00  0.00    +0.166 HD
ATOM     12  C   UNL     1      -1.795   4.167   0.046  0.00  0.00    +0.018 C 
ATOM     13  C   UNL     1      -3.159   3.584   0.434  0.00  0.00    -0.076 C 
ATOM     14  N   UNL     1      -3.435   2.389  -0.376  0.00  0.00    +0.388 N 
ATOM     15  H   UNL     1      -3.256   2.636  -1.433  0.00  0.00    -0.084 HD
ATOM     16  H   UNL     1      -4.490   2.110  -0.238  0.00  0.00    -0.084 HD
ENDROOT
BRANCH   1  21
ATOM     17  C   UNL     1      -2.517  -0.446  -4.643  0.00  0.00    +0.154 C 
ATOM     18  N   UNL     1      -2.705  -0.671  -3.207  0.00  0.00    -0.291 N 
ATOM     19  C   UNL     1      -2.555   0.353  -2.344  0.00  0.00    +0.260 A 
ATOM     20  O   UNL     1      -2.264   1.463  -2.754  0.00  0.00    -0.267 OA
ATOM     21  C   UNL     1      -2.736   0.131  -0.967  0.00  0.00    +0.073 A 
ATOM     22  C   UNL     1      -3.056  -1.122  -0.534  0.00  0.00    +0.258 A 
ATOM     23  N   UNL     1      -3.204  -2.134  -1.448  0.00  0.00    -0.302 N 
ATOM     24  C   UNL     1      -3.026  -1.899  -2.760  0.00  0.00    +0.163 A 
ATOM     25  S   UNL     1      -3.211  -3.182  -3.879  0.00  0.00    -0.013 S 
ATOM     26  O   UNL     1      -3.231  -1.363   0.783  0.00  0.00    -0.267 OA
ATOM     27  H   UNL     1      -3.471  -3.146  -1.109  0.00  0.00    +0.171 HD
ENDBRANCH   1  21
TORSDOF 1
