REMARK  Name = ZINC45469583
REMARK  8 active torsions:
REMARK  status: ('A' for Active; 'I' for Inactive)
REMARK    1  A    between atoms: C_1  and  C_2
REMARK    2  A    between atoms: C_2  and  C_4
REMARK    3  A    between atoms: C_2  and  N_18
REMARK    4  A    between atoms: C_7  and  C_9
REMARK    5  A    between atoms: C_12  and  N_15
REMARK    6  A    between atoms: N_18  and  C_19
REMARK    7  A    between atoms: N_18  and  C_20
REMARK    8  A    between atoms: C_20  and  C_21
REMARK                            x       y       z     vdW  Elec       q    Type
REMARK                         _______ _______ _______ _____ _____    ______ ____
ROOT
ATOM      1  C   UNL     1       0.707  -0.490  -1.238  0.00  0.00    +0.204 A 
ATOM      2  N   UNL     1       1.994  -0.476  -1.447  0.00  0.00    -0.114 NA
ATOM      3  N   UNL     1       2.247  -0.967  -2.609  0.00  0.00    -0.107 NA
ATOM      4  C   UNL     1       1.120  -1.312  -3.187  0.00  0.00    +0.248 A 
ATOM      5  O   UNL     1       0.124  -1.021  -2.326  0.00  0.00    -0.422 OA
ENDROOT
BRANCH   4   6
ATOM      6  C   UNL     1       0.971  -1.914  -4.529  0.00  0.00    +0.039 A 
ATOM      7  C   UNL     1      -0.297  -2.226  -5.020  0.00  0.00    +0.015 A 
ATOM      8  C   UNL     1      -0.429  -2.787  -6.274  0.00  0.00    +0.033 A 
ATOM      9  C   UNL     1       0.692  -3.041  -7.043  0.00  0.00    +0.126 A 
ATOM     10  C   UNL     1       1.952  -2.733  -6.562  0.00  0.00    +0.033 A 
ATOM     11  C   UNL     1       2.098  -2.166  -5.313  0.00  0.00    +0.015 A 
BRANCH   9  12
ATOM     12  N   UNL     1       0.543  -3.643  -8.387  0.00  0.00    +0.056 N 
ATOM     13  O   UNL     1      -0.557  -3.914  -8.810  0.00  0.00    -0.126 OA
ATOM     14  O   UNL     1       1.522  -3.866  -9.062  0.00  0.00    -0.126 OA
ENDBRANCH   9  12
ENDBRANCH   4   6
BRANCH   1  16
ATOM     15  C   UNL     1      -0.019   1.526   0.010  0.00  0.00    -0.004 C 
ATOM     16  C   UNL     1       0.002  -0.004   0.002  0.00  0.00    +0.018 C 
BRANCH  16  17
ATOM     17  N   UNL     1       0.713  -0.491   1.192  0.00  0.00    +0.388 N 
ATOM     18  C   UNL     1       0.025  -0.017   2.401  0.00  0.00    -0.095 C 
ATOM     19  H   UNL     1       1.659  -0.141   1.185  0.00  0.00    -0.081 HD
BRANCH  17  20
ATOM     20  C   UNL     1       0.733  -1.960   1.184  0.00  0.00    -0.042 C 
BRANCH  20  21
ATOM     21  C   UNL     1       1.565  -2.457   2.337  0.00  0.00    -0.064 A 
ATOM     22  C   UNL     1       2.922  -2.663   2.172  0.00  0.00    +0.003 A 
ATOM     23  C   UNL     1       3.687  -3.118   3.229  0.00  0.00    +0.015 A 
ATOM     24  C   UNL     1       3.093  -3.369   4.454  0.00  0.00    +0.018 A 
ATOM     25  C   UNL     1       1.736  -3.163   4.619  0.00  0.00    +0.015 A 
ATOM     26  C   UNL     1       0.973  -2.702   3.562  0.00  0.00    +0.003 A 
ATOM     27 BR   UNL     1       4.138  -3.993   5.901  0.00  0.00    -0.050 Br
ENDBRANCH  20  21
ENDBRANCH  17  20
ENDBRANCH  16  17
ENDBRANCH   1  16
TORSDOF 6
