REMARK  Name = ZINC24093678
REMARK  10 active torsions:
REMARK  status: ('A' for Active; 'I' for Inactive)
REMARK    1  A    between atoms: C_1  and  C_2
REMARK    2  A    between atoms: C_5  and  C_8
REMARK    3  A    between atoms: C_11  and  S_20
REMARK    4  A    between atoms: N_12  and  C_13
REMARK    5  A    between atoms: C_16  and  C_19
REMARK    6  A    between atoms: S_20  and  C_21
REMARK    7  A    between atoms: C_21  and  C_22
REMARK    8  A    between atoms: C_30  and  C_34
REMARK    9  A    between atoms: C_34  and  O_36
REMARK   10  A    between atoms: O_36  and  C_37
REMARK                            x       y       z     vdW  Elec       q    Type
REMARK                         _______ _______ _______ _____ _____    ______ ____
ROOT
ATOM      1  C   UNL     1       0.060  -4.251  -0.021  0.00  0.00    +0.169 A 
ATOM      2  N   UNL     1      -0.203  -5.029  -1.045  0.00  0.00    -0.128 NA
ATOM      3  N   UNL     1      -0.092  -6.262  -0.701  0.00  0.00    -0.122 NA
ATOM      4  C   UNL     1       0.249  -6.349   0.566  0.00  0.00    +0.197 A 
ATOM      5  N   UNL     1       0.363  -5.072   1.043  0.00  0.00    -0.270 N 
ENDROOT
BRANCH   1  10
ATOM      6  C   UNL     1      -0.018   1.503   0.010  0.00  0.00    +0.044 C 
ATOM      7  C   UNL     1       0.002  -0.004   0.002  0.00  0.00    -0.050 A 
ATOM      8  C   UNL     1       0.006  -0.686  -1.202  0.00  0.00    +0.004 A 
ATOM      9  C   UNL     1       0.024  -2.066  -1.216  0.00  0.00    +0.012 A 
ATOM     10  C   UNL     1       0.040  -2.773  -0.013  0.00  0.00    +0.020 A 
ATOM     11  C   UNL     1       0.037  -2.079   1.198  0.00  0.00    +0.012 A 
ATOM     12  C   UNL     1       0.023  -0.699   1.198  0.00  0.00    +0.004 A 
ENDBRANCH   1  10
BRANCH   5  13
ATOM     13  C   UNL     1       0.712  -4.681   2.343  0.00  0.00    +0.051 A 
ATOM     14  C   UNL     1       1.889  -3.978   2.565  0.00  0.00    +0.026 A 
ATOM     15  C   UNL     1       2.230  -3.594   3.847  0.00  0.00    +0.005 A 
ATOM     16  C   UNL     1       1.401  -3.908   4.909  0.00  0.00    -0.050 A 
ATOM     17  C   UNL     1       0.229  -4.609   4.690  0.00  0.00    +0.005 A 
ATOM     18  C   UNL     1      -0.121  -4.990   3.410  0.00  0.00    +0.026 A 
ATOM     19  C   UNL     1       1.777  -3.488   6.306  0.00  0.00    +0.044 C 
ENDBRANCH   5  13
BRANCH   4  20
ATOM     20  S   UNL     1       0.515  -7.833   1.477  0.00  0.00    -0.078 S 
BRANCH  20  21
ATOM     21  C   UNL     1       0.211  -9.151   0.269  0.00  0.00    +0.151 C 
BRANCH  21  22
ATOM     22  C   UNL     1       0.408 -10.492   0.927  0.00  0.00    +0.121 A 
ATOM     23  N   UNL     1       0.229 -11.611   0.178  0.00  0.00    -0.310 N 
ATOM     24  H   UNL     1      -0.019 -11.529  -0.756  0.00  0.00    +0.170 HD
ATOM     25  C   UNL     1       0.394 -12.839   0.722  0.00  0.00    +0.259 A 
ATOM     26  O   UNL     1       0.239 -13.849   0.061  0.00  0.00    -0.267 OA
ATOM     27  C   UNL     1       0.771 -12.905   2.144  0.00  0.00    +0.065 A 
ATOM     28  C   UNL     1       0.965 -14.121   2.797  0.00  0.00    +0.016 A 
ATOM     29  C   UNL     1       1.314 -14.137   4.117  0.00  0.00    +0.016 A 
ATOM     30  C   UNL     1       1.479 -12.939   4.824  0.00  0.00    +0.061 A 
ATOM     31  C   UNL     1       1.290 -11.716   4.192  0.00  0.00    +0.043 A 
ATOM     32  C   UNL     1       0.933 -11.689   2.842  0.00  0.00    +0.079 A 
ATOM     33  N   UNL     1       0.744 -10.519   2.181  0.00  0.00    -0.233 NA
BRANCH  30  34
ATOM     34  C   UNL     1       1.856 -12.976   6.254  0.00  0.00    +0.339 C 
ATOM     35  O   UNL     1       2.001 -11.941   6.871  0.00  0.00    -0.245 OA
BRANCH  34  36
ATOM     36  O   UNL     1       2.040 -14.159   6.871  0.00  0.00    -0.464 OA
ATOM     37  C   UNL     1       2.404 -14.121   8.253  0.00  0.00    +0.280 C 
ENDBRANCH  34  36
ENDBRANCH  30  34
ENDBRANCH  21  22
ENDBRANCH  20  21
ENDBRANCH   4  20
TORSDOF 7
