REMARK  Name = ZINC12408820
REMARK  7 active torsions:
REMARK  status: ('A' for Active; 'I' for Inactive)
REMARK    1  A    between atoms: C_1  and  N_2
REMARK    2  A    between atoms: C_4  and  C_18
REMARK    3  A    between atoms: C_5  and  C_10
REMARK    4  A    between atoms: C_13  and  O_16
REMARK    5  A    between atoms: O_16  and  C_17
REMARK    6  A    between atoms: N_23  and  N_24
REMARK    7  A    between atoms: C_25  and  C_26
REMARK                            x       y       z     vdW  Elec       q    Type
REMARK                         _______ _______ _______ _____ _____    ______ ____
ROOT
ATOM      1  C   UNL     1      -3.739  -8.841  -0.006  0.00  0.00    +0.139 C 
ATOM      2  N   UNL     1      -4.016  -7.403   0.004  0.00  0.00    -0.265 N 
ATOM      3  C   UNL     1      -2.944  -6.527  -0.003  0.00  0.00    +0.087 C 
ATOM      4  C   UNL     1      -3.134  -5.203   0.005  0.00  0.00    +0.017 C 
ATOM      5  C   UNL     1      -4.560  -4.692   0.028  0.00  0.00    +0.138 C 
ATOM      6  N   UNL     1      -5.635  -5.699   0.027  0.00  0.00    -0.288 N 
ATOM      7  C   UNL     1      -5.295  -7.003   0.018  0.00  0.00    +0.307 C 
ATOM      8  O   UNL     1      -6.175  -7.841   0.022  0.00  0.00    -0.252 OA
ATOM      9  H   UNL     1      -6.566  -5.429   0.037  0.00  0.00    +0.151 HD
ENDROOT
BRANCH   4  10
ATOM     10  C   UNL     1      -1.991  -4.269  -0.001  0.00  0.00    +0.080 A 
ATOM     11  C   UNL     1      -0.707  -4.746  -0.015  0.00  0.00    +0.076 A 
ATOM     12  S   UNL     1       0.217  -3.216  -0.017  0.00  0.00    -0.059 S 
ATOM     13  C   UNL     1      -1.183  -2.105   0.002  0.00  0.00    +0.178 A 
ATOM     14  N   UNL     1      -2.195  -2.954   0.013  0.00  0.00    -0.224 NA
ATOM     15  N   UNL     1      -1.202  -0.721   0.010  0.00  0.00    -0.215 N 
ATOM     16  H   UNL     1      -2.048  -0.247   0.020  0.00  0.00    +0.176 HD
BRANCH  15  17
ATOM     17  N   UNL     1       0.002  -0.004   0.002  0.00  0.00    -0.188 NA
ATOM     18  C   UNL     1      -0.015   1.294   0.009  0.00  0.00    +0.138 C 
BRANCH  18  19
ATOM     19  C   UNL     1       1.251   2.049   0.001  0.00  0.00    -0.005 A 
ATOM     20  C   UNL     1       2.472   1.369  -0.008  0.00  0.00    +0.012 A 
ATOM     21  C   UNL     1       3.653   2.081  -0.022  0.00  0.00    +0.039 A 
ATOM     22  C   UNL     1       3.631   3.466  -0.013  0.00  0.00    +0.123 A 
ATOM     23  C   UNL     1       2.423   4.146   0.002  0.00  0.00    +0.039 A 
ATOM     24  C   UNL     1       1.235   3.446   0.009  0.00  0.00    +0.012 A 
ATOM     25  F   UNL     1       4.792   4.158  -0.021  0.00  0.00    -0.205 F 
ENDBRANCH  18  19
ENDBRANCH  15  17
ENDBRANCH   4  10
BRANCH   5  26
ATOM     26  C   UNL     1      -4.725  -3.832   1.254  0.00  0.00    -0.022 A 
ATOM     27  C   UNL     1      -4.938  -4.422   2.487  0.00  0.00    +0.009 A 
ATOM     28  C   UNL     1      -5.083  -3.636   3.614  0.00  0.00    +0.046 A 
ATOM     29  C   UNL     1      -5.028  -2.254   3.506  0.00  0.00    +0.120 A 
ATOM     30  C   UNL     1      -4.820  -1.665   2.267  0.00  0.00    +0.046 A 
ATOM     31  C   UNL     1      -4.669  -2.455   1.144  0.00  0.00    +0.009 A 
BRANCH  29  32
ATOM     32  O   UNL     1      -5.177  -1.478   4.612  0.00  0.00    -0.495 OA
ATOM     33  C   UNL     1      -5.388  -2.153   5.854  0.00  0.00    +0.277 C 
ENDBRANCH  29  32
ENDBRANCH   5  26
TORSDOF 5
