REMARK  Name = ZINC39683991
REMARK  9 active torsions:
REMARK  status: ('A' for Active; 'I' for Inactive)
REMARK    1  A    between atoms: C_1  and  C_2
REMARK    2  A    between atoms: C_12  and  O_13
REMARK    3  A    between atoms: O_13  and  C_14
REMARK    4  A    between atoms: C_14  and  C_15
REMARK    5  A    between atoms: C_19  and  C_28
REMARK    6  A    between atoms: N_30  and  C_31
REMARK    7  A    between atoms: C_31  and  C_33
REMARK    8  A    between atoms: C_31  and  C_34
REMARK    9  A    between atoms: N_36  and  C_37
REMARK                            x       y       z     vdW  Elec       q    Type
REMARK                         _______ _______ _______ _____ _____    ______ ____
ROOT
ATOM      1  C   UNL     1       0.143  -6.576   3.309  0.00  0.00    +0.253 C 
ATOM      2  O   UNL     1       0.089  -7.038   2.189  0.00  0.00    -0.272 OA
ATOM      3  N   UNL     1       0.125  -7.398   4.378  0.00  0.00    -0.297 N 
ATOM      4  C   UNL     1       0.175  -7.025   5.811  0.00  0.00    +0.121 C 
ATOM      5  C   UNL     1      -0.808  -7.996   6.502  0.00  0.00    +0.100 C 
ATOM      6  C   UNL     1      -0.884  -9.211   5.562  0.00  0.00    -0.004 C 
ATOM      7  C   UNL     1       0.043  -8.878   4.385  0.00  0.00    +0.115 C 
ATOM      8  C   UNL     1      -2.313  -9.404   5.062  0.00  0.00    -0.010 C 
ATOM      9  C   UNL     1      -2.374 -10.651   4.175  0.00  0.00    -0.082 C 
ATOM     10  N   UNL     1      -1.942 -11.823   4.946  0.00  0.00    +0.379 N 
ATOM     11  C   UNL     1      -0.538 -11.671   5.344  0.00  0.00    -0.082 C 
ATOM     12  C   UNL     1      -0.398 -10.467   6.280  0.00  0.00    -0.010 C 
ATOM     13  H   UNL     1      -2.516 -11.912   5.770  0.00  0.00    -0.086 HD
ATOM     14  H   UNL     1      -2.042 -12.652   4.379  0.00  0.00    -0.086 HD
ENDROOT
BRANCH   5  15
ATOM     15  C   UNL     1      -0.278  -8.407   7.851  0.00  0.00    +0.219 C 
ATOM     16  O   UNL     1       0.918  -8.472   8.039  0.00  0.00    -0.275 OA
ATOM     17  N   UNL     1      -1.134  -8.701   8.850  0.00  0.00    -0.304 N 
ATOM     18  H   UNL     1      -2.091  -8.649   8.700  0.00  0.00    +0.149 HD
BRANCH  17  19
ATOM     19  C   UNL     1      -0.619  -9.100  10.162  0.00  0.00    +0.156 C 
ATOM     20  C   UNL     1      -0.312  -7.851  10.991  0.00  0.00    +0.038 C 
BRANCH  19  21
ATOM     21  C   UNL     1      -1.652  -9.934  10.875  0.00  0.00    +0.233 C 
ATOM     22  O   UNL     1      -2.714 -10.172  10.339  0.00  0.00    -0.274 OA
ATOM     23  N   UNL     1      -1.396 -10.416  12.107  0.00  0.00    -0.317 N 
ATOM     24  C   UNL     1      -2.401 -11.227  12.800  0.00  0.00    +0.128 C 
ATOM     25  H   UNL     1      -0.547 -10.226  12.536  0.00  0.00    +0.148 HD
ENDBRANCH  19  21
ENDBRANCH  17  19
ENDBRANCH   5  15
BRANCH   1  26
ATOM     26  C   UNL     1       0.230  -5.085   3.506  0.00  0.00    +0.324 C 
BRANCH  26  27
ATOM     27  O   UNL     1       0.234  -4.435   2.233  0.00  0.00    -0.479 OA
BRANCH  27  39
ATOM     28  C   UNL     1       0.484   1.254  -0.262  0.00  0.00    +0.045 C 
ATOM     29  C   UNL     1       0.402  -0.250  -0.230  0.00  0.00    -0.033 A 
ATOM     30  C   UNL     1       0.334  -0.970  -1.378  0.00  0.00    +0.096 A 
ATOM     31  C   UNL     1       0.258  -2.378  -1.320  0.00  0.00    +0.338 A 
ATOM     32  O   UNL     1       0.198  -3.013  -2.358  0.00  0.00    -0.245 OA
ATOM     33  O   UNL     1       0.251  -3.036  -0.151  0.00  0.00    -0.418 OA
ATOM     34  C   UNL     1       0.317  -2.379   1.028  0.00  0.00    +0.181 A 
ATOM     35  C   UNL     1       0.400  -0.977   1.044  0.00  0.00    +0.024 A 
ATOM     36  C   UNL     1       0.473  -0.294   2.263  0.00  0.00    +0.012 A 
ATOM     37  C   UNL     1       0.469  -1.003   3.443  0.00  0.00    +0.004 A 
ATOM     38  C   UNL     1       0.393  -2.388   3.430  0.00  0.00    +0.049 A 
ATOM     39  C   UNL     1       0.308  -3.078   2.234  0.00  0.00    +0.164 A 
ENDBRANCH  27  39
ENDBRANCH  26  27
ENDBRANCH   1  26
TORSDOF 6
