REMARK  Name = ZINC43764261
REMARK  16 active torsions:
REMARK  status: ('A' for Active; 'I' for Inactive)
REMARK    1  A    between atoms: C_1  and  C_2
REMARK    2  A    between atoms: C_2  and  C_4
REMARK    3  A    between atoms: C_2  and  C_10
REMARK    4  A    between atoms: C_4  and  C_5
REMARK    5  A    between atoms: C_5  and  C_6
REMARK    6  A    between atoms: C_6  and  C_7
REMARK    7  A    between atoms: C_7  and  C_8
REMARK    8  A    between atoms: C_7  and  C_9
REMARK    9  A    between atoms: C_16  and  C_43
REMARK   10  A    between atoms: C_24  and  O_39
REMARK   11  A    between atoms: C_26  and  O_38
REMARK   12  A    between atoms: C_27  and  C_37
REMARK   13  A    between atoms: C_31  and  N_33
REMARK   14  A    between atoms: C_34  and  C_36
REMARK   15  A    between atoms: O_39  and  C_40
REMARK   16  A    between atoms: C_40  and  C_42
REMARK                            x       y       z     vdW  Elec       q    Type
REMARK                         _______ _______ _______ _____ _____    ______ ____
ROOT
ATOM      1  C   UNL     1       0.187  -0.400  -0.865  0.00  0.00    -0.002 C 
ATOM      2  C   UNL     1       0.229  -1.913  -1.147  0.00  0.00    +0.004 C 
ATOM      3  C   UNL     1      -0.545  -2.137  -2.467  0.00  0.00    +0.004 C 
ATOM      4  C   UNL     1      -0.471  -0.766  -3.163  0.00  0.00    -0.001 C 
ATOM      5  C   UNL     1      -0.650   0.235  -2.007  0.00  0.00    -0.026 C 
ATOM      6  C   UNL     1      -2.104   0.252  -1.528  0.00  0.00    +0.007 C 
ATOM      7  C   UNL     1      -3.053   0.523  -2.692  0.00  0.00    +0.005 C 
ATOM      8  C   UNL     1      -2.921  -0.618  -3.707  0.00  0.00    +0.001 C 
ATOM      9  C   UNL     1      -1.509  -0.608  -4.248  0.00  0.00    -0.000 C 
ATOM     10  C   UNL     1      -1.374  -1.726  -5.285  0.00  0.00    +0.051 C 
ATOM     11  C   UNL     1      -2.379  -1.498  -6.415  0.00  0.00    +0.210 C 
ATOM     12  C   UNL     1      -3.798  -1.499  -5.844  0.00  0.00    +0.126 C 
ATOM     13  C   UNL     1      -3.927  -0.404  -4.840  0.00  0.00    +0.005 C 
ATOM     14  C   UNL     1      -5.348  -0.421  -4.272  0.00  0.00    +0.010 C 
ATOM     15  C   UNL     1      -5.613  -1.772  -3.603  0.00  0.00    +0.003 C 
ATOM     16  C   UNL     1      -5.462  -2.890  -4.636  0.00  0.00    +0.025 C 
ATOM     17  C   UNL     1      -4.079  -2.846  -5.177  0.00  0.00    +0.109 C 
ATOM     18  C   UNL     1      -3.662   0.947  -5.508  0.00  0.00    +0.014 C 
ATOM     19  C   UNL     1      -0.147   1.632  -2.378  0.00  0.00    +0.012 C 
ENDROOT
BRANCH  17  20
ATOM     20  N   UNL     1      -3.117  -3.065  -4.094  0.00  0.00    -0.310 N 
ATOM     21  C   UNL     1      -3.161  -4.203  -3.373  0.00  0.00    +0.210 C 
ATOM     22  O   UNL     1      -4.042  -5.013  -3.571  0.00  0.00    -0.276 OA
ATOM     23  C   UNL     1      -2.115  -4.470  -2.322  0.00  0.00    +0.109 C 
ATOM     24  H   UNL     1      -2.448  -2.391  -3.896  0.00  0.00    +0.149 HD
ENDBRANCH  17  20
BRANCH   1  26
ATOM     25  C   UNL     1      -0.503   1.370   0.758  0.00  0.00    +0.008 C 
ATOM     26  C   UNL     1      -0.481  -0.136   0.486  0.00  0.00    -0.010 C 
BRANCH  26  27
ATOM     27  C   UNL     1       0.305  -0.843   1.591  0.00  0.00    +0.003 C 
BRANCH  27  28
ATOM     28  C   UNL     1      -0.430  -0.683   2.923  0.00  0.00    +0.001 C 
BRANCH  28  29
ATOM     29  C   UNL     1       0.356  -1.390   4.029  0.00  0.00    +0.003 C 
BRANCH  29  30
ATOM     30  C   UNL     1      -0.380  -1.230   5.360  0.00  0.00    -0.017 C 
ATOM     31  C   UNL     1      -1.724  -1.958   5.291  0.00  0.00    +0.007 C 
ATOM     32  C   UNL     1       0.467  -1.829   6.486  0.00  0.00    +0.007 C 
ENDBRANCH  29  30
ENDBRANCH  28  29
ENDBRANCH  27  28
ENDBRANCH  26  27
ENDBRANCH   1  26
BRANCH  12  33
ATOM     33  O   UNL     1      -4.737  -1.285  -6.901  0.00  0.00    -0.383 OA
ATOM     34  H   UNL     1      -4.708  -1.958  -7.594  0.00  0.00    +0.210 HD
ENDBRANCH  12  33
BRANCH  11  35
ATOM     35  O   UNL     1      -2.254  -2.542  -7.382  0.00  0.00    -0.459 OA
BRANCH  35  36
ATOM     36  C   UNL     1      -1.387  -2.342  -8.387  0.00  0.00    +0.304 C 
ATOM     37  O   UNL     1      -0.755  -1.314  -8.444  0.00  0.00    -0.251 OA
ATOM     38  C   UNL     1      -1.201  -3.400  -9.444  0.00  0.00    +0.136 C 
ENDBRANCH  35  36
ENDBRANCH  11  35
TORSDOF 9
