REMARK  Name = ZINC00155810
REMARK  3 active torsions:
REMARK  status: ('A' for Active; 'I' for Inactive)
REMARK    1  A    between atoms: C_1  and  C_2
REMARK    2  A    between atoms: N_14  and  S_15
REMARK    3  A    between atoms: S_15  and  C_18
REMARK                            x       y       z     vdW  Elec       q    Type
REMARK                         _______ _______ _______ _____ _____    ______ ____
ROOT
ATOM      1  C   UNL     1      -0.019   1.526   0.010  0.00  0.00    +0.030 C 
ATOM      2  C   UNL     1       0.002  -0.004   0.002  0.00  0.00    +0.104 C 
ATOM      3  C   UNL     1       0.715  -0.496  -1.259  0.00  0.00    +0.120 C 
ATOM      4  C   UNL     1       1.096  -1.944  -1.107  0.00  0.00    +0.219 C 
ATOM      5  O   UNL     1       0.458  -2.799  -1.684  0.00  0.00    -0.275 OA
ATOM      6  N   UNL     1       2.145  -2.297  -0.332  0.00  0.00    -0.284 N 
ATOM      7  C   UNL     1       2.830  -1.333   0.417  0.00  0.00    +0.056 A 
ATOM      8  C   UNL     1       4.212  -1.255   0.380  0.00  0.00    +0.025 A 
ATOM      9  C   UNL     1       4.869  -0.309   1.146  0.00  0.00    +0.002 A 
ATOM     10  C   UNL     1       4.151   0.558   1.949  0.00  0.00    +0.002 A 
ATOM     11  C   UNL     1       2.770   0.492   1.985  0.00  0.00    +0.026 A 
ATOM     12  C   UNL     1       2.104  -0.445   1.212  0.00  0.00    +0.073 A 
ATOM     13  N   UNL     1       0.707  -0.487   1.191  0.00  0.00    -0.198 N 
ATOM     14  H   UNL     1       2.425  -3.225  -0.293  0.00  0.00    +0.155 HD
ENDROOT
BRANCH  13  15
ATOM     15  S   UNL     1      -0.135  -1.074   2.490  0.00  0.00    +0.081 S 
ATOM     16  O   UNL     1       0.711  -0.929   3.622  0.00  0.00    -0.149 OA
ATOM     17  O   UNL     1      -1.432  -0.496   2.429  0.00  0.00    -0.149 OA
BRANCH  15  18
ATOM     18  C   UNL     1      -0.344  -2.805   2.236  0.00  0.00    +0.146 A 
ATOM     19  C   UNL     1       0.458  -3.828   2.623  0.00  0.00    +0.036 A 
ATOM     20  C   UNL     1       0.089  -5.123   2.312  0.00  0.00    +0.010 A 
ATOM     21  C   UNL     1      -1.062  -5.333   1.629  0.00  0.00    +0.047 A 
ATOM     22  S   UNL     1      -1.671  -3.669   1.411  0.00  0.00    -0.077 S 
ENDBRANCH  15  18
ENDBRANCH  13  15
TORSDOF 2
