REMARK  Name = ZINC23540998
REMARK  7 active torsions:
REMARK  status: ('A' for Active; 'I' for Inactive)
REMARK    1  A    between atoms: C_1  and  C_2
REMARK    2  A    between atoms: C_3  and  C_17
REMARK    3  A    between atoms: C_5  and  C_7
REMARK    4  A    between atoms: C_17  and  N_18
REMARK    5  A    between atoms: N_18  and  C_19
REMARK    6  A    between atoms: N_18  and  C_20
REMARK    7  A    between atoms: C_20  and  C_21
REMARK                            x       y       z     vdW  Elec       q    Type
REMARK                         _______ _______ _______ _____ _____    ______ ____
ROOT
ATOM      1  C   UNL     1      -0.018   1.503   0.010  0.00  0.00    +0.088 C 
ATOM      2  C   UNL     1       0.002  -0.004   0.002  0.00  0.00    +0.124 A 
ATOM      3  C   UNL     1      -1.070  -0.816   0.003  0.00  0.00    +0.066 A 
ATOM      4  N   UNL     1      -0.627  -2.083  -0.007  0.00  0.00    -0.216 NA
ATOM      5  C   UNL     1       0.686  -2.068  -0.014  0.00  0.00    +0.229 A 
ATOM      6  O   UNL     1       1.099  -0.788  -0.013  0.00  0.00    -0.440 OA
ENDROOT
BRANCH   5   7
ATOM      7  C   UNL     1       1.562  -3.257  -0.024  0.00  0.00    +0.059 A 
ATOM      8  C   UNL     1       2.950  -3.104  -0.024  0.00  0.00    +0.064 A 
ATOM      9  C   UNL     1       3.767  -4.219  -0.034  0.00  0.00    +0.167 A 
ATOM     10  C   UNL     1       3.204  -5.495  -0.043  0.00  0.00    +0.168 A 
ATOM     11  C   UNL     1       1.825  -5.647  -0.043  0.00  0.00    +0.070 A 
ATOM     12  C   UNL     1       1.004  -4.538  -0.028  0.00  0.00    +0.057 A 
ATOM     13 CL   UNL     1      -0.721  -4.734  -0.021  0.00  0.00    -0.083 Cl
ATOM     14  O   UNL     1       4.213  -6.415  -0.051  0.00  0.00    -0.453 OA
ATOM     15  C   UNL     1       5.389  -5.693  -0.460  0.00  0.00    +0.466 C 
ATOM     16  O   UNL     1       5.127  -4.342  -0.036  0.00  0.00    -0.453 OA
ENDBRANCH   5   7
BRANCH   3  17
ATOM     17  C   UNL     1      -2.513  -0.381   0.013  0.00  0.00    -0.019 C 
BRANCH  17  18
ATOM     18  N   UNL     1      -2.989  -0.230  -1.369  0.00  0.00    +0.386 N 
ATOM     19  C   UNL     1      -2.258   0.864  -2.022  0.00  0.00    -0.095 C 
ATOM     20  H   UNL     1      -2.832  -1.089  -1.874  0.00  0.00    -0.081 HD
BRANCH  18  21
ATOM     21  C   UNL     1      -4.425   0.077  -1.361  0.00  0.00    -0.003 C 
BRANCH  21  22
ATOM     22  C   UNL     1      -4.940   0.110  -2.777  0.00  0.00    +0.091 A 
ATOM     23  N   UNL     1      -5.532  -0.935  -3.416  0.00  0.00    -0.343 N 
ATOM     24  H   UNL     1      -5.694  -1.817  -3.047  0.00  0.00    +0.167 HD
ATOM     25  C   UNL     1      -5.858  -0.508  -4.687  0.00  0.00    +0.069 A 
ATOM     26  C   UNL     1      -6.467  -1.107  -5.782  0.00  0.00    +0.066 A 
ATOM     27  C   UNL     1      -6.652  -0.383  -6.942  0.00  0.00    +0.125 A 
ATOM     28  C   UNL     1      -6.232   0.940  -7.020  0.00  0.00    +0.040 A 
ATOM     29  C   UNL     1      -5.631   1.544  -5.953  0.00  0.00    +0.032 A 
ATOM     30  C   UNL     1      -5.434   0.829  -4.768  0.00  0.00    +0.089 A 
ATOM     31  N   UNL     1      -4.888   1.144  -3.565  0.00  0.00    -0.234 NA
ATOM     32  F   UNL     1      -7.244  -0.963  -8.009  0.00  0.00    -0.205 F 
ENDBRANCH  21  22
ENDBRANCH  18  21
ENDBRANCH  17  18
ENDBRANCH   3  17
TORSDOF 5
