REMARK  Name = ZINC06767730
REMARK  6 active torsions:
REMARK  status: ('A' for Active; 'I' for Inactive)
REMARK    1  A    between atoms: C_1  and  C_2
REMARK    2  A    between atoms: C_4  and  C_22
REMARK    3  A    between atoms: N_8  and  C_9
REMARK    4  A    between atoms: C_9  and  C_11
REMARK    5  A    between atoms: C_11  and  C_12
REMARK    6  A    between atoms: C_17  and  N_18
REMARK                            x       y       z     vdW  Elec       q    Type
REMARK                         _______ _______ _______ _____ _____    ______ ____
ROOT
ATOM      1  C   UNL     1       1.115   5.869   0.023  0.00  0.00    +0.242 C 
ATOM      2  O   UNL     1       2.207   5.334  -0.038  0.00  0.00    -0.273 OA
ENDROOT
BRANCH   1  10
ATOM      3  C   UNL     1      -3.010   1.884   1.972  0.00  0.00    +0.044 C 
ATOM      4  C   UNL     1      -1.713   2.651   1.949  0.00  0.00    -0.046 A 
ATOM      5  C   UNL     1      -0.757   2.451   2.950  0.00  0.00    +0.024 A 
ATOM      6  C   UNL     1       0.411   3.139   2.922  0.00  0.00    +0.015 A 
ATOM      7  N   UNL     1       0.666   4.029   1.932  0.00  0.00    -0.346 N 
ATOM      8  H   UNL     1       1.507   4.513   1.926  0.00  0.00    +0.167 HD
ATOM      9  C   UNL     1      -0.248   4.250   0.946  0.00  0.00    +0.124 A 
ATOM     10  N   UNL     1       0.015   5.134  -0.029  0.00  0.00    -0.163 NA
ATOM     11  C   UNL     1      -1.463   3.553   0.952  0.00  0.00    +0.047 A 
ATOM     12  C   UNL     1       1.437   2.912   4.003  0.00  0.00    +0.063 C 
ENDBRANCH   1  10
BRANCH   1  13
ATOM     13  C   UNL     1       1.016   7.366   0.157  0.00  0.00    +0.135 C 
BRANCH  13  14
ATOM     14  C   UNL     1       2.401   7.960   0.192  0.00  0.00    -0.008 A 
ATOM     15  C   UNL     1       2.914   8.584  -0.930  0.00  0.00    +0.006 A 
ATOM     16  C   UNL     1       4.184   9.129  -0.897  0.00  0.00    +0.000 A 
ATOM     17  C   UNL     1       4.940   9.051   0.258  0.00  0.00    +0.002 A 
ATOM     18  C   UNL     1       4.427   8.428   1.380  0.00  0.00    +0.033 A 
ATOM     19  C   UNL     1       3.155   7.887   1.349  0.00  0.00    +0.130 A 
BRANCH  19  20
ATOM     20  N   UNL     1       2.602   7.225   2.552  0.00  0.00    +0.057 N 
ATOM     21  O   UNL     1       3.301   7.071   3.537  0.00  0.00    -0.126 OA
ATOM     22  O   UNL     1       1.448   6.834   2.556  0.00  0.00    -0.126 OA
ENDBRANCH  19  20
ENDBRANCH  13  14
ENDBRANCH   1  13
TORSDOF 4
