REMARK  Name = ZINC58864374
REMARK  5 active torsions:
REMARK  status: ('A' for Active; 'I' for Inactive)
REMARK    1  A    between atoms: C_3  and  C_6
REMARK    2  A    between atoms: C_6  and  C_8
REMARK    3  A    between atoms: C_6  and  N_24
REMARK    4  A    between atoms: C_8  and  N_9
REMARK    5  A    between atoms: N_12  and  C_13
REMARK                            x       y       z     vdW  Elec       q    Type
REMARK                         _______ _______ _______ _____ _____    ______ ____
ROOT
ATOM      1  N   UNL     1       5.880   2.187   0.949  0.00  0.00    -0.300 N 
ATOM      2  C   UNL     1       6.745   2.169   1.982  0.00  0.00    +0.304 C 
ATOM      3  O   UNL     1       6.356   1.872   3.095  0.00  0.00    -0.253 OA
ATOM      4  N   UNL     1       8.041   2.479   1.781  0.00  0.00    -0.268 N 
ATOM      5  H   UNL     1       6.189   2.424   0.060  0.00  0.00    +0.150 HD
ATOM      6  H   UNL     1       8.366   2.646   0.882  0.00  0.00    +0.156 HD
ENDROOT
BRANCH   4   7
ATOM      7  C   UNL     1       8.919   2.559   2.870  0.00  0.00    +0.052 A 
ATOM      8  C   UNL     1       8.756   1.713   3.958  0.00  0.00    +0.073 A 
ATOM      9  C   UNL     1       9.625   1.793   5.035  0.00  0.00    +0.164 A 
ATOM     10  C   UNL     1      10.661   2.720   5.023  0.00  0.00    +0.163 A 
ATOM     11  C   UNL     1      10.821   3.565   3.935  0.00  0.00    +0.066 A 
ATOM     12  C   UNL     1       9.957   3.482   2.859  0.00  0.00    +0.043 A 
ATOM     13 BR   UNL     1      10.184   4.631   1.375  0.00  0.00    -0.048 Br
ATOM     14  O   UNL     1      11.529   2.807   6.069  0.00  0.00    -0.485 OA
ATOM     15  C   UNL     1      11.117   2.204   7.300  0.00  0.00    +0.270 C 
ATOM     16  C   UNL     1      10.559   0.808   6.988  0.00  0.00    +0.270 C 
ATOM     17  O   UNL     1       9.449   0.959   6.096  0.00  0.00    -0.485 OA
ENDBRANCH   4   7
BRANCH   1  18
ATOM     18  C   UNL     1       4.471   1.850   1.167  0.00  0.00    +0.095 C 
BRANCH  18  19
ATOM     19  C   UNL     1       3.737   1.828  -0.175  0.00  0.00    -0.013 C 
BRANCH  19  20
ATOM     20  N   UNL     1       2.357   1.369   0.028  0.00  0.00    +0.386 N 
ATOM     21  C   UNL     1       1.686   1.167  -1.282  0.00  0.00    -0.078 C 
ATOM     22  C   UNL     1       0.530   0.192  -0.941  0.00  0.00    -0.020 C 
ATOM     23  C   UNL     1       1.168  -0.747   0.109  0.00  0.00    -0.020 C 
ATOM     24  C   UNL     1       2.352   0.047   0.692  0.00  0.00    -0.078 C 
ATOM     25  H   UNL     1       1.845   2.039   0.583  0.00  0.00    -0.081 HD
ENDBRANCH  19  20
BRANCH  19  28
ATOM     26  C   UNL     1       4.323   5.053  -2.115  0.00  0.00    +0.008 A 
ATOM     27  C   UNL     1       4.519   3.741  -1.728  0.00  0.00    +0.009 A 
ATOM     28  C   UNL     1       3.724   3.215  -0.764  0.00  0.00    -0.022 A 
ATOM     29  S   UNL     1       2.657   4.592  -0.373  0.00  0.00    -0.103 S 
ATOM     30  C   UNL     1       3.342   5.775  -1.521  0.00  0.00    +0.045 A 
ENDBRANCH  19  28
ENDBRANCH  18  19
ENDBRANCH   1  18
TORSDOF 5
