REMARK  Name = ZINC49014065
REMARK  5 active torsions:
REMARK  status: ('A' for Active; 'I' for Inactive)
REMARK    1  A    between atoms: C_1  and  C_2
REMARK    2  A    between atoms: C_7  and  N_10
REMARK    3  A    between atoms: N_10  and  C_11
REMARK    4  A    between atoms: N_10  and  C_12
REMARK    5  A    between atoms: C_12  and  C_13
REMARK                            x       y       z     vdW  Elec       q    Type
REMARK                         _______ _______ _______ _____ _____    ______ ____
ROOT
ATOM      1  C   UNL     1      -0.019   1.526   0.010  0.00  0.00    +0.007 C 
ATOM      2  C   UNL     1       0.002  -0.004   0.002  0.00  0.00    -0.016 C 
ATOM      3  C   UNL     1      -1.433  -0.534   0.013  0.00  0.00    +0.003 C 
ATOM      4  C   UNL     1      -2.149  -0.040   1.272  0.00  0.00    -0.001 C 
ATOM      5  C   UNL     1      -1.409  -0.547   2.511  0.00  0.00    -0.015 C 
ATOM      6  C   UNL     1       0.026  -0.018   2.500  0.00  0.00    -0.069 C 
ATOM      7  C   UNL     1       0.742  -0.511   1.242  0.00  0.00    -0.012 C 
ENDROOT
BRANCH   6   8
ATOM      8  N   UNL     1       0.736  -0.504   3.691  0.00  0.00    +0.380 N 
ATOM      9  C   UNL     1       2.115   0.004   3.680  0.00  0.00    -0.096 C 
ATOM     10  H   UNL     1       0.750  -1.513   3.685  0.00  0.00    -0.082 HD
BRANCH   8  11
ATOM     11  C   UNL     1       0.049  -0.030   4.899  0.00  0.00    -0.063 C 
BRANCH  11  12
ATOM     12  C   UNL     1       0.714  -0.638   6.136  0.00  0.00    +0.090 C 
ATOM     13 CL   UNL     1      -0.130  -0.057   7.619  0.00  0.00    -0.127 Cl
ENDBRANCH  11  12
ENDBRANCH   8  11
ENDBRANCH   6   8
TORSDOF 3
