REMARK  Name = ZINC35378806
REMARK  5 active torsions:
REMARK  status: ('A' for Active; 'I' for Inactive)
REMARK    1  A    between atoms: C_1  and  C_2
REMARK    2  A    between atoms: C_7  and  S_8
REMARK    3  A    between atoms: S_8  and  N_11
REMARK    4  A    between atoms: C_15  and  C_18
REMARK    5  A    between atoms: N_23  and  C_26
REMARK                            x       y       z     vdW  Elec       q    Type
REMARK                         _______ _______ _______ _____ _____    ______ ____
ROOT
ATOM      1  N   UNL     1       1.607   1.137   2.611  0.00  0.00    -0.176 NA
ATOM      2  C   UNL     1       2.929   0.575   2.920  0.00  0.00    +0.109 C 
ATOM      3  C   UNL     1       3.861   0.824   1.731  0.00  0.00    +0.018 C 
ATOM      4  C   UNL     1       3.875   2.319   1.403  0.00  0.00    +0.015 C 
ATOM      5  C   UNL     1       2.465   2.770   1.014  0.00  0.00    +0.091 C 
ATOM      6  C   UNL     1       1.517   2.541   2.189  0.00  0.00    +0.122 C 
ENDROOT
BRANCH   5   7
ATOM      7  C   UNL     1       2.486   4.234   0.659  0.00  0.00    +0.220 C 
ATOM      8  O   UNL     1       2.197   5.065   1.494  0.00  0.00    -0.275 OA
ATOM      9  N   UNL     1       2.824   4.621  -0.587  0.00  0.00    -0.305 N 
ATOM     10  C   UNL     1       3.076   3.630  -1.645  0.00  0.00    +0.089 C 
ATOM     11  C   UNL     1       4.418   3.958  -2.308  0.00  0.00    -0.059 C 
ATOM     12  N   UNL     1       4.405   5.350  -2.773  0.00  0.00    +0.384 N 
ATOM     13  C   UNL     1       4.299   6.260  -1.626  0.00  0.00    -0.059 C 
ATOM     14  C   UNL     1       2.946   6.046  -0.930  0.00  0.00    +0.089 C 
ATOM     15  H   UNL     1       3.617   5.492  -3.387  0.00  0.00    -0.081 HD
BRANCH  12  16
ATOM     16  C   UNL     1       5.647   5.631  -3.506  0.00  0.00    -0.068 C 
ATOM     17  C   UNL     1       5.754   4.691  -4.708  0.00  0.00    -0.015 C 
ATOM     18  C   UNL     1       7.048   4.984  -5.471  0.00  0.00    -0.002 C 
ATOM     19  C   UNL     1       7.037   6.435  -5.957  0.00  0.00    -0.000 C 
ATOM     20  C   UNL     1       6.930   7.374  -4.754  0.00  0.00    -0.002 C 
ATOM     21  C   UNL     1       5.636   7.082  -3.991  0.00  0.00    -0.015 C 
ENDBRANCH  12  16
ENDBRANCH   5   7
BRANCH   1  22
ATOM     22  S   UNL     1       0.245   0.202   2.727  0.00  0.00    +0.061 S 
ATOM     23  O   UNL     1      -0.855   1.097   2.821  0.00  0.00    -0.153 OA
ATOM     24  O   UNL     1       0.512  -0.783   3.716  0.00  0.00    -0.153 OA
BRANCH  22  31
ATOM     25  C   UNL     1      -0.476   1.535   0.116  0.00  0.00    +0.046 C 
ATOM     26  C   UNL     1      -0.265   0.044   0.052  0.00  0.00    -0.022 A 
ATOM     27  C   UNL     1      -0.400  -0.621  -1.154  0.00  0.00    +0.032 A 
ATOM     28  C   UNL     1      -0.206  -1.990  -1.210  0.00  0.00    +0.076 A 
ATOM     29  C   UNL     1       0.124  -2.696  -0.053  0.00  0.00    +0.144 A 
ATOM     30  C   UNL     1       0.258  -2.024   1.149  0.00  0.00    +0.076 A 
ATOM     31  C   UNL     1       0.068  -0.654   1.198  0.00  0.00    +0.112 A 
ATOM     32  O   UNL     1       0.308  -4.041  -0.120  0.00  0.00    -0.481 OA
ATOM     33  C   UNL     1      -0.485  -4.753  -1.074  0.00  0.00    +0.325 C 
ATOM     34  C   UNL     1      -0.457  -4.029  -2.396  0.00  0.00    +0.255 C 
ATOM     35  O   UNL     1      -0.542  -4.652  -3.433  0.00  0.00    -0.272 OA
ATOM     36  N   UNL     1      -0.338  -2.684  -2.422  0.00  0.00    -0.280 N 
ATOM     37  H   UNL     1      -0.343  -2.205  -3.265  0.00  0.00    +0.155 HD
ENDBRANCH  22  31
ENDBRANCH   1  22
TORSDOF 4
