REMARK  Name = ZINC36607813
REMARK  11 active torsions:
REMARK  status: ('A' for Active; 'I' for Inactive)
REMARK    1  A    between atoms: C_1  and  C_2
REMARK    2  A    between atoms: C_2  and  C_3
REMARK    3  A    between atoms: C_2  and  C_4
REMARK    4  A    between atoms: C_2  and  N_5
REMARK    5  A    between atoms: C_6  and  C_8
REMARK    6  A    between atoms: C_8  and  C_10
REMARK    7  A    between atoms: C_8  and  N_17
REMARK    8  A    between atoms: N_17  and  C_18
REMARK    9  A    between atoms: C_24  and  C_26
REMARK   10  A    between atoms: C_28  and  N_35
REMARK   11  A    between atoms: C_30  and  N_32
REMARK                            x       y       z     vdW  Elec       q    Type
REMARK                         _______ _______ _______ _____ _____    ______ ____
ROOT
ATOM      1  N   UNL     1       3.246   0.365  -4.325  0.00  0.00    -0.251 N 
ATOM      2  C   UNL     1       3.442   1.625  -3.886  0.00  0.00    +0.252 C 
ATOM      3  O   UNL     1       4.453   2.226  -4.194  0.00  0.00    -0.270 OA
ENDROOT
BRANCH   1   4
ATOM      4  C   UNL     1       4.157  -0.215  -5.213  0.00  0.00    +0.038 A 
ATOM      5  C   UNL     1       3.861  -0.281  -6.568  0.00  0.00    +0.023 A 
ATOM      6  C   UNL     1       4.763  -0.855  -7.443  0.00  0.00    +0.002 A 
ATOM      7  C   UNL     1       5.959  -1.364  -6.971  0.00  0.00    +0.000 A 
ATOM      8  C   UNL     1       6.257  -1.299  -5.622  0.00  0.00    +0.002 A 
ATOM      9  C   UNL     1       5.362  -0.721  -4.742  0.00  0.00    +0.023 A 
ENDBRANCH   1   4
BRANCH   2  10
ATOM     10  C   UNL     1       2.428   2.275  -3.029  0.00  0.00    +0.042 A 
ATOM     11  C   UNL     1       1.927   1.611  -1.908  0.00  0.00    +0.046 A 
ATOM     12  C   UNL     1       0.981   2.224  -1.113  0.00  0.00    +0.129 A 
ATOM     13  C   UNL     1       0.528   3.493  -1.425  0.00  0.00    +0.065 A 
ATOM     14  C   UNL     1       1.020   4.157  -2.535  0.00  0.00    +0.129 A 
ATOM     15  C   UNL     1       1.970   3.558  -3.335  0.00  0.00    +0.046 A 
BRANCH  14  16
ATOM     16  N   UNL     1       0.529   5.515  -2.861  0.00  0.00    +0.057 N 
ATOM     17  O   UNL     1      -0.301   6.043  -2.158  0.00  0.00    -0.126 OA
ATOM     18  O   UNL     1       0.958   6.096  -3.830  0.00  0.00    -0.126 OA
ENDBRANCH  14  16
BRANCH  12  19
ATOM     19  N   UNL     1       0.450   1.521   0.077  0.00  0.00    +0.057 N 
ATOM     20  O   UNL     1       0.864   0.423   0.365  0.00  0.00    -0.126 OA
ATOM     21  O   UNL     1      -0.399   2.046   0.760  0.00  0.00    -0.126 OA
ENDBRANCH  12  19
ENDBRANCH   2  10
BRANCH   1  22
ATOM     22  C   UNL     1       2.079  -0.395  -3.871  0.00  0.00    +0.197 C 
BRANCH  22  23
ATOM     23  C   UNL     1       1.244  -0.791  -5.061  0.00  0.00    -0.018 A 
ATOM     24  C   UNL     1       1.527  -1.958  -5.747  0.00  0.00    +0.007 A 
ATOM     25  C   UNL     1       0.761  -2.321  -6.838  0.00  0.00    +0.020 A 
ATOM     26  C   UNL     1      -0.288  -1.517  -7.245  0.00  0.00    +0.041 A 
ATOM     27  C   UNL     1      -0.571  -0.350  -6.559  0.00  0.00    +0.020 A 
ATOM     28  C   UNL     1       0.192   0.010  -5.464  0.00  0.00    +0.007 A 
ATOM     29 CL   UNL     1      -1.250  -1.973  -8.617  0.00  0.00    -0.084 Cl
ENDBRANCH  22  23
BRANCH  22  31
ATOM     30  N   UNL     1       1.631  -2.491  -2.636  0.00  0.00    -0.309 N 
ATOM     31  C   UNL     1       2.538  -1.634  -3.145  0.00  0.00    +0.239 C 
ATOM     32  O   UNL     1       3.723  -1.859  -3.019  0.00  0.00    -0.273 OA
ATOM     33  H   UNL     1       0.684  -2.311  -2.737  0.00  0.00    +0.149 HD
BRANCH  30  35
ATOM     34  C   UNL     1       2.925  -3.293  -0.722  0.00  0.00    +0.031 C 
ATOM     35  C   UNL     1       2.078  -3.695  -1.931  0.00  0.00    +0.026 C 
ATOM     36  C   UNL     1       2.914  -4.560  -2.876  0.00  0.00    +0.031 C 
ATOM     37  C   UNL     1       0.859  -4.489  -1.457  0.00  0.00    +0.031 C 
ENDBRANCH  30  35
ENDBRANCH  22  31
ENDBRANCH   1  22
TORSDOF 8
