REMARK  Name = ZINC16436035
REMARK  15 active torsions:
REMARK  status: ('A' for Active; 'I' for Inactive)
REMARK    1  A    between atoms: C_1  and  C_2
REMARK    2  A    between atoms: C_5  and  N_8
REMARK    3  A    between atoms: C_9  and  N_17
REMARK    4  A    between atoms: C_11  and  C_13
REMARK    5  A    between atoms: C_13  and  C_14
REMARK    6  A    between atoms: C_13  and  C_15
REMARK    7  A    between atoms: C_13  and  C_16
REMARK    8  A    between atoms: C_18  and  C_20
REMARK    9  A    between atoms: C_20  and  N_21
REMARK   10  A    between atoms: N_21  and  C_22
REMARK   11  A    between atoms: C_22  and  C_23
REMARK   12  A    between atoms: C_23  and  C_24
REMARK   13  A    between atoms: C_24  and  O_25
REMARK   14  A    between atoms: O_25  and  C_26
REMARK   15  A    between atoms: C_27  and  C_29
REMARK                            x       y       z     vdW  Elec       q    Type
REMARK                         _______ _______ _______ _____ _____    ______ ____
ROOT
ATOM      1  N   UNL     1      -0.347   3.941   0.528  0.00  0.00    -0.269 N 
ATOM      2  C   UNL     1      -1.041   2.786   0.496  0.00  0.00    +0.236 C 
ATOM      3  O   UNL     1      -0.561   1.776   0.966  0.00  0.00    -0.274 OA
ATOM      4  H   UNL     1      -0.731   4.748   0.153  0.00  0.00    +0.156 HD
ENDROOT
BRANCH   1   6
ATOM      5  N   UNL     1       1.735   5.063   1.198  0.00  0.00    -0.218 N 
ATOM      6  C   UNL     1       0.924   3.974   1.102  0.00  0.00    +0.129 A 
ATOM      7  C   UNL     1       1.582   2.924   1.663  0.00  0.00    +0.069 A 
ATOM      8  C   UNL     1       2.821   3.386   2.116  0.00  0.00    +0.071 A 
ATOM      9  N   UNL     1       2.913   4.662   1.842  0.00  0.00    -0.169 NA
BRANCH   5  14
ATOM     10  C   UNL     1       0.554  10.291  -0.668  0.00  0.00    +0.044 C 
ATOM     11  C   UNL     1       0.868   8.902  -0.173  0.00  0.00    -0.050 A 
ATOM     12  C   UNL     1       1.606   8.733   0.984  0.00  0.00    +0.005 A 
ATOM     13  C   UNL     1       1.895   7.462   1.441  0.00  0.00    +0.028 A 
ATOM     14  C   UNL     1       1.444   6.354   0.737  0.00  0.00    +0.067 A 
ATOM     15  C   UNL     1       0.708   6.527  -0.427  0.00  0.00    +0.028 A 
ATOM     16  C   UNL     1       0.417   7.800  -0.876  0.00  0.00    +0.005 A 
ENDBRANCH   5  14
BRANCH   8  17
ATOM     17  C   UNL     1       3.874   2.555   2.803  0.00  0.00    +0.006 C 
ATOM     18  C   UNL     1       4.576   1.668   1.772  0.00  0.00    +0.017 C 
ATOM     19  C   UNL     1       4.900   3.477   3.465  0.00  0.00    +0.017 C 
ATOM     20  C   UNL     1       3.215   1.676   3.868  0.00  0.00    +0.017 C 
ENDBRANCH   8  17
ENDBRANCH   1   6
BRANCH   2  21
ATOM     21  C   UNL     1      -2.412   2.748  -0.129  0.00  0.00    +0.204 C 
BRANCH  21  22
ATOM     22  N   UNL     1      -2.950   1.388  -0.045  0.00  0.00    -0.289 N 
ATOM     23  C   UNL     1      -3.004   0.615  -1.148  0.00  0.00    +0.247 C 
ATOM     24  O   UNL     1      -3.504  -0.492  -1.090  0.00  0.00    -0.270 OA
BRANCH  23  25
ATOM     25  C   UNL     1      -2.456   1.113  -2.427  0.00  0.00    +0.038 A 
ATOM     26  C   UNL     1      -1.415   2.043  -2.428  0.00  0.00    +0.014 A 
ATOM     27  C   UNL     1      -0.904   2.501  -3.624  0.00  0.00    +0.022 A 
ATOM     28  C   UNL     1      -1.428   2.048  -4.823  0.00  0.00    +0.059 A 
ATOM     29  C   UNL     1      -2.466   1.129  -4.829  0.00  0.00    +0.060 A 
ATOM     30  C   UNL     1      -2.981   0.660  -3.638  0.00  0.00    +0.034 A 
ATOM     31 CL   UNL     1      -3.117   0.566  -6.337  0.00  0.00    -0.082 Cl
ATOM     32 CL   UNL     1      -0.784   2.634  -6.325  0.00  0.00    -0.082 Cl
ENDBRANCH  23  25
BRANCH  22  33
ATOM     33  C   UNL     1      -3.428   0.868   1.238  0.00  0.00    +0.111 C 
BRANCH  33  34
ATOM     34  C   UNL     1      -4.939   1.085   1.345  0.00  0.00    +0.047 C 
BRANCH  34  35
ATOM     35  C   UNL     1      -5.439   0.541   2.685  0.00  0.00    +0.161 C 
BRANCH  35  36
ATOM     36  O   UNL     1      -6.850   0.744   2.785  0.00  0.00    -0.383 OA
ATOM     37  C   UNL     1      -7.421   0.269   4.006  0.00  0.00    +0.193 C 
ENDBRANCH  35  36
ENDBRANCH  34  35
ENDBRANCH  33  34
ENDBRANCH  22  33
ENDBRANCH  21  22
ENDBRANCH   2  21
TORSDOF 10
