REMARK  Name = ZINC13134436
REMARK  8 active torsions:
REMARK  status: ('A' for Active; 'I' for Inactive)
REMARK    1  A    between atoms: N_9  and  C_25
REMARK    2  A    between atoms: C_10  and  S_12
REMARK    3  A    between atoms: S_12  and  C_13
REMARK    4  A    between atoms: C_13  and  C_14
REMARK    5  A    between atoms: N_16  and  C_17
REMARK    6  A    between atoms: C_18  and  C_22
REMARK    7  A    between atoms: C_25  and  C_26
REMARK    8  A    between atoms: C_26  and  C_27
REMARK                            x       y       z     vdW  Elec       q    Type
REMARK                         _______ _______ _______ _____ _____    ______ ____
ROOT
ATOM      1  C   UNL     1       2.381   1.422  -0.013  0.00  0.00    +0.001 A 
ATOM      2  C   UNL     1       1.161   2.086   0.002  0.00  0.00    +0.002 A 
ATOM      3  C   UNL     1      -0.017   1.394   0.010  0.00  0.00    +0.028 A 
ATOM      4  C   UNL     1       0.002  -0.004   0.002  0.00  0.00    +0.079 A 
ATOM      5  C   UNL     1       1.245  -0.677  -0.013  0.00  0.00    +0.065 A 
ATOM      6  C   UNL     1       2.432   0.055  -0.021  0.00  0.00    +0.015 A 
ATOM      7  C   UNL     1       1.239  -2.146  -0.021  0.00  0.00    +0.262 A 
ATOM      8  O   UNL     1       2.277  -2.782  -0.034  0.00  0.00    -0.267 OA
ATOM      9  N   UNL     1       0.036  -2.766  -0.012  0.00  0.00    -0.287 N 
ATOM     10  C   UNL     1      -1.119  -2.036   0.003  0.00  0.00    +0.173 A 
ATOM     11  N   UNL     1      -1.136  -0.726   0.009  0.00  0.00    -0.223 NA
ENDROOT
BRANCH  10  12
ATOM     12  S   UNL     1      -2.656  -2.897   0.014  0.00  0.00    -0.078 S 
BRANCH  12  13
ATOM     13  C   UNL     1      -3.801  -1.496   0.033  0.00  0.00    +0.173 C 
BRANCH  13  14
ATOM     14  C   UNL     1      -5.219  -2.005   0.045  0.00  0.00    +0.228 C 
ATOM     15  O   UNL     1      -5.434  -3.199   0.041  0.00  0.00    -0.275 OA
ATOM     16  N   UNL     1      -6.248  -1.135   0.060  0.00  0.00    -0.279 N 
ATOM     17  H   UNL     1      -6.076  -0.180   0.063  0.00  0.00    +0.155 HD
BRANCH  16  18
ATOM     18  C   UNL     1      -7.553  -1.604   0.070  0.00  0.00    +0.084 A 
ATOM     19  C   UNL     1      -8.733  -0.872   0.092  0.00  0.00    +0.065 A 
ATOM     20  C   UNL     1      -9.965  -1.625   0.095  0.00  0.00    +0.022 A 
ATOM     21  C   UNL     1      -9.864  -2.966   0.088  0.00  0.00    +0.048 A 
ATOM     22  S   UNL     1      -8.106  -3.245   0.068  0.00  0.00    -0.081 S 
BRANCH  19  23
ATOM     23  C   UNL     1      -8.729   0.595   0.106  0.00  0.00    +0.244 C 
ATOM     24  O   UNL     1      -7.673   1.200   0.100  0.00  0.00    -0.270 OA
ATOM     25  N   UNL     1      -9.893   1.272   0.127  0.00  0.00    -0.325 N 
ATOM     26  H   UNL     1     -10.735   0.790   0.132  0.00  0.00    +0.145 HD
ATOM     27  H   UNL     1      -9.890   2.242   0.136  0.00  0.00    +0.145 HD
ENDBRANCH  19  23
ENDBRANCH  16  18
ENDBRANCH  13  14
ENDBRANCH  12  13
ENDBRANCH  10  12
BRANCH   9  28
ATOM     28  C   UNL     1      -0.028  -4.229  -0.019  0.00  0.00    +0.131 C 
BRANCH  28  29
ATOM     29  C   UNL     1      -0.037  -4.746   1.421  0.00  0.00    +0.052 C 
BRANCH  29  30
ATOM     30  C   UNL     1      -0.103  -6.252   1.414  0.00  0.00    -0.072 C 
ATOM     31  C   UNL     1       1.009  -6.909   1.500  0.00  0.00    -0.028 C 
ATOM     32  C   UNL     1       1.104  -8.406   1.496  0.00  0.00    +0.027 C 
ATOM     33  C   UNL     1      -0.263  -9.021   1.804  0.00  0.00    +0.004 C 
ATOM     34  C   UNL     1      -1.308  -8.362   0.895  0.00  0.00    +0.005 C 
ATOM     35  C   UNL     1      -1.454  -6.896   1.315  0.00  0.00    +0.030 C 
ENDBRANCH  29  30
ENDBRANCH  28  29
ENDBRANCH   9  28
TORSDOF 8
