REMARK  Name = ZINC34791840
REMARK  12 active torsions:
REMARK  status: ('A' for Active; 'I' for Inactive)
REMARK    1  A    between atoms: C_1  and  C_2
REMARK    2  A    between atoms: C_2  and  N_3
REMARK    3  A    between atoms: C_6  and  C_11
REMARK    4  A    between atoms: C_16  and  C_17
REMARK    5  A    between atoms: N_23  and  C_25
REMARK    6  A    between atoms: C_25  and  C_27
REMARK    7  A    between atoms: C_25  and  C_34
REMARK    8  A    between atoms: C_27  and  C_28
REMARK    9  A    between atoms: N_36  and  C_37
REMARK   10  A    between atoms: C_37  and  C_38
REMARK   11  A    between atoms: C_37  and  C_39
REMARK   12  A    between atoms: C_37  and  C_40
REMARK                            x       y       z     vdW  Elec       q    Type
REMARK                         _______ _______ _______ _____ _____    ______ ____
ROOT
ATOM      1  N   UNL     1       1.971  -0.629   0.706  0.00  0.00    -0.257 N 
ATOM      2  C   UNL     1       3.213  -1.074   1.059  0.00  0.00    +0.042 C 
ATOM      3  C   UNL     1       3.477  -1.488   2.315  0.00  0.00    +0.058 C 
ATOM      4  C   UNL     1       2.346  -1.442   3.323  0.00  0.00    +0.142 C 
ATOM      5  N   UNL     1       1.045  -0.947   2.844  0.00  0.00    -0.288 N 
ATOM      6  C   UNL     1       0.939  -0.563   1.556  0.00  0.00    +0.307 C 
ATOM      7  O   UNL     1      -0.130  -0.149   1.153  0.00  0.00    -0.252 OA
ATOM      8  C   UNL     1       4.822  -1.896   2.425  0.00  0.00    +0.247 C 
ATOM      9  O   UNL     1       5.332  -2.317   3.447  0.00  0.00    -0.270 OA
ATOM     10  N   UNL     1       5.468  -1.761   1.252  0.00  0.00    -0.280 N 
ATOM     11  C   UNL     1       4.502  -1.226   0.281  0.00  0.00    +0.160 C 
ATOM     12  H   UNL     1       0.283  -0.894   3.442  0.00  0.00    +0.151 HD
ENDROOT
BRANCH   4  13
ATOM     13  C   UNL     1       2.782  -0.568   4.471  0.00  0.00    -0.011 A 
ATOM     14  C   UNL     1       2.870   0.801   4.302  0.00  0.00    +0.006 A 
ATOM     15  C   UNL     1       3.270   1.603   5.354  0.00  0.00    +0.000 A 
ATOM     16  C   UNL     1       3.581   1.036   6.576  0.00  0.00    +0.001 A 
ATOM     17  C   UNL     1       3.492  -0.333   6.745  0.00  0.00    +0.013 A 
ATOM     18  C   UNL     1       3.088  -1.134   5.694  0.00  0.00    +0.060 A 
BRANCH  18  19
ATOM     19  C   UNL     1       2.986  -2.626   5.880  0.00  0.00    +0.418 C 
ATOM     20  F   UNL     1       3.407  -2.965   7.170  0.00  0.00    -0.166 F 
ATOM     21  F   UNL     1       1.658  -3.029   5.702  0.00  0.00    -0.166 F 
ATOM     22  F   UNL     1       3.798  -3.270   4.940  0.00  0.00    -0.166 F 
ENDBRANCH  18  19
ENDBRANCH   4  13
BRANCH   1  24
ATOM     23  C   UNL     1       2.068   1.299  -0.796  0.00  0.00    +0.025 C 
ATOM     24  C   UNL     1       1.758  -0.195  -0.677  0.00  0.00    +0.111 C 
ENDBRANCH   1  24
BRANCH  10  25
ATOM     25  C   UNL     1       6.872  -2.086   0.992  0.00  0.00    +0.167 C 
BRANCH  25  26
ATOM     26  C   UNL     1       7.755  -1.256   1.889  0.00  0.00    +0.234 C 
ATOM     27  O   UNL     1       7.259  -0.470   2.668  0.00  0.00    -0.274 OA
ATOM     28  N   UNL     1       9.095  -1.386   1.824  0.00  0.00    -0.309 N 
ATOM     29  H   UNL     1       9.491  -2.014   1.200  0.00  0.00    +0.149 HD
BRANCH  28  30
ATOM     30  C   UNL     1       9.952  -0.579   2.695  0.00  0.00    +0.026 C 
ATOM     31  C   UNL     1       9.621  -0.882   4.158  0.00  0.00    +0.031 C 
ATOM     32  C   UNL     1      11.419  -0.918   2.423  0.00  0.00    +0.031 C 
ATOM     33  C   UNL     1       9.711   0.905   2.415  0.00  0.00    +0.031 C 
ENDBRANCH  28  30
ENDBRANCH  25  26
BRANCH  25  34
ATOM     34  C   UNL     1       7.113  -3.570   1.272  0.00  0.00    +0.067 C 
BRANCH  34  35
ATOM     35  C   UNL     1       6.324  -4.401   0.293  0.00  0.00    -0.045 A 
ATOM     36  C   UNL     1       5.031  -4.785   0.598  0.00  0.00    +0.004 A 
ATOM     37  C   UNL     1       4.307  -5.547  -0.300  0.00  0.00    +0.000 A 
ATOM     38  C   UNL     1       4.876  -5.924  -1.503  0.00  0.00    +0.000 A 
ATOM     39  C   UNL     1       6.168  -5.539  -1.807  0.00  0.00    +0.000 A 
ATOM     40  C   UNL     1       6.891  -4.774  -0.911  0.00  0.00    +0.004 A 
ENDBRANCH  34  35
ENDBRANCH  25  34
ENDBRANCH  10  25
TORSDOF 8
