REMARK  Name = ZINC36643391
REMARK  16 active torsions:
REMARK  status: ('A' for Active; 'I' for Inactive)
REMARK    1  A    between atoms: C_1  and  C_2
REMARK    2  A    between atoms: C_2  and  C_3
REMARK    3  A    between atoms: C_3  and  C_4
REMARK    4  A    between atoms: C_4  and  N_5
REMARK    5  A    between atoms: N_5  and  C_6
REMARK    6  A    between atoms: N_5  and  S_7
REMARK    7  A    between atoms: S_7  and  C_10
REMARK    8  A    between atoms: C_13  and  C_16
REMARK    9  A    between atoms: N_18  and  C_19
REMARK   10  A    between atoms: C_19  and  C_20
REMARK   11  A    between atoms: C_20  and  C_21
REMARK   12  A    between atoms: C_21  and  N_22
REMARK   13  A    between atoms: N_22  and  C_23
REMARK   14  A    between atoms: N_22  and  C_24
REMARK   15  A    between atoms: C_30  and  C_34
REMARK   16  A    between atoms: C_34  and  C_35
REMARK                            x       y       z     vdW  Elec       q    Type
REMARK                         _______ _______ _______ _____ _____    ______ ____
ROOT
ATOM      1  C   UNL     1      -6.058   1.635   3.312  0.00  0.00    +0.252 C 
ATOM      2  O   UNL     1      -5.341   2.193   4.119  0.00  0.00    -0.270 OA
ATOM      3  N   UNL     1      -7.321   2.066   3.121  0.00  0.00    -0.246 N 
ATOM      4  C   UNL     1      -7.762   3.216   3.752  0.00  0.00    +0.168 A 
ATOM      5  N   UNL     1      -8.945   3.784   3.696  0.00  0.00    -0.224 NA
ATOM      6  C   UNL     1      -9.239   4.916   4.372  0.00  0.00    +0.080 A 
ATOM      7  C   UNL     1     -10.463   5.625   4.397  0.00  0.00    +0.029 A 
ATOM      8  C   UNL     1     -10.594   6.768   5.141  0.00  0.00    +0.006 A 
ATOM      9  C   UNL     1      -9.541   7.270   5.892  0.00  0.00    -0.046 A 
ATOM     10  C   UNL     1      -8.330   6.602   5.891  0.00  0.00    +0.021 A 
ATOM     11  C   UNL     1      -8.189   5.457   5.148  0.00  0.00    +0.041 A 
ATOM     12  S   UNL     1      -6.870   4.302   4.857  0.00  0.00    -0.052 S 
ENDROOT
BRANCH   1  16
ATOM     13  C   UNL     1      -4.585  -1.673   1.093  0.00  0.00    +0.106 A 
ATOM     14  C   UNL     1      -3.809  -0.536   1.231  0.00  0.00    +0.029 A 
ATOM     15  C   UNL     1      -4.282   0.542   1.950  0.00  0.00    +0.015 A 
ATOM     16  C   UNL     1      -5.546   0.484   2.539  0.00  0.00    +0.037 A 
ATOM     17  C   UNL     1      -6.324  -0.666   2.396  0.00  0.00    +0.015 A 
ATOM     18  C   UNL     1      -5.841  -1.735   1.670  0.00  0.00    +0.029 A 
BRANCH  13  19
ATOM     19  S   UNL     1      -3.974  -3.046   0.172  0.00  0.00    +0.061 S 
ATOM     20  O   UNL     1      -4.668  -4.192   0.645  0.00  0.00    -0.153 OA
ATOM     21  O   UNL     1      -2.556  -2.950   0.194  0.00  0.00    -0.153 OA
BRANCH  19  22
ATOM     22  N   UNL     1      -4.439  -2.826  -1.402  0.00  0.00    -0.180 NA
ATOM     23  C   UNL     1      -5.721  -3.361  -1.868  0.00  0.00    +0.131 C 
BRANCH  22  24
ATOM     24  C   UNL     1      -3.570  -2.096  -2.327  0.00  0.00    +0.109 C 
BRANCH  24  25
ATOM     25  C   UNL     1      -3.997  -0.628  -2.379  0.00  0.00    +0.017 C 
BRANCH  25  27
ATOM     26  C   UNL     1      -3.517   1.603  -3.397  0.00  0.00    +0.004 C 
ATOM     27  C   UNL     1      -3.089   0.135  -3.345  0.00  0.00    -0.002 C 
ENDBRANCH  25  27
ENDBRANCH  24  25
ENDBRANCH  22  24
ENDBRANCH  19  22
ENDBRANCH  13  19
ENDBRANCH   1  16
BRANCH   9  28
ATOM     28  C   UNL     1      -9.715   8.529   6.701  0.00  0.00    +0.032 C 
ATOM     29  C   UNL     1     -10.206   8.170   8.105  0.00  0.00    +0.009 C 
ENDBRANCH   9  28
BRANCH   3  30
ATOM     30  C   UNL     1      -8.226   1.317   2.247  0.00  0.00    +0.114 C 
BRANCH  30  31
ATOM     31  C   UNL     1      -9.123   0.412   3.095  0.00  0.00    +0.001 C 
BRANCH  31  32
ATOM     32  C   UNL     1      -9.973  -0.468   2.177  0.00  0.00    -0.078 C 
BRANCH  32  33
ATOM     33  N   UNL     1     -10.834  -1.337   2.991  0.00  0.00    +0.376 N 
ATOM     34  C   UNL     1     -11.793  -0.513   3.739  0.00  0.00    -0.097 C 
ATOM     35  C   UNL     1     -11.562  -2.264   2.116  0.00  0.00    -0.097 C 
ATOM     36  H   UNL     1     -10.265  -1.862   3.639  0.00  0.00    -0.083 HD
ENDBRANCH  32  33
ENDBRANCH  31  32
ENDBRANCH  30  31
ENDBRANCH   3  30
TORSDOF 11
