REMARK  Name = ZINC13154666
REMARK  4 active torsions:
REMARK  status: ('A' for Active; 'I' for Inactive)
REMARK    1  A    between atoms: C_1  and  C_2
REMARK    2  A    between atoms: C_5  and  C_7
REMARK    3  A    between atoms: N_8  and  N_9
REMARK    4  A    between atoms: C_10  and  C_12
REMARK                            x       y       z     vdW  Elec       q    Type
REMARK                         _______ _______ _______ _____ _____    ______ ____
ROOT
ATOM      1  C   UNL     1       2.166   1.296  -1.232  0.00  0.00    +0.297 C 
ATOM      2  C   UNL     1       1.214   1.942  -0.216  0.00  0.00    +0.283 C 
ATOM      3  O   UNL     1      -0.040   1.255  -0.277  0.00  0.00    -0.484 OA
ATOM      4  C   UNL     1       0.006  -0.107  -0.279  0.00  0.00    +0.163 A 
ATOM      5  C   UNL     1      -1.130  -0.805   0.022  0.00  0.00    +0.058 A 
ATOM      6  C   UNL     1      -1.110  -2.209   0.022  0.00  0.00    -0.014 A 
ATOM      7  C   UNL     1      -2.262  -2.954   0.326  0.00  0.00    +0.008 A 
ATOM      8  C   UNL     1      -2.207  -4.314   0.314  0.00  0.00    +0.001 A 
ATOM      9  C   UNL     1      -1.024  -4.982   0.005  0.00  0.00    +0.001 A 
ATOM     10  C   UNL     1       0.112  -4.293  -0.293  0.00  0.00    +0.008 A 
ATOM     11  C   UNL     1       0.094  -2.888  -0.292  0.00  0.00    -0.014 A 
ATOM     12  C   UNL     1       1.246  -2.144  -0.595  0.00  0.00    +0.058 A 
ATOM     13  C   UNL     1       1.198  -0.779  -0.587  0.00  0.00    +0.164 A 
ATOM     14  O   UNL     1       2.331  -0.081  -0.879  0.00  0.00    -0.472 OA
ENDROOT
BRANCH   1  16
ATOM     15  N   UNL     1       3.601   3.279  -1.589  0.00  0.00    -0.204 N 
ATOM     16  C   UNL     1       3.501   1.994  -1.194  0.00  0.00    +0.276 C 
ATOM     17  O   UNL     1       4.485   1.400  -0.807  0.00  0.00    -0.270 OA
ATOM     18  H   UNL     1       2.814   3.754  -1.899  0.00  0.00    +0.177 HD
BRANCH  15  20
ATOM     19  C   UNL     1       4.955   5.141  -2.011  0.00  0.00    +0.176 C 
ATOM     20  N   UNL     1       4.842   3.928  -1.554  0.00  0.00    -0.185 NA
BRANCH  19  25
ATOM     21  C   UNL     1       0.149   6.346  -2.742  0.00  0.00    +0.086 C 
ATOM     22  C   UNL     1       1.654   6.423  -2.734  0.00  0.00    +0.103 A 
ATOM     23  C   UNL     1       2.390   7.447  -3.213  0.00  0.00    +0.045 A 
ATOM     24  C   UNL     1       3.742   7.114  -3.010  0.00  0.00    +0.051 A 
ATOM     25  C   UNL     1       3.759   5.888  -2.411  0.00  0.00    +0.148 A 
ATOM     26  O   UNL     1       2.483   5.481  -2.256  0.00  0.00    -0.459 OA
ENDBRANCH  19  25
ENDBRANCH  15  20
ENDBRANCH   1  16
TORSDOF 3
