REMARK  Name = ZINC07000275
REMARK  5 active torsions:
REMARK  status: ('A' for Active; 'I' for Inactive)
REMARK    1  A    between atoms: C_1  and  O_2
REMARK    2  A    between atoms: O_2  and  C_3
REMARK    3  A    between atoms: C_3  and  C_5
REMARK    4  A    between atoms: C_6  and  N_10
REMARK    5  A    between atoms: C_11  and  C_13
REMARK                            x       y       z     vdW  Elec       q    Type
REMARK                         _______ _______ _______ _____ _____    ______ ____
ROOT
ATOM      1  N   UNL     1       1.189   1.411  -4.440  0.00  0.00    -0.279 N 
ATOM      2  C   UNL     1       0.961   1.277  -3.118  0.00  0.00    +0.270 C 
ATOM      3  O   UNL     1       1.821   0.811  -2.397  0.00  0.00    -0.268 OA
ATOM      4  H   UNL     1       0.476   1.706  -5.028  0.00  0.00    +0.155 HD
ENDROOT
BRANCH   2   5
ATOM      5  C   UNL     1      -0.340   1.699  -2.544  0.00  0.00    +0.171 A 
ATOM      6  C   UNL     1      -0.738   1.628  -1.193  0.00  0.00    +0.027 A 
ATOM      7  C   UNL     1      -1.996   2.127  -1.182  0.00  0.00    +0.141 A 
ATOM      8  O   UNL     1      -2.286   2.458  -2.439  0.00  0.00    -0.359 OA
ATOM      9  N   UNL     1      -1.362   2.217  -3.189  0.00  0.00    -0.073 NA
ATOM     10  C   UNL     1      -2.838   2.245   0.061  0.00  0.00    +0.077 C 
ATOM     11  C   UNL     1      -2.222   1.354   1.147  0.00  0.00    +0.008 C 
ATOM     12  C   UNL     1      -0.723   1.645   1.267  0.00  0.00    +0.005 C 
ATOM     13  C   UNL     1       0.000   1.129   0.014  0.00  0.00    +0.041 C 
ENDBRANCH   2   5
BRANCH   1  15
ATOM     14  C   UNL     1       2.623   0.757  -6.296  0.00  0.00    +0.117 A 
ATOM     15  C   UNL     1       2.450   1.126  -4.962  0.00  0.00    +0.055 A 
ATOM     16  C   UNL     1       3.587   1.190  -4.183  0.00  0.00    +0.032 A 
ATOM     17  C   UNL     1       4.789   0.902  -4.741  0.00  0.00    +0.048 A 
ATOM     18  S   UNL     1       4.390   0.527  -6.385  0.00  0.00    -0.088 S 
BRANCH  14  19
ATOM     19  C   UNL     1       1.652   0.605  -7.312  0.00  0.00    +0.347 C 
ATOM     20  O   UNL     1       0.477   0.808  -7.067  0.00  0.00    -0.244 OA
BRANCH  19  22
ATOM     21  C   UNL     1       0.993   0.102  -9.533  0.00  0.00    +0.280 C 
ATOM     22  O   UNL     1       2.027   0.236  -8.555  0.00  0.00    -0.464 OA
ENDBRANCH  19  22
ENDBRANCH  14  19
ENDBRANCH   1  15
TORSDOF 4
