REMARK  Name = ZINC35993136
REMARK  10 active torsions:
REMARK  status: ('A' for Active; 'I' for Inactive)
REMARK    1  A    between atoms: C_1  and  C_2
REMARK    2  A    between atoms: C_6  and  N_8
REMARK    3  A    between atoms: C_11  and  C_13
REMARK    4  A    between atoms: C_14  and  N_19
REMARK    5  A    between atoms: C_16  and  C_18
REMARK    6  A    between atoms: N_19  and  C_20
REMARK    7  A    between atoms: C_23  and  N_26
REMARK    8  A    between atoms: C_27  and  C_29
REMARK    9  A    between atoms: C_33  and  O_35
REMARK   10  A    between atoms: O_35  and  C_36
REMARK                            x       y       z     vdW  Elec       q    Type
REMARK                         _______ _______ _______ _____ _____    ______ ____
ROOT
ATOM      1  N   UNL     1      -0.583  -6.008   5.753  0.00  0.00    -0.326 N 
ATOM      2  H   UNL     1      -0.121  -5.414   6.365  0.00  0.00    +0.148 HD
ENDROOT
BRANCH   1   9
ATOM      3  N   UNL     1      -0.363  -2.662   2.536  0.00  0.00    -0.214 N 
ATOM      4  C   UNL     1      -0.762  -3.960   2.686  0.00  0.00    +0.169 A 
ATOM      5  C   UNL     1      -0.498  -4.308   4.025  0.00  0.00    +0.082 A 
ATOM      6  C   UNL     1       0.066  -3.171   4.645  0.00  0.00    +0.073 A 
ATOM      7  N   UNL     1       0.145  -2.216   3.762  0.00  0.00    -0.169 NA
ATOM      8  C   UNL     1       0.507  -3.080   6.083  0.00  0.00    +0.068 C 
ATOM      9  C   UNL     1      -0.820  -5.611   4.452  0.00  0.00    +0.134 A 
ATOM     10  N   UNL     1      -1.357  -6.449   3.571  0.00  0.00    -0.217 NA
ATOM     11  C   UNL     1      -1.586  -6.077   2.324  0.00  0.00    +0.130 A 
ATOM     12  N   UNL     1      -1.302  -4.872   1.880  0.00  0.00    -0.213 NA
ATOM     13  C   UNL     1      -2.196  -7.074   1.373  0.00  0.00    +0.088 C 
BRANCH   3  19
ATOM     14  C   UNL     1      -1.083   1.667   0.319  0.00  0.00    +0.044 C 
ATOM     15  C   UNL     1      -0.791   0.190   0.254  0.00  0.00    -0.048 A 
ATOM     16  C   UNL     1      -0.603  -0.423  -0.971  0.00  0.00    +0.003 A 
ATOM     17  C   UNL     1      -0.335  -1.778  -1.034  0.00  0.00    +0.002 A 
ATOM     18  C   UNL     1      -0.255  -2.523   0.126  0.00  0.00    +0.028 A 
ATOM     19  C   UNL     1      -0.444  -1.910   1.357  0.00  0.00    +0.068 A 
ATOM     20  C   UNL     1      -0.707  -0.547   1.418  0.00  0.00    +0.031 A 
ENDBRANCH   3  19
ENDBRANCH   1   9
BRANCH   1  21
ATOM     21  C   UNL     1      -1.030  -7.327   6.209  0.00  0.00    +0.072 C 
ATOM     22  C   UNL     1      -2.491  -7.244   6.656  0.00  0.00    +0.024 C 
ATOM     23  C   UNL     1      -2.618  -6.238   7.801  0.00  0.00    +0.024 C 
ATOM     24  C   UNL     1      -1.750  -6.692   8.977  0.00  0.00    +0.073 C 
ATOM     25  C   UNL     1      -0.289  -6.774   8.531  0.00  0.00    +0.024 C 
ATOM     26  C   UNL     1      -0.162  -7.781   7.385  0.00  0.00    +0.024 C 
BRANCH  24  27
ATOM     27  N   UNL     1      -1.871  -5.728  10.074  0.00  0.00    -0.308 N 
ATOM     28  C   UNL     1      -1.641  -6.119  11.343  0.00  0.00    +0.244 C 
ATOM     29  O   UNL     1      -1.332  -7.271  11.577  0.00  0.00    -0.270 OA
ATOM     30  H   UNL     1      -2.118  -4.809   9.887  0.00  0.00    +0.149 HD
BRANCH  28  31
ATOM     31  C   UNL     1      -1.763  -5.147  12.450  0.00  0.00    +0.040 A 
ATOM     32  C   UNL     1      -2.124  -3.825  12.184  0.00  0.00    +0.013 A 
ATOM     33  C   UNL     1      -2.237  -2.920  13.220  0.00  0.00    +0.004 A 
ATOM     34  C   UNL     1      -1.994  -3.319  14.522  0.00  0.00    +0.045 A 
ATOM     35  C   UNL     1      -1.636  -4.631  14.796  0.00  0.00    +0.121 A 
ATOM     36  C   UNL     1      -1.525  -5.549  13.764  0.00  0.00    +0.058 A 
BRANCH  35  37
ATOM     37  O   UNL     1      -1.398  -5.017  16.077  0.00  0.00    -0.495 OA
ATOM     38  C   UNL     1      -1.536  -4.020  17.091  0.00  0.00    +0.277 C 
ENDBRANCH  35  37
ENDBRANCH  28  31
ENDBRANCH  24  27
ENDBRANCH   1  21
TORSDOF 6
