REMARK  Name = ZINC08590519
REMARK  9 active torsions:
REMARK  status: ('A' for Active; 'I' for Inactive)
REMARK    1  A    between atoms: C_1  and  C_2
REMARK    2  A    between atoms: C_2  and  C_4
REMARK    3  A    between atoms: C_2  and  N_7
REMARK    4  A    between atoms: C_4  and  C_5
REMARK    5  A    between atoms: C_5  and  O_6
REMARK    6  A    between atoms: N_12  and  C_13
REMARK    7  A    between atoms: C_13  and  C_14
REMARK    8  A    between atoms: N_23  and  C_28
REMARK    9  A    between atoms: N_26  and  C_27
REMARK                            x       y       z     vdW  Elec       q    Type
REMARK                         _______ _______ _______ _____ _____    ______ ____
ROOT
ATOM      1  N   UNL     1      -4.682   2.730   0.058  0.00  0.00    -0.312 N 
ATOM      2  C   UNL     1      -3.307   2.669   0.046  0.00  0.00    +0.199 A 
ATOM      3  N   UNL     1      -2.498   3.709   0.044  0.00  0.00    -0.196 NA
ATOM      4  C   UNL     1      -1.229   3.299   0.030  0.00  0.00    +0.170 A 
ATOM      5  C   UNL     1      -1.237   1.908   0.018  0.00  0.00    +0.153 A 
ATOM      6  N   UNL     1      -2.572   1.525   0.034  0.00  0.00    -0.302 N 
ATOM      7  C   UNL     1      -0.015   1.214   0.009  0.00  0.00    +0.282 A 
ATOM      8  O   UNL     1       0.002  -0.004   0.002  0.00  0.00    -0.265 OA
ATOM      9  N   UNL     1       1.140   1.912   0.001  0.00  0.00    -0.262 N 
ATOM     10  C   UNL     1       1.137   3.256   0.008  0.00  0.00    +0.333 A 
ATOM     11  O   UNL     1       2.197   3.852   0.001  0.00  0.00    -0.246 OA
ATOM     12  N   UNL     1      -0.011   3.959   0.022  0.00  0.00    -0.280 N 
ATOM     13  C   UNL     1       0.028   5.424   0.028  0.00  0.00    +0.155 C 
ATOM     14  C   UNL     1       2.417   1.194  -0.015  0.00  0.00    +0.157 C 
ATOM     15  H   UNL     1      -5.204   1.912   0.059  0.00  0.00    +0.149 HD
ENDROOT
BRANCH   1  17
ATOM     16  C   UNL     1      -5.468   4.534   1.511  0.00  0.00    +0.028 C 
ATOM     17  C   UNL     1      -5.357   4.030   0.070  0.00  0.00    +0.072 C 
BRANCH  17  18
ATOM     18  C   UNL     1      -6.757   3.883  -0.528  0.00  0.00    +0.050 C 
BRANCH  18  19
ATOM     19  C   UNL     1      -6.643   3.500  -2.005  0.00  0.00    +0.157 C 
BRANCH  19  20
ATOM     20  O   UNL     1      -7.951   3.362  -2.563  0.00  0.00    -0.395 OA
ATOM     21  H   UNL     1      -7.956   3.120  -3.499  0.00  0.00    +0.209 HD
ENDBRANCH  19  20
ENDBRANCH  18  19
ENDBRANCH  17  18
ENDBRANCH   1  17
BRANCH   6  22
ATOM     22  C   UNL     1      -3.088   0.154   0.033  0.00  0.00    +0.160 C 
BRANCH  22  23
ATOM     23  C   UNL     1      -3.278  -0.310  -1.388  0.00  0.00    -0.028 A 
ATOM     24  C   UNL     1      -4.487  -0.106  -2.026  0.00  0.00    +0.006 A 
ATOM     25  C   UNL     1      -4.660  -0.527  -3.331  0.00  0.00    +0.015 A 
ATOM     26  C   UNL     1      -3.626  -1.162  -3.996  0.00  0.00    +0.018 A 
ATOM     27  C   UNL     1      -2.418  -1.370  -3.355  0.00  0.00    +0.015 A 
ATOM     28  C   UNL     1      -2.244  -0.944  -2.052  0.00  0.00    +0.006 A 
ATOM     29 BR   UNL     1      -3.864  -1.744  -5.779  0.00  0.00    -0.050 Br
ENDBRANCH  22  23
ENDBRANCH   6  22
TORSDOF 6
