REMARK  Name = ZINC15793439
REMARK  3 active torsions:
REMARK  status: ('A' for Active; 'I' for Inactive)
REMARK    1  A    between atoms: C_6  and  C_7
REMARK    2  A    between atoms: N_9  and  N_10
REMARK    3  A    between atoms: C_11  and  C_13
REMARK                            x       y       z     vdW  Elec       q    Type
REMARK                         _______ _______ _______ _____ _____    ______ ____
ROOT
ATOM      1  C   UNL     1       5.076  -0.663   2.266  0.00  0.00    +0.260 C 
ATOM      2  O   UNL     1       5.817   0.300   2.265  0.00  0.00    -0.269 OA
ATOM      3  N   UNL     1       5.489  -1.831   2.798  0.00  0.00    -0.230 N 
ATOM      4  H   UNL     1       4.897  -2.600   2.798  0.00  0.00    +0.173 HD
ENDROOT
BRANCH   1  10
ATOM      5  C   UNL     1       2.871  -1.661   1.683  0.00  0.00    +0.017 A 
ATOM      6  C   UNL     1       1.609  -1.558   1.138  0.00  0.00    +0.050 A 
ATOM      7  C   UNL     1       1.181  -0.357   0.590  0.00  0.00    +0.166 A 
ATOM      8  C   UNL     1       2.028   0.753   0.588  0.00  0.00    +0.167 A 
ATOM      9  C   UNL     1       3.294   0.655   1.131  0.00  0.00    +0.062 A 
ATOM     10  C   UNL     1       3.724  -0.555   1.683  0.00  0.00    +0.042 A 
ATOM     11  O   UNL     1       1.376   1.797  -0.001  0.00  0.00    -0.453 OA
ATOM     12  C   UNL     1      -0.017   1.435   0.010  0.00  0.00    +0.466 C 
ATOM     13  O   UNL     1       0.002  -0.004   0.002  0.00  0.00    -0.453 OA
ENDBRANCH   1  10
BRANCH   3  14
ATOM     14  N   UNL     1       6.772  -1.934   3.351  0.00  0.00    -0.230 N 
ATOM     15  C   UNL     1       7.184  -3.101   3.883  0.00  0.00    +0.267 C 
ATOM     16  O   UNL     1       6.442  -4.066   3.883  0.00  0.00    -0.268 OA
ATOM     17  H   UNL     1       7.363  -1.165   3.351  0.00  0.00    +0.173 HD
BRANCH  15  18
ATOM     18  C   UNL     1       8.526  -3.209   4.461  0.00  0.00    +0.077 A 
ATOM     19  C   UNL     1       9.138  -4.305   5.051  0.00  0.00    +0.037 A 
ATOM     20  C   UNL     1      10.417  -4.131   5.516  0.00  0.00    +0.040 A 
ATOM     21  C   UNL     1      11.014  -2.916   5.379  0.00  0.00    +0.070 A 
ATOM     22  S   UNL     1       9.801  -1.967   4.582  0.00  0.00    -0.076 S 
ATOM     23 BR   UNL     1      12.748  -2.391   5.919  0.00  0.00    -0.041 Br
ATOM     24 BR   UNL     1      11.340  -5.563   6.337  0.00  0.00    -0.049 Br
ENDBRANCH  15  18
ENDBRANCH   3  14
TORSDOF 3
