REMARK  Name = ZINC39715264
REMARK  6 active torsions:
REMARK  status: ('A' for Active; 'I' for Inactive)
REMARK    1  A    between atoms: C_8  and  C_9
REMARK    2  A    between atoms: C_12  and  C_14
REMARK    3  A    between atoms: C_19  and  N_20
REMARK    4  A    between atoms: N_26  and  C_29
REMARK    5  A    between atoms: C_29  and  C_30
REMARK    6  A    between atoms: C_30  and  C_31
REMARK                            x       y       z     vdW  Elec       q    Type
REMARK                         _______ _______ _______ _____ _____    ______ ____
ROOT
ATOM      1  C   UNL     1      -0.489   1.330  -0.109  0.00  0.00    +0.001 A 
ATOM      2  C   UNL     1       0.584   2.168  -0.376  0.00  0.00    +0.001 A 
ATOM      3  C   UNL     1       1.840   1.652  -0.610  0.00  0.00    +0.013 A 
ATOM      4  C   UNL     1       2.036   0.271  -0.577  0.00  0.00    +0.045 A 
ATOM      5  C   UNL     1       0.943  -0.579  -0.304  0.00  0.00    -0.001 A 
ATOM      6  C   UNL     1      -0.318  -0.038  -0.072  0.00  0.00    +0.009 A 
ATOM      7  C   UNL     1       1.181  -2.034  -0.277  0.00  0.00    +0.049 C 
ATOM      8  C   UNL     1       0.148  -2.922  -0.016  0.00  0.00    +0.060 C 
ATOM      9  C   UNL     1       2.544  -2.515  -0.535  0.00  0.00    +0.254 C 
ATOM     10  O   UNL     1       2.773  -3.711  -0.519  0.00  0.00    -0.270 OA
ATOM     11  N   UNL     1       3.539  -1.651  -0.787  0.00  0.00    -0.234 N 
ATOM     12  C   UNL     1       3.358  -0.320  -0.820  0.00  0.00    +0.254 C 
ATOM     13  O   UNL     1       4.305   0.407  -1.055  0.00  0.00    -0.270 OA
ENDROOT
BRANCH   8  14
ATOM     14  C   UNL     1      -0.985  -2.492   0.695  0.00  0.00    +0.129 A 
ATOM     15  C   UNL     1      -2.298  -2.852   0.428  0.00  0.00    +0.050 A 
ATOM     16  C   UNL     1      -3.093  -2.202   1.371  0.00  0.00    +0.050 A 
ATOM     17  C   UNL     1      -2.247  -1.470   2.178  0.00  0.00    +0.138 A 
ATOM     18  O   UNL     1      -0.983  -1.662   1.760  0.00  0.00    -0.455 OA
BRANCH  17  19
ATOM     19  C   UNL     1      -2.659  -0.624   3.314  0.00  0.00    +0.048 A 
ATOM     20  C   UNL     1      -3.684   0.312   3.156  0.00  0.00    +0.015 A 
ATOM     21  C   UNL     1      -4.064   1.100   4.221  0.00  0.00    +0.021 A 
ATOM     22  C   UNL     1      -3.431   0.965   5.447  0.00  0.00    +0.043 A 
ATOM     23  C   UNL     1      -2.414   0.039   5.610  0.00  0.00    +0.053 A 
ATOM     24  C   UNL     1      -2.029  -0.759   4.554  0.00  0.00    +0.138 A 
ATOM     25 CL   UNL     1      -3.916   1.961   6.783  0.00  0.00    -0.083 Cl
BRANCH  24  26
ATOM     26  N   UNL     1      -0.946  -1.753   4.732  0.00  0.00    +0.057 N 
ATOM     27  O   UNL     1      -0.402  -1.869   5.806  0.00  0.00    -0.126 OA
ATOM     28  O   UNL     1      -0.606  -2.449   3.804  0.00  0.00    -0.126 OA
ENDBRANCH  24  26
ENDBRANCH  17  19
ENDBRANCH   8  14
BRANCH  11  29
ATOM     29  C   UNL     1       4.882  -2.181  -1.038  0.00  0.00    +0.128 C 
BRANCH  29  30
ATOM     30  C   UNL     1       5.056  -2.441  -2.536  0.00  0.00    +0.144 C 
BRANCH  30  31
ATOM     31  C   UNL     1       6.437  -2.987  -2.793  0.00  0.00    +0.358 C 
ATOM     32  O   UNL     1       7.210  -3.153  -1.865  0.00  0.00    -0.246 OA
ATOM     33  O   UNL     1       6.781  -3.262  -3.930  0.00  0.00    -0.246 OA
ENDBRANCH  30  31
ENDBRANCH  29  30
ENDBRANCH  11  29
TORSDOF 6
