REMARK  Name = ZINC12635638
REMARK  8 active torsions:
REMARK  status: ('A' for Active; 'I' for Inactive)
REMARK    1  A    between atoms: C_1  and  C_2
REMARK    2  A    between atoms: C_2  and  N_3
REMARK    3  A    between atoms: C_12  and  C_14
REMARK    4  A    between atoms: N_16  and  N_17
REMARK    5  A    between atoms: C_18  and  C_20
REMARK    6  A    between atoms: C_20  and  N_21
REMARK    7  A    between atoms: C_24  and  C_28
REMARK    8  A    between atoms: C_24  and  C_29
REMARK                            x       y       z     vdW  Elec       q    Type
REMARK                         _______ _______ _______ _____ _____    ______ ____
ROOT
ATOM      1  N   UNL     1       4.931   3.840  -0.023  0.00  0.00    -0.233 N 
ATOM      2  C   UNL     1       6.037   3.070  -0.037  0.00  0.00    +0.247 C 
ATOM      3  O   UNL     1       5.935   1.862  -0.042  0.00  0.00    -0.273 OA
ATOM      4  H   UNL     1       5.013   4.807  -0.019  0.00  0.00    +0.173 HD
ENDROOT
BRANCH   1   7
ATOM      5  C   UNL     1       2.557   4.014  -0.001  0.00  0.00    +0.281 C 
ATOM      6  O   UNL     1       2.659   5.226   0.004  0.00  0.00    -0.267 OA
ATOM      7  N   UNL     1       3.663   3.244  -0.015  0.00  0.00    -0.229 N 
ATOM      8  H   UNL     1       3.581   2.278  -0.019  0.00  0.00    +0.173 HD
BRANCH   5  18
ATOM      9  N   UNL     1      -0.018   1.461   0.010  0.00  0.00    -0.229 N 
ATOM     10  C   UNL     1      -1.215   2.083   0.019  0.00  0.00    +0.275 A 
ATOM     11  O   UNL     1      -2.250   1.442   0.021  0.00  0.00    -0.266 OA
ATOM     12  C   UNL     1      -1.240   3.552   0.032  0.00  0.00    +0.050 A 
ATOM     13  C   UNL     1      -2.421   4.288   0.046  0.00  0.00    +0.014 A 
ATOM     14  C   UNL     1      -2.359   5.665   0.052  0.00  0.00    +0.001 A 
ATOM     15  C   UNL     1      -1.134   6.320   0.044  0.00  0.00    +0.001 A 
ATOM     16  C   UNL     1       0.047   5.609   0.030  0.00  0.00    +0.011 A 
ATOM     17  C   UNL     1       0.007   4.219   0.024  0.00  0.00    +0.020 A 
ATOM     18  C   UNL     1       1.220   3.387   0.008  0.00  0.00    +0.155 A 
ATOM     19  N   UNL     1       1.101   2.081   0.003  0.00  0.00    -0.163 NA
BRANCH   9  21
ATOM     20  C   UNL     1      -0.005  -0.506  -1.443  0.00  0.00    +0.029 C 
ATOM     21  C   UNL     1       0.002  -0.004   0.002  0.00  0.00    +0.144 C 
ENDBRANCH   9  21
ENDBRANCH   5  18
ENDBRANCH   1   7
BRANCH   2  22
ATOM     22  C   UNL     1       7.401   3.711  -0.046  0.00  0.00    +0.215 C 
BRANCH  22  23
ATOM     23  N   UNL     1       8.430   2.668  -0.060  0.00  0.00    -0.215 N 
ATOM     24  C   UNL     1       8.976   2.127   1.047  0.00  0.00    +0.251 C 
ATOM     25  O   UNL     1       8.717   2.402   2.200  0.00  0.00    -0.272 OA
ATOM     26  C   UNL     1       9.978   1.104   0.552  0.00  0.00    +0.135 C 
ATOM     27  N   UNL     1       9.877   1.201  -0.914  0.00  0.00    -0.281 N 
ATOM     28  C   UNL     1       8.948   2.139  -1.174  0.00  0.00    +0.310 C 
ATOM     29  O   UNL     1       8.618   2.469  -2.296  0.00  0.00    -0.252 OA
ATOM     30  C   UNL     1       9.602  -0.301   1.026  0.00  0.00    +0.047 C 
ATOM     31  H   UNL     1      10.381   0.688  -1.565  0.00  0.00    +0.152 HD
BRANCH  26  32
ATOM     32  C   UNL     1      11.368   1.463   1.012  0.00  0.00    -0.015 A 
ATOM     33  C   UNL     1      11.544   2.073   2.253  0.00  0.00    +0.007 A 
ATOM     34  C   UNL     1      12.785   2.405   2.701  0.00  0.00    +0.009 A 
ATOM     35  C   UNL     1      13.908   2.141   1.898  0.00  0.00    -0.018 A 
ATOM     36  C   UNL     1      15.205   2.475   2.324  0.00  0.00    +0.008 A 
ATOM     37  C   UNL     1      16.268   2.204   1.519  0.00  0.00    +0.001 A 
ATOM     38  C   UNL     1      16.092   1.600   0.275  0.00  0.00    +0.001 A 
ATOM     39  C   UNL     1      14.851   1.262  -0.170  0.00  0.00    +0.008 A 
ATOM     40  C   UNL     1      13.728   1.526   0.634  0.00  0.00    -0.018 A 
ATOM     41  C   UNL     1      12.431   1.192   0.208  0.00  0.00    +0.014 A 
ENDBRANCH  26  32
ENDBRANCH  22  23
ENDBRANCH   2  22
TORSDOF 6
