REMARK  Name = ZINC08789992
REMARK  4 active torsions:
REMARK  status: ('A' for Active; 'I' for Inactive)
REMARK    1  A    between atoms: C_4  and  C_7
REMARK    2  A    between atoms: N_25  and  C_28
REMARK    3  A    between atoms: C_33  and  C_34
REMARK    4  A    between atoms: N_36  and  C_37
REMARK                            x       y       z     vdW  Elec       q    Type
REMARK                         _______ _______ _______ _____ _____    ______ ____
ROOT
ATOM      1  C   UNL     1      -0.302   1.426  -2.546  0.00  0.00    +0.155 C 
ATOM      2  C   UNL     1       1.208   1.551  -2.538  0.00  0.00    +0.046 A 
ATOM      3  C   UNL     1       1.944   1.650  -1.411  0.00  0.00    -0.015 A 
ATOM      4  C   UNL     1       3.333   1.734  -1.824  0.00  0.00    +0.003 A 
ATOM      5  C   UNL     1       4.527   1.846  -1.106  0.00  0.00    +0.010 A 
ATOM      6  C   UNL     1       5.687   1.905  -1.839  0.00  0.00    +0.001 A 
ATOM      7  C   UNL     1       5.687   1.856  -3.223  0.00  0.00    +0.002 A 
ATOM      8  C   UNL     1       4.520   1.745  -3.958  0.00  0.00    +0.026 A 
ATOM      9  C   UNL     1       3.326   1.683  -3.241  0.00  0.00    +0.047 A 
ATOM     10  N   UNL     1       2.025   1.573  -3.637  0.00  0.00    -0.356 N 
ATOM     11  H   UNL     1       1.724   1.519  -4.557  0.00  0.00    +0.166 HD
ATOM     12  C   UNL     1       1.405   1.670  -0.002  0.00  0.00    +0.069 C 
ATOM     13  C   UNL     1      -0.013   1.086   0.008  0.00  0.00    +0.170 C 
ATOM     14  N   UNL     1      -0.740   1.631  -1.160  0.00  0.00    -0.260 N 
ATOM     15  C   UNL     1      -1.799   2.295  -0.694  0.00  0.00    +0.317 C 
ATOM     16  O   UNL     1      -2.634   2.822  -1.401  0.00  0.00    -0.252 OA
ATOM     17  N   UNL     1      -1.835   2.313   0.647  0.00  0.00    -0.192 N 
ATOM     18  C   UNL     1      -0.778   1.630   1.198  0.00  0.00    +0.248 C 
ATOM     19  O   UNL     1      -0.508   1.481   2.370  0.00  0.00    -0.273 OA
ENDROOT
BRANCH   1  23
ATOM     20  C   UNL     1      -2.010   4.407  -5.085  0.00  0.00    +0.000 A 
ATOM     21  C   UNL     1      -1.856   3.112  -5.545  0.00  0.00    +0.000 A 
ATOM     22  C   UNL     1      -1.304   2.147  -4.723  0.00  0.00    +0.006 A 
ATOM     23  C   UNL     1      -0.904   2.477  -3.442  0.00  0.00    -0.021 A 
ATOM     24  C   UNL     1      -1.062   3.771  -2.980  0.00  0.00    +0.006 A 
ATOM     25  C   UNL     1      -1.610   4.737  -3.804  0.00  0.00    +0.000 A 
ENDBRANCH   1  23
BRANCH  17  26
ATOM     26  C   UNL     1      -2.820   2.959   1.396  0.00  0.00    +0.058 A 
ATOM     27  C   UNL     1      -3.975   2.283   1.761  0.00  0.00    +0.025 A 
ATOM     28  C   UNL     1      -4.945   2.922   2.506  0.00  0.00    +0.002 A 
ATOM     29  C   UNL     1      -4.780   4.244   2.886  0.00  0.00    +0.001 A 
ATOM     30  C   UNL     1      -3.641   4.933   2.528  0.00  0.00    +0.015 A 
ATOM     31  C   UNL     1      -2.648   4.297   1.779  0.00  0.00    +0.059 A 
BRANCH  31  32
ATOM     32  C   UNL     1      -1.427   5.029   1.393  0.00  0.00    +0.246 C 
ATOM     33  O   UNL     1      -0.565   4.472   0.741  0.00  0.00    -0.270 OA
ATOM     34  N   UNL     1      -1.266   6.315   1.763  0.00  0.00    -0.308 N 
ATOM     35  H   UNL     1      -1.954   6.760   2.283  0.00  0.00    +0.149 HD
BRANCH  34  36
ATOM     36  C   UNL     1      -0.053   7.042   1.380  0.00  0.00    +0.073 C 
ATOM     37  C   UNL     1       1.054   6.812   2.429  0.00  0.00    +0.022 C 
ATOM     38  C   UNL     1       1.780   8.178   2.519  0.00  0.00    +0.002 C 
ATOM     39  C   UNL     1       0.617   9.193   2.393  0.00  0.00    +0.002 C 
ATOM     40  C   UNL     1      -0.331   8.555   1.356  0.00  0.00    +0.022 C 
ENDBRANCH  34  36
ENDBRANCH  31  32
ENDBRANCH  17  26
TORSDOF 4
