REMARK  Name = ZINC19320099
REMARK  6 active torsions:
REMARK  status: ('A' for Active; 'I' for Inactive)
REMARK    1  A    between atoms: C_1  and  C_2
REMARK    2  A    between atoms: C_2  and  C_3
REMARK    3  A    between atoms: C_3  and  C_4
REMARK    4  A    between atoms: C_4  and  C_5
REMARK    5  A    between atoms: C_9  and  C_21
REMARK    6  A    between atoms: C_15  and  C_16
REMARK                            x       y       z     vdW  Elec       q    Type
REMARK                         _______ _______ _______ _____ _____    ______ ____
ROOT
ATOM      1  C   UNL     1      -2.923   1.502   2.578  0.00  0.00    +0.028 C 
ATOM      2  C   UNL     1      -2.111   1.021   3.791  0.00  0.00    -0.060 C 
ATOM      3  N   UNL     1      -0.753   1.578   3.719  0.00  0.00    +0.396 N 
ATOM      4  C   UNL     1      -0.020   1.094   2.542  0.00  0.00    -0.060 C 
ATOM      5  C   UNL     1      -0.729   1.579   1.267  0.00  0.00    +0.025 C 
ATOM      6  C   UNL     1      -2.159   1.054   1.337  0.00  0.00    +0.144 C 
ATOM      7  O   UNL     1      -2.637   0.333   0.495  0.00  0.00    -0.296 OA
ATOM      8  C   UNL     1      -0.797   3.114   1.308  0.00  0.00    +0.095 C 
ATOM      9  N   UNL     1      -1.551   3.535   2.575  0.00  0.00    -0.307 NA
ATOM     10  C   UNL     1      -2.934   3.040   2.586  0.00  0.00    +0.095 C 
ATOM     11  C   UNL     1      -0.795   3.048   3.738  0.00  0.00    +0.070 C 
ATOM     12  C   UNL     1      -0.013   1.086   0.008  0.00  0.00    +0.018 C 
ATOM     13  H   UNL     1      -0.207   1.226   4.607  0.00  0.00    -0.079 HD
ENDROOT
BRANCH  11  14
ATOM     14  C   UNL     1       0.609   3.594   3.721  0.00  0.00    +0.105 A 
ATOM     15  C   UNL     1       0.991   4.764   3.179  0.00  0.00    +0.044 A 
ATOM     16  C   UNL     1       2.385   4.878   3.389  0.00  0.00    +0.041 A 
ATOM     17  C   UNL     1       2.772   3.766   4.040  0.00  0.00    +0.195 A 
ATOM     18  O   UNL     1       1.693   2.992   4.238  0.00  0.00    -0.468 OA
ENDBRANCH  11  14
BRANCH   1  19
ATOM     19  C   UNL     1      -4.343   0.934   2.597  0.00  0.00    +0.014 C 
BRANCH  19  20
ATOM     20  C   UNL     1      -5.111   1.440   1.373  0.00  0.00    +0.001 C 
BRANCH  20  22
ATOM     21  C   UNL     1      -7.298   1.377   0.168  0.00  0.00    +0.004 C 
ATOM     22  C   UNL     1      -6.531   0.872   1.391  0.00  0.00    -0.003 C 
ENDBRANCH  20  22
ENDBRANCH  19  20
ENDBRANCH   1  19
TORSDOF 4
