REMARK  Name = ZINC64074593
REMARK  6 active torsions:
REMARK  status: ('A' for Active; 'I' for Inactive)
REMARK    1  A    between atoms: C_1  and  C_2
REMARK    2  A    between atoms: C_5  and  C_8
REMARK    3  A    between atoms: N_11  and  C_13
REMARK    4  A    between atoms: N_16  and  C_19
REMARK    5  A    between atoms: C_19  and  C_20
REMARK    6  A    between atoms: C_24  and  C_26
REMARK                            x       y       z     vdW  Elec       q    Type
REMARK                         _______ _______ _______ _____ _____    ______ ____
ROOT
ATOM      1  C   UNL     1       1.280  -7.254   1.073  0.00  0.00    +0.074 C 
ATOM      2  C   UNL     1       1.306  -8.634   0.409  0.00  0.00    +0.002 C 
ATOM      3  C   UNL     1       2.590  -9.363   0.812  0.00  0.00    -0.077 C 
ATOM      4  N   UNL     1       3.756  -8.587   0.376  0.00  0.00    +0.384 N 
ATOM      5  C   UNL     1       3.777  -7.290   1.063  0.00  0.00    -0.077 C 
ATOM      6  C   UNL     1       2.539  -6.480   0.669  0.00  0.00    +0.002 C 
ATOM      7  H   UNL     1       3.706  -8.438  -0.621  0.00  0.00    -0.081 HD
ENDROOT
BRANCH   1  11
ATOM      8  C   UNL     1       0.058  -4.248  -0.021  0.00  0.00    +0.083 C 
ATOM      9  N   UNL     1       0.068  -5.010  -1.067  0.00  0.00    -0.175 NA
ATOM     10  N   UNL     1       0.086  -6.361  -0.728  0.00  0.00    -0.199 N 
ATOM     11  N   UNL     1       0.089  -6.518   0.629  0.00  0.00    -0.205 NA
ATOM     12  C   UNL     1       0.076  -5.152   1.192  0.00  0.00    +0.164 C 
ATOM     13  H   UNL     1       0.096  -7.090  -1.368  0.00  0.00    +0.189 HD
BRANCH   8  18
ATOM     14  C   UNL     1      -0.018   1.503   0.010  0.00  0.00    +0.044 C 
ATOM     15  C   UNL     1       0.002  -0.004   0.002  0.00  0.00    -0.050 A 
ATOM     16  C   UNL     1       0.006  -0.686  -1.202  0.00  0.00    +0.004 A 
ATOM     17  C   UNL     1       0.024  -2.065  -1.217  0.00  0.00    +0.010 A 
ATOM     18  C   UNL     1       0.039  -2.773  -0.013  0.00  0.00    -0.001 A 
ATOM     19  C   UNL     1       0.036  -2.078   1.198  0.00  0.00    +0.010 A 
ATOM     20  C   UNL     1       0.023  -0.699   1.198  0.00  0.00    +0.004 A 
ENDBRANCH   8  18
ENDBRANCH   1  11
BRANCH   4  21
ATOM     21  C   UNL     1       4.984  -9.328   0.695  0.00  0.00    -0.021 C 
BRANCH  21  22
ATOM     22  C   UNL     1       6.175  -8.591   0.139  0.00  0.00    +0.045 A 
ATOM     23  N   UNL     1       6.890  -7.653   0.778  0.00  0.00    -0.243 NA
ATOM     24  C   UNL     1       7.846  -7.234  -0.005  0.00  0.00    +0.196 A 
ATOM     25  N   UNL     1       7.768  -7.898  -1.179  0.00  0.00    -0.348 N 
ATOM     26  C   UNL     1       6.711  -8.763  -1.084  0.00  0.00    +0.034 A 
ATOM     27  H   UNL     1       8.353  -7.786  -1.944  0.00  0.00    +0.166 HD
ATOM     28  C   UNL     1       6.238  -9.722  -2.146  0.00  0.00    +0.065 C 
ENDBRANCH  21  22
ENDBRANCH   4  21
TORSDOF 4
