REMARK  Name = ZINC12009303
REMARK  6 active torsions:
REMARK  status: ('A' for Active; 'I' for Inactive)
REMARK    1  A    between atoms: C_4  and  C_7
REMARK    2  A    between atoms: C_16  and  N_25
REMARK    3  A    between atoms: C_18  and  C_20
REMARK    4  A    between atoms: C_26  and  C_28
REMARK    5  A    between atoms: C_28  and  C_29
REMARK    6  A    between atoms: C_28  and  C_35
REMARK                            x       y       z     vdW  Elec       q    Type
REMARK                         _______ _______ _______ _____ _____    ______ ____
ROOT
ATOM      1  C   UNL     1      -5.399   3.697  -3.254  0.00  0.00    +0.080 A 
ATOM      2  C   UNL     1      -5.349   4.922  -3.901  0.00  0.00    +0.098 A 
ATOM      3  C   UNL     1      -4.155   5.660  -3.853  0.00  0.00    +0.253 A 
ATOM      4  O   UNL     1      -4.072   6.742  -4.410  0.00  0.00    -0.268 OA
ATOM      5  N   UNL     1      -3.104   5.153  -3.175  0.00  0.00    -0.291 N 
ATOM      6  H   UNL     1      -2.273   5.651  -3.128  0.00  0.00    +0.172 HD
ATOM      7  C   UNL     1      -3.206   3.943  -2.562  0.00  0.00    +0.234 A 
ATOM      8  N   UNL     1      -4.318   3.245  -2.602  0.00  0.00    -0.212 NA
ATOM      9  N   UNL     1      -2.117   3.439  -1.877  0.00  0.00    -0.184 N 
ATOM     10  C   UNL     1      -2.093   2.288  -1.141  0.00  0.00    +0.132 A 
ATOM     11  C   UNL     1      -0.843   2.152  -0.630  0.00  0.00    +0.077 A 
ATOM     12  C   UNL     1      -0.073   3.248  -1.073  0.00  0.00    +0.130 A 
ATOM     13  N   UNL     1      -0.842   4.016  -1.820  0.00  0.00    -0.159 NA
ENDROOT
BRANCH   1  17
ATOM     14  C   UNL     1      -8.963   1.382  -3.336  0.00  0.00    +0.000 A 
ATOM     15  C   UNL     1      -7.883   0.957  -2.584  0.00  0.00    +0.001 A 
ATOM     16  C   UNL     1      -6.723   1.704  -2.553  0.00  0.00    +0.010 A 
ATOM     17  C   UNL     1      -6.642   2.890  -3.283  0.00  0.00    +0.001 A 
ATOM     18  C   UNL     1      -7.736   3.316  -4.035  0.00  0.00    +0.010 A 
ATOM     19  C   UNL     1      -8.888   2.558  -4.062  0.00  0.00    +0.001 A 
ENDBRANCH   1  17
BRANCH  12  20
ATOM     20  C   UNL     1       1.349   3.494  -0.755  0.00  0.00    +0.155 A 
ATOM     21  C   UNL     1       2.092   4.547  -1.186  0.00  0.00    +0.051 A 
ATOM     22  C   UNL     1       3.382   4.383  -0.642  0.00  0.00    +0.042 A 
ATOM     23  C   UNL     1       3.365   3.244   0.078  0.00  0.00    +0.196 A 
ATOM     24  O   UNL     1       2.134   2.710   0.008  0.00  0.00    -0.461 OA
ENDBRANCH  12  20
BRANCH  10  25
ATOM     25  N   UNL     1      -3.160   1.414  -0.948  0.00  0.00    -0.269 N 
ATOM     26  C   UNL     1      -3.033   0.373  -0.102  0.00  0.00    +0.230 C 
ATOM     27  O   UNL     1      -2.018   0.239   0.548  0.00  0.00    -0.274 OA
ATOM     28  H   UNL     1      -3.994   1.555  -1.422  0.00  0.00    +0.156 HD
BRANCH  26  29
ATOM     29  C   UNL     1      -4.153  -0.626   0.036  0.00  0.00    +0.135 C 
BRANCH  29  30
ATOM     30  C   UNL     1      -3.576  -1.994   0.295  0.00  0.00    -0.031 A 
ATOM     31  C   UNL     1      -2.802  -2.217   1.418  0.00  0.00    +0.005 A 
ATOM     32  C   UNL     1      -2.277  -3.473   1.659  0.00  0.00    +0.000 A 
ATOM     33  C   UNL     1      -2.518  -4.504   0.770  0.00  0.00    +0.000 A 
ATOM     34  C   UNL     1      -3.289  -4.280  -0.356  0.00  0.00    +0.000 A 
ATOM     35  C   UNL     1      -3.818  -3.026  -0.593  0.00  0.00    +0.005 A 
ENDBRANCH  29  30
BRANCH  29  36
ATOM     36  C   UNL     1      -5.041  -0.229   1.188  0.00  0.00    -0.031 A 
ATOM     37  C   UNL     1      -4.487   0.054   2.422  0.00  0.00    +0.005 A 
ATOM     38  C   UNL     1      -5.301   0.423   3.477  0.00  0.00    +0.000 A 
ATOM     39  C   UNL     1      -6.670   0.498   3.300  0.00  0.00    +0.000 A 
ATOM     40  C   UNL     1      -7.224   0.210   2.067  0.00  0.00    +0.000 A 
ATOM     41  C   UNL     1      -6.410  -0.154   1.011  0.00  0.00    +0.005 A 
ENDBRANCH  29  36
ENDBRANCH  26  29
ENDBRANCH  10  25
TORSDOF 6
