REMARK  Name = ZINC12489475
REMARK  11 active torsions:
REMARK  status: ('A' for Active; 'I' for Inactive)
REMARK    1  A    between atoms: C_1  and  C_2
REMARK    2  A    between atoms: C_5  and  N_9
REMARK    3  A    between atoms: C_6  and  C_8
REMARK    4  A    between atoms: N_9  and  C_10
REMARK    5  A    between atoms: C_10  and  C_12
REMARK    6  A    between atoms: C_10  and  C_18
REMARK    7  A    between atoms: N_20  and  C_21
REMARK    8  A    between atoms: C_21  and  C_22
REMARK    9  A    between atoms: C_28  and  C_30
REMARK   10  A    between atoms: C_30  and  N_31
REMARK   11  A    between atoms: C_32  and  C_34
REMARK                            x       y       z     vdW  Elec       q    Type
REMARK                         _______ _______ _______ _____ _____    ______ ____
ROOT
ATOM      1  N   UNL     1       2.066  -3.243   0.030  0.00  0.00    -0.254 N 
ATOM      2  C   UNL     1       1.898  -4.029   1.112  0.00  0.00    +0.238 C 
ATOM      3  O   UNL     1       0.923  -3.887   1.820  0.00  0.00    -0.274 OA
ENDROOT
BRANCH   1   8
ATOM      4  C   UNL     1       6.623  -3.907  -3.282  0.00  0.00    +0.044 C 
ATOM      5  C   UNL     1       5.412  -3.731  -2.402  0.00  0.00    -0.050 A 
ATOM      6  C   UNL     1       5.497  -2.958  -1.258  0.00  0.00    +0.005 A 
ATOM      7  C   UNL     1       4.388  -2.790  -0.453  0.00  0.00    +0.024 A 
ATOM      8  C   UNL     1       3.190  -3.407  -0.786  0.00  0.00    +0.040 A 
ATOM      9  C   UNL     1       3.108  -4.182  -1.935  0.00  0.00    -0.029 A 
ATOM     10  C   UNL     1       4.219  -4.343  -2.740  0.00  0.00    +0.008 A 
ATOM     11  C   UNL     1       1.807  -4.849  -2.304  0.00  0.00    +0.045 C 
ENDBRANCH   1   8
BRANCH   1  12
ATOM     12  C   UNL     1       1.071  -2.216  -0.290  0.00  0.00    +0.197 C 
BRANCH  12  13
ATOM     13  C   UNL     1       1.000  -1.216   0.836  0.00  0.00    -0.018 A 
ATOM     14  C   UNL     1      -0.221  -0.891   1.395  0.00  0.00    +0.006 A 
ATOM     15  C   UNL     1      -0.286   0.025   2.428  0.00  0.00    +0.000 A 
ATOM     16  C   UNL     1       0.870   0.617   2.901  0.00  0.00    +0.000 A 
ATOM     17  C   UNL     1       2.092   0.292   2.341  0.00  0.00    +0.000 A 
ATOM     18  C   UNL     1       2.157  -0.625   1.308  0.00  0.00    +0.006 A 
ENDBRANCH  12  13
BRANCH  12  19
ATOM     19  C   UNL     1       1.467  -1.513  -1.562  0.00  0.00    +0.239 C 
ATOM     20  O   UNL     1       2.628  -1.220  -1.758  0.00  0.00    -0.273 OA
ATOM     21  N   UNL     1       0.531  -1.208  -2.483  0.00  0.00    -0.311 N 
ATOM     22  H   UNL     1      -0.397  -1.442  -2.328  0.00  0.00    +0.149 HD
BRANCH  21  23
ATOM     23  C   UNL     1       0.917  -0.524  -3.720  0.00  0.00    +0.135 C 
BRANCH  23  24
ATOM     24  C   UNL     1      -0.325  -0.299  -4.586  0.00  0.00    +0.135 C 
ATOM     25  C   UNL     1       0.070   0.344  -5.935  0.00  0.00    +0.035 C 
ATOM     26  C   UNL     1      -1.084   1.327  -6.234  0.00  0.00    +0.031 C 
ATOM     27  C   UNL     1      -2.039   1.162  -5.030  0.00  0.00    +0.160 C 
ATOM     28  O   UNL     1      -1.206   0.660  -3.962  0.00  0.00    -0.375 OA
ENDBRANCH  23  24
ENDBRANCH  21  23
ENDBRANCH  12  19
ENDBRANCH   1  12
BRANCH   2  29
ATOM     29  C   UNL     1       2.921  -5.085   1.442  0.00  0.00    +0.201 C 
BRANCH  29  30
ATOM     30  N   UNL     1       2.513  -5.799   2.654  0.00  0.00    -0.302 N 
ATOM     31  C   UNL     1       3.281  -6.794   3.141  0.00  0.00    +0.251 C 
ATOM     32  O   UNL     1       4.313  -7.099   2.574  0.00  0.00    -0.270 OA
ATOM     33  H   UNL     1       1.690  -5.556   3.106  0.00  0.00    +0.150 HD
BRANCH  31  34
ATOM     34  C   UNL     1       2.872  -7.509   4.354  0.00  0.00    +0.074 A 
ATOM     35  C   UNL     1       3.510  -8.549   5.012  0.00  0.00    +0.021 A 
ATOM     36  C   UNL     1       2.902  -9.040   6.141  0.00  0.00    +0.008 A 
ATOM     37  C   UNL     1       1.728  -8.495   6.553  0.00  0.00    +0.046 A 
ATOM     38  S   UNL     1       1.429  -7.261   5.373  0.00  0.00    -0.092 S 
ENDBRANCH  31  34
ENDBRANCH  29  30
ENDBRANCH   2  29
TORSDOF 9
