REMARK  Name = ZINC63270246
REMARK  12 active torsions:
REMARK  status: ('A' for Active; 'I' for Inactive)
REMARK    1  A    between atoms: C_1  and  C_2
REMARK    2  A    between atoms: C_2  and  C_4
REMARK    3  A    between atoms: C_2  and  N_12
REMARK    4  A    between atoms: C_4  and  C_5
REMARK    5  A    between atoms: C_5  and  C_6
REMARK    6  A    between atoms: C_13  and  C_15
REMARK    7  A    between atoms: C_15  and  C_16
REMARK    8  A    between atoms: C_16  and  C_17
REMARK    9  A    between atoms: N_21  and  C_25
REMARK   10  A    between atoms: C_22  and  O_24
REMARK   11  A    between atoms: C_25  and  C_26
REMARK   12  A    between atoms: C_26  and  C_27
REMARK                            x       y       z     vdW  Elec       q    Type
REMARK                         _______ _______ _______ _____ _____    ______ ____
ROOT
ATOM      1  C   UNL     1      -5.436  -1.745  -2.555  0.00  0.00    +0.197 C 
ATOM      2  C   UNL     1      -6.017  -1.736  -3.956  0.00  0.00    +0.248 C 
ATOM      3  O   UNL     1      -6.192  -0.776  -4.676  0.00  0.00    -0.273 OA
ATOM      4  N   UNL     1      -6.296  -3.029  -4.227  0.00  0.00    -0.224 N 
ATOM      5  C   UNL     1      -5.958  -3.829  -3.166  0.00  0.00    +0.285 C 
ATOM      6  N   UNL     1      -5.460  -3.165  -2.169  0.00  0.00    -0.224 NA
ENDROOT
BRANCH   5   7
ATOM      7  O   UNL     1      -6.127  -5.170  -3.159  0.00  0.00    -0.481 OA
ATOM      8  H   UNL     1      -5.842  -5.598  -2.340  0.00  0.00    +0.295 HD
ENDBRANCH   5   7
BRANCH   1   9
ATOM      9  C   UNL     1      -4.000  -1.215  -2.566  0.00  0.00    +0.045 C 
BRANCH   9  10
ATOM     10  C   UNL     1      -3.465  -1.164  -1.134  0.00  0.00    +0.098 C 
BRANCH  10  12
ATOM     11  N   UNL     1      -1.372  -0.511   0.012  0.00  0.00    -0.313 N 
ATOM     12  C   UNL     1      -2.051  -0.643  -1.145  0.00  0.00    +0.213 C 
ATOM     13  O   UNL     1      -1.524  -0.341  -2.194  0.00  0.00    -0.276 OA
ATOM     14  H   UNL     1      -1.794  -0.752   0.852  0.00  0.00    +0.149 HD
BRANCH  11  16
ATOM     15  C   UNL     1      -0.019   1.526   0.010  0.00  0.00    +0.028 C 
ATOM     16  C   UNL     1       0.002  -0.004   0.002  0.00  0.00    +0.070 C 
BRANCH  16  17
ATOM     17  C   UNL     1       0.742  -0.511   1.242  0.00  0.00    +0.026 C 
BRANCH  17  18
ATOM     18  C   UNL     1       0.872  -2.034   1.171  0.00  0.00    +0.037 C 
BRANCH  18  19
ATOM     19  C   UNL     1       1.601  -2.533   2.392  0.00  0.00    -0.047 A 
ATOM     20  C   UNL     1       2.979  -2.641   2.378  0.00  0.00    +0.003 A 
ATOM     21  C   UNL     1       3.647  -3.099   3.498  0.00  0.00    +0.000 A 
ATOM     22  C   UNL     1       2.938  -3.448   4.632  0.00  0.00    +0.000 A 
ATOM     23  C   UNL     1       1.560  -3.340   4.646  0.00  0.00    +0.000 A 
ATOM     24  C   UNL     1       0.892  -2.878   3.527  0.00  0.00    +0.003 A 
ENDBRANCH  18  19
ENDBRANCH  17  18
ENDBRANCH  16  17
ENDBRANCH  11  16
ENDBRANCH  10  12
ENDBRANCH   9  10
ENDBRANCH   1   9
BRANCH   4  25
ATOM     25  C   UNL     1      -6.880  -3.510  -5.481  0.00  0.00    +0.122 C 
BRANCH  25  26
ATOM     26  C   UNL     1      -5.761  -3.847  -6.469  0.00  0.00    +0.052 C 
BRANCH  26  27
ATOM     27  C   UNL     1      -6.362  -4.341  -7.759  0.00  0.00    -0.040 C 
ATOM     28  C   UNL     1      -6.621  -3.612  -8.868  0.00  0.00    -0.001 A 
ATOM     29  C   UNL     1      -6.430  -2.193  -9.192  0.00  0.00    +0.010 A 
ATOM     30  C   UNL     1      -6.795  -1.744 -10.414  0.00  0.00    +0.001 A 
ATOM     31  C   UNL     1      -7.351  -2.597 -11.377  0.00  0.00    +0.002 A 
ATOM     32  C   UNL     1      -7.558  -3.912 -11.153  0.00  0.00    +0.026 A 
ATOM     33  C   UNL     1      -7.210  -4.492  -9.902  0.00  0.00    +0.043 A 
ATOM     34  N   UNL     1      -7.310  -5.719  -9.450  0.00  0.00    -0.380 N 
ATOM     35  C   UNL     1      -6.791  -5.756  -8.079  0.00  0.00    +0.144 C 
ATOM     36  H   UNL     1      -7.665  -6.476  -9.942  0.00  0.00    +0.160 HD
ENDBRANCH  26  27
ENDBRANCH  25  26
ENDBRANCH   4  25
TORSDOF 11
