REMARK  Name = ZINC33028852
REMARK  10 active torsions:
REMARK  status: ('A' for Active; 'I' for Inactive)
REMARK    1  A    between atoms: C_1  and  C_2
REMARK    2  A    between atoms: C_2  and  C_3
REMARK    3  A    between atoms: C_3  and  C_5
REMARK    4  A    between atoms: C_3  and  N_6
REMARK    5  A    between atoms: N_6  and  C_7
REMARK    6  A    between atoms: N_6  and  C_25
REMARK    7  A    between atoms: C_7  and  C_8
REMARK    8  A    between atoms: C_8  and  N_9
REMARK    9  A    between atoms: C_10  and  C_12
REMARK   10  A    between atoms: C_25  and  C_26
REMARK                            x       y       z     vdW  Elec       q    Type
REMARK                         _______ _______ _______ _____ _____    ______ ____
ROOT
ATOM      1  N   UNL     1       5.662   7.708  -0.088  0.00  0.00    -0.312 N 
ATOM      2  C   UNL     1       4.359   7.488  -0.352  0.00  0.00    +0.266 C 
ATOM      3  O   UNL     1       3.550   8.383  -0.208  0.00  0.00    -0.268 OA
ATOM      4  H   UNL     1       6.394   6.898  -0.218  0.00  0.00    +0.149 HD
ENDROOT
BRANCH   2   5
ATOM      5  C   UNL     1       3.912   6.152  -0.817  0.00  0.00    +0.175 A 
ATOM      6  C   UNL     1       2.607   5.764  -1.131  0.00  0.00    +0.069 A 
ATOM      7  C   UNL     1       2.728   4.441  -1.509  0.00  0.00    +0.178 A 
ATOM      8  O   UNL     1       4.011   4.135  -1.402  0.00  0.00    -0.353 OA
ATOM      9  N   UNL     1       4.665   5.088  -1.019  0.00  0.00    -0.073 NA
ATOM     10  C   UNL     1       1.520   3.706  -1.918  0.00  0.00    +0.062 A 
ATOM     11  C   UNL     1       1.485   2.326  -2.047  0.00  0.00    +0.015 A 
ATOM     12  C   UNL     1       0.300   1.704  -2.395  0.00  0.00    +0.001 A 
ATOM     13  C   UNL     1      -0.839   2.459  -2.618  0.00  0.00    +0.004 A 
ATOM     14  C   UNL     1      -0.811   3.834  -2.494  0.00  0.00    +0.046 A 
ATOM     15  C   UNL     1       0.367   4.479  -2.153  0.00  0.00    +0.132 A 
ATOM     16  O   UNL     1       0.409   5.830  -2.059  0.00  0.00    -0.486 OA
ATOM     17  C   UNL     1       1.284   6.465  -1.120  0.00  0.00    +0.270 C 
ENDBRANCH   2   5
BRANCH   1  18
ATOM     18  C   UNL     1       6.103   9.027   0.371  0.00  0.00    +0.086 C 
BRANCH  18  19
ATOM     19  C   UNL     1       7.616   9.009   0.596  0.00  0.00    -0.059 C 
BRANCH  19  20
ATOM     20  N   UNL     1       8.082  10.368   0.902  0.00  0.00    +0.387 N 
ATOM     21  H   UNL     1       7.633  11.053   0.167  0.00  0.00    -0.081 HD
BRANCH  20  22
ATOM     22  C   UNL     1       7.641  10.788   2.239  0.00  0.00    -0.071 C 
ATOM     23  C   UNL     1       6.275  11.469   2.134  0.00  0.00    -0.013 C 
BRANCH  22  25
ATOM     24  C   UNL     1       8.919   8.951   3.350  0.00  0.00    +0.002 C 
ATOM     25  C   UNL     1       7.531   9.562   3.147  0.00  0.00    -0.019 C 
ENDBRANCH  22  25
ENDBRANCH  20  22
BRANCH  20  26
ATOM     26  C   UNL     1       9.543  10.465   0.775  0.00  0.00    -0.003 C 
BRANCH  26  27
ATOM     27  C   UNL     1       9.944  11.915   0.690  0.00  0.00    +0.089 A 
ATOM     28  C   UNL     1      10.343  12.683   1.720  0.00  0.00    +0.042 A 
ATOM     29  C   UNL     1      10.620  13.965   1.192  0.00  0.00    +0.041 A 
ATOM     30  C   UNL     1      10.374  13.904  -0.129  0.00  0.00    +0.195 A 
ATOM     31  O   UNL     1       9.970  12.659  -0.428  0.00  0.00    -0.470 OA
ENDBRANCH  26  27
ENDBRANCH  20  26
ENDBRANCH  19  20
ENDBRANCH  18  19
ENDBRANCH   1  18
TORSDOF 8
