REMARK  Name = ZINC16956643
REMARK  5 active torsions:
REMARK  status: ('A' for Active; 'I' for Inactive)
REMARK    1  A    between atoms: C_1  and  C_2
REMARK    2  A    between atoms: C_5  and  C_8
REMARK    3  A    between atoms: N_13  and  C_16
REMARK    4  A    between atoms: C_14  and  O_15
REMARK    5  A    between atoms: C_27  and  C_30
REMARK                            x       y       z     vdW  Elec       q    Type
REMARK                         _______ _______ _______ _____ _____    ______ ____
ROOT
ATOM      1  C   UNL     1       2.499   1.313  -0.017  0.00  0.00    +0.074 C 
ATOM      2  C   UNL     1       2.407  -0.197  -0.022  0.00  0.00    +0.068 A 
ATOM      3  C   UNL     1       1.119  -0.780  -0.013  0.00  0.00    +0.182 A 
ATOM      4  N   UNL     1       1.281  -2.093  -0.020  0.00  0.00    -0.143 NA
ATOM      5  N   UNL     1       2.654  -2.370  -0.035  0.00  0.00    -0.198 N 
ATOM      6  C   UNL     1       3.325  -1.185  -0.036  0.00  0.00    +0.222 A 
ATOM      7  N   UNL     1       0.002  -0.004   0.002  0.00  0.00    -0.235 NA
ATOM      8  C   UNL     1      -0.016   1.298   0.009  0.00  0.00    +0.033 C 
ATOM      9  C   UNL     1       1.176   2.058   0.002  0.00  0.00    +0.112 C 
ATOM     10  C   UNL     1       1.168   3.396   0.011  0.00  0.00    +0.143 C 
ATOM     11  C   UNL     1      -0.120   4.173   0.030  0.00  0.00    +0.078 C 
ATOM     12  C   UNL     1      -1.197   3.351   0.744  0.00  0.00    -0.002 C 
ATOM     13  C   UNL     1      -1.351   2.008   0.019  0.00  0.00    +0.055 C 
ATOM     14  C   UNL     1      -2.527   4.106   0.709  0.00  0.00    +0.008 C 
ATOM     15  O   UNL     1       2.342   4.063   0.004  0.00  0.00    -0.297 OA
ENDROOT
BRANCH   1  20
ATOM     16  C   UNL     1       5.519   2.921   4.641  0.00  0.00    +0.044 C 
ATOM     17  C   UNL     1       4.731   2.501   3.426  0.00  0.00    -0.050 A 
ATOM     18  C   UNL     1       5.182   2.832   2.162  0.00  0.00    +0.003 A 
ATOM     19  C   UNL     1       4.460   2.447   1.048  0.00  0.00    +0.004 A 
ATOM     20  C   UNL     1       3.287   1.732   1.198  0.00  0.00    -0.039 A 
ATOM     21  C   UNL     1       2.833   1.406   2.462  0.00  0.00    +0.004 A 
ATOM     22  C   UNL     1       3.558   1.786   3.576  0.00  0.00    +0.003 A 
ENDBRANCH   1  20
BRANCH   5  23
ATOM     23  C   UNL     1       3.235  -3.644  -0.046  0.00  0.00    +0.069 A 
ATOM     24  C   UNL     1       4.409  -3.867  -0.753  0.00  0.00    +0.028 A 
ATOM     25  C   UNL     1       4.982  -5.124  -0.759  0.00  0.00    +0.002 A 
ATOM     26  C   UNL     1       4.382  -6.162  -0.070  0.00  0.00    +0.000 A 
ATOM     27  C   UNL     1       3.210  -5.945   0.630  0.00  0.00    +0.002 A 
ATOM     28  C   UNL     1       2.635  -4.689   0.644  0.00  0.00    +0.028 A 
ENDBRANCH   5  23
BRANCH   6  29
ATOM     29  O   UNL     1       4.673  -1.027  -0.048  0.00  0.00    -0.492 OA
ATOM     30  H   UNL     1       5.055  -0.977  -0.935  0.00  0.00    +0.294 HD
ENDBRANCH   6  29
TORSDOF 3
