REMARK  Name = ZINC20510590
REMARK  7 active torsions:
REMARK  status: ('A' for Active; 'I' for Inactive)
REMARK    1  A    between atoms: C_1  and  C_2
REMARK    2  A    between atoms: C_2  and  O_3
REMARK    3  A    between atoms: O_3  and  C_4
REMARK    4  A    between atoms: C_12  and  C_14
REMARK    5  A    between atoms: C_14  and  N_15
REMARK    6  A    between atoms: C_21  and  C_34
REMARK    7  A    between atoms: C_22  and  C_27
REMARK                            x       y       z     vdW  Elec       q    Type
REMARK                         _______ _______ _______ _____ _____    ______ ____
ROOT
ATOM      1  N   UNL     1       1.266   1.771  -0.001  0.00  0.00    -0.262 N 
ATOM      2  C   UNL     1      -0.016   1.335   0.009  0.00  0.00    +0.113 A 
ATOM      3  C   UNL     1       0.002  -0.004   0.002  0.00  0.00    -0.002 A 
ATOM      4  C   UNL     1       1.369  -0.411  -0.035  0.00  0.00    +0.099 A 
ATOM      5  N   UNL     1       2.112   0.649  -0.023  0.00  0.00    -0.170 NA
ATOM      6  C   UNL     1       1.662  -1.861  -0.098  0.00  0.00    +0.047 A 
ATOM      7  C   UNL     1       2.827  -2.606   0.049  0.00  0.00    +0.009 A 
ATOM      8  C   UNL     1       2.465  -3.918  -0.099  0.00  0.00    +0.193 A 
ATOM      9  O   UNL     1       1.135  -3.970  -0.337  0.00  0.00    -0.454 OA
ATOM     10  C   UNL     1       0.633  -2.737  -0.372  0.00  0.00    +0.116 A 
ATOM     11  C   UNL     1      -0.769  -2.286  -0.684  0.00  0.00    +0.080 C 
ATOM     12  C   UNL     1      -1.129  -0.995   0.052  0.00  0.00    +0.046 C 
ATOM     13  C   UNL     1       4.212  -2.076   0.316  0.00  0.00    +0.048 C 
ENDROOT
BRANCH   8  14
ATOM     14  C   UNL     1       3.367  -5.072  -0.015  0.00  0.00    +0.282 C 
ATOM     15  O   UNL     1       4.552  -4.903   0.205  0.00  0.00    -0.267 OA
ATOM     16  N   UNL     1       2.883  -6.319  -0.180  0.00  0.00    -0.295 N 
ATOM     17  C   UNL     1       1.479  -6.665  -0.443  0.00  0.00    +0.108 C 
ATOM     18  C   UNL     1       1.395  -8.204  -0.533  0.00  0.00    +0.020 C 
ATOM     19  C   UNL     1       2.651  -8.665   0.253  0.00  0.00    +0.020 C 
ATOM     20  C   UNL     1       3.674  -7.562  -0.120  0.00  0.00    +0.108 C 
ENDBRANCH   8  14
BRANCH   1  21
ATOM     21  C   UNL     1       1.696   3.171   0.010  0.00  0.00    +0.239 C 
BRANCH  21  30
ATOM     22  C   UNL     1       3.724   8.356   2.663  0.00  0.00    +0.403 C 
ATOM     23  O   UNL     1       4.482   8.540   3.595  0.00  0.00    -0.226 OA
ATOM     24  N   UNL     1       3.198   7.133   2.454  0.00  0.00    -0.264 N 
ATOM     25  C   UNL     1       3.531   6.013   3.345  0.00  0.00    +0.130 C 
ATOM     26  C   UNL     1       4.081   4.859   2.498  0.00  0.00    +0.127 C 
ATOM     27  N   UNL     1       3.163   4.622   1.375  0.00  0.00    -0.297 N 
ATOM     28  C   UNL     1       2.834   5.741   0.480  0.00  0.00    +0.127 C 
ATOM     29  C   UNL     1       2.280   6.896   1.331  0.00  0.00    +0.130 C 
ATOM     30  C   UNL     1       2.636   3.400   1.166  0.00  0.00    +0.237 C 
ATOM     31  O   UNL     1       2.919   2.483   1.908  0.00  0.00    -0.274 OA
BRANCH  22  32
ATOM     32  O   UNL     1       3.411   9.374   1.839  0.00  0.00    -0.451 OA
BRANCH  32  34
ATOM     33  C   UNL     1       3.545  11.687   1.090  0.00  0.00    +0.048 C 
ATOM     34  C   UNL     1       4.016  10.663   2.125  0.00  0.00    +0.230 C 
ENDBRANCH  32  34
ENDBRANCH  22  32
ENDBRANCH  21  30
ENDBRANCH   1  21
TORSDOF 5
