REMARK  Name = ZINC08695743
REMARK  14 active torsions:
REMARK  status: ('A' for Active; 'I' for Inactive)
REMARK    1  A    between atoms: C_1  and  C_2
REMARK    2  A    between atoms: C_7  and  C_8
REMARK    3  A    between atoms: C_8  and  N_9
REMARK    4  A    between atoms: N_9  and  C_10
REMARK    5  A    between atoms: C_10  and  C_12
REMARK    6  A    between atoms: C_10  and  C_15
REMARK    7  A    between atoms: C_12  and  C_13
REMARK    8  A    between atoms: C_12  and  C_14
REMARK    9  A    between atoms: N_17  and  C_18
REMARK   10  A    between atoms: C_21  and  N_24
REMARK   11  A    between atoms: N_24  and  C_25
REMARK   12  A    between atoms: N_24  and  C_26
REMARK   13  A    between atoms: C_27  and  C_29
REMARK   14  A    between atoms: C_29  and  N_30
REMARK                            x       y       z     vdW  Elec       q    Type
REMARK                         _______ _______ _______ _____ _____    ______ ____
ROOT
ATOM      1  N   UNL     1      -2.549   5.339   0.152  0.00  0.00    -0.284 N 
ATOM      2  C   UNL     1      -2.791   5.824   1.386  0.00  0.00    +0.234 C 
ATOM      3  O   UNL     1      -3.348   5.132   2.211  0.00  0.00    -0.274 OA
ENDROOT
BRANCH   1   4
ATOM      4  C   UNL     1      -1.832   6.158  -0.830  0.00  0.00    +0.144 C 
BRANCH   4  11
ATOM      5  C   UNL     1      -1.714   5.370  -3.607  0.00  0.00    +0.044 C 
ATOM      6  C   UNL     1      -2.758   6.354  -3.147  0.00  0.00    -0.046 A 
ATOM      7  C   UNL     1      -3.660   6.880  -4.053  0.00  0.00    +0.003 A 
ATOM      8  C   UNL     1      -4.618   7.782  -3.631  0.00  0.00    +0.000 A 
ATOM      9  C   UNL     1      -4.675   8.159  -2.302  0.00  0.00    +0.000 A 
ATOM     10  C   UNL     1      -3.776   7.630  -1.395  0.00  0.00    +0.005 A 
ATOM     11  C   UNL     1      -2.815   6.731  -1.818  0.00  0.00    -0.027 A 
ENDBRANCH   4  11
ENDBRANCH   1   4
BRANCH   1  12
ATOM     12  C   UNL     1      -3.001   3.993  -0.208  0.00  0.00    +0.165 C 
BRANCH  12  13
ATOM     13  C   UNL     1      -1.813   3.148  -0.589  0.00  0.00    +0.238 C 
ATOM     14  O   UNL     1      -0.729   3.667  -0.758  0.00  0.00    -0.273 OA
ATOM     15  N   UNL     1      -1.954   1.817  -0.742  0.00  0.00    -0.284 N 
ATOM     16  H   UNL     1      -2.832   1.411  -0.676  0.00  0.00    +0.155 HD
BRANCH  15  17
ATOM     17  C   UNL     1      -0.830   1.018  -0.995  0.00  0.00    +0.034 A 
ATOM     18  C   UNL     1       0.206   1.506  -1.780  0.00  0.00    +0.025 A 
ATOM     19  C   UNL     1       1.310   0.717  -2.034  0.00  0.00    +0.025 A 
ATOM     20  C   UNL     1       1.384  -0.565  -1.504  0.00  0.00    +0.029 A 
ATOM     21  C   UNL     1       0.347  -1.053  -0.720  0.00  0.00    +0.025 A 
ATOM     22  C   UNL     1      -0.756  -0.264  -0.466  0.00  0.00    +0.025 A 
BRANCH  20  23
ATOM     23  N   UNL     1       2.503  -1.365  -1.762  0.00  0.00    -0.336 N 
ATOM     24  C   UNL     1       2.581  -2.717  -1.203  0.00  0.00    +0.129 C 
ATOM     25  C   UNL     1       3.596  -0.850  -2.590  0.00  0.00    +0.129 C 
ENDBRANCH  20  23
ENDBRANCH  15  17
ENDBRANCH  12  13
BRANCH  12  26
ATOM     26  C   UNL     1      -3.966   4.079  -1.392  0.00  0.00    +0.012 C 
ATOM     27  C   UNL     1      -4.393   2.669  -1.805  0.00  0.00    +0.009 C 
ATOM     28  C   UNL     1      -5.200   4.888  -0.987  0.00  0.00    +0.009 C 
ENDBRANCH  12  26
ENDBRANCH   1  12
BRANCH   2  29
ATOM     29  C   UNL     1      -2.370   7.227   1.740  0.00  0.00    +0.210 C 
BRANCH  29  30
ATOM     30  N   UNL     1      -2.595   7.459   3.169  0.00  0.00    -0.255 N 
ATOM     31  C   UNL     1      -1.653   7.206   4.163  0.00  0.00    +0.048 A 
ATOM     32  C   UNL     1      -0.357   6.711   4.095  0.00  0.00    +0.024 A 
ATOM     33  C   UNL     1       0.387   6.548   5.249  0.00  0.00    +0.002 A 
ATOM     34  C   UNL     1      -0.145   6.876   6.485  0.00  0.00    +0.001 A 
ATOM     35  C   UNL     1      -1.431   7.370   6.575  0.00  0.00    +0.014 A 
ATOM     36  C   UNL     1      -2.190   7.537   5.417  0.00  0.00    +0.048 A 
ATOM     37  C   UNL     1      -3.559   8.027   5.173  0.00  0.00    +0.250 C 
ATOM     38  O   UNL     1      -4.364   8.415   5.994  0.00  0.00    -0.282 OA
ATOM     39  C   UNL     1      -3.736   7.947   3.686  0.00  0.00    +0.292 C 
ATOM     40  O   UNL     1      -4.728   8.264   3.063  0.00  0.00    -0.266 OA
ENDBRANCH  29  30
ENDBRANCH   2  29
TORSDOF 9
