REMARK  Name = ZINC22317468
REMARK  7 active torsions:
REMARK  status: ('A' for Active; 'I' for Inactive)
REMARK    1  A    between atoms: C_1  and  O_2
REMARK    2  A    between atoms: O_2  and  C_3
REMARK    3  A    between atoms: C_3  and  C_5
REMARK    4  A    between atoms: C_5  and  C_7
REMARK    5  A    between atoms: C_5  and  N_14
REMARK    6  A    between atoms: N_17  and  C_20
REMARK    7  A    between atoms: C_21  and  N_29
REMARK                            x       y       z     vdW  Elec       q    Type
REMARK                         _______ _______ _______ _____ _____    ______ ____
ROOT
ATOM      1  N   UNL     1       3.513   2.924   0.096  0.00  0.00    +0.393 N 
ATOM      2  C   UNL     1       3.413   2.175   1.356  0.00  0.00    -0.058 C 
ATOM      3  C   UNL     1       4.483   1.081   1.382  0.00  0.00    +0.088 C 
ATOM      4  N   UNL     1       5.811   1.695   1.241  0.00  0.00    -0.316 N 
ATOM      5  C   UNL     1       5.910   2.444  -0.019  0.00  0.00    +0.088 C 
ATOM      6  C   UNL     1       4.840   3.538  -0.045  0.00  0.00    -0.058 C 
ATOM      7  H   UNL     1       3.377   2.214  -0.733  0.00  0.00    -0.080 HD
ENDROOT
BRANCH   4   8
ATOM      8  C   UNL     1       6.822   0.730   1.333  0.00  0.00    +0.172 A 
ATOM      9  C   UNL     1       7.013  -0.123   2.372  0.00  0.00    +0.242 A 
ATOM     10  N   UNL     1       8.102  -0.897   2.062  0.00  0.00    -0.279 N 
ATOM     11  C   UNL     1       8.735  -1.905   2.728  0.00  0.00    +0.095 A 
ATOM     12  C   UNL     1       9.815  -2.513   2.191  0.00  0.00    +0.018 A 
ATOM     13  C   UNL     1      10.301  -2.112   0.936  0.00  0.00    +0.005 A 
ATOM     14  C   UNL     1       9.678  -1.107   0.262  0.00  0.00    +0.047 A 
ATOM     15  C   UNL     1       8.553  -0.484   0.836  0.00  0.00    +0.141 A 
ATOM     16  N   UNL     1       7.767   0.498   0.414  0.00  0.00    -0.211 NA
BRANCH   9  17
ATOM     17  N   UNL     1       6.195  -0.204   3.609  0.00  0.00    +0.077 N 
ATOM     18  O   UNL     1       6.491   0.468   4.580  0.00  0.00    -0.125 OA
ATOM     19  O   UNL     1       5.228  -0.944   3.652  0.00  0.00    -0.125 OA
ENDBRANCH   9  17
ENDBRANCH   4   8
BRANCH   1  20
ATOM     20  C   UNL     1       2.452   3.936  -0.001  0.00  0.00    +0.075 C 
BRANCH  20  21
ATOM     21  C   UNL     1       2.515   4.603  -1.351  0.00  0.00    -0.032 A 
ATOM     22  C   UNL     1       3.025   3.917  -2.437  0.00  0.00    +0.004 A 
ATOM     23  C   UNL     1       3.083   4.529  -3.675  0.00  0.00    +0.000 A 
ATOM     24  C   UNL     1       2.636   5.828  -3.827  0.00  0.00    +0.001 A 
ATOM     25  C   UNL     1       2.120   6.512  -2.743  0.00  0.00    +0.020 A 
ATOM     26  C   UNL     1       2.061   5.901  -1.503  0.00  0.00    +0.043 A 
ATOM     27 CL   UNL     1       1.419   6.762  -0.139  0.00  0.00    -0.083 Cl
ENDBRANCH  20  21
BRANCH  20  28
ATOM     28  C   UNL     1       1.109   3.274   0.171  0.00  0.00    +0.297 C 
ATOM     29  O   UNL     1       0.960   2.118  -0.149  0.00  0.00    -0.252 OA
BRANCH  28  31
ATOM     30  C   UNL     1      -1.185   3.266   0.815  0.00  0.00    +0.280 C 
ATOM     31  O   UNL     1       0.078   3.968   0.678  0.00  0.00    -0.469 OA
ENDBRANCH  28  31
ENDBRANCH  20  28
ENDBRANCH   1  20
TORSDOF 6
