REMARK  Name = ZINC36490448
REMARK  12 active torsions:
REMARK  status: ('A' for Active; 'I' for Inactive)
REMARK    1  A    between atoms: C_1  and  C_2
REMARK    2  A    between atoms: C_2  and  C_3
REMARK    3  A    between atoms: C_2  and  C_4
REMARK    4  A    between atoms: C_2  and  N_5
REMARK    5  A    between atoms: C_6  and  C_8
REMARK    6  A    between atoms: C_8  and  C_10
REMARK    7  A    between atoms: C_8  and  N_17
REMARK    8  A    between atoms: C_15  and  O_16
REMARK    9  A    between atoms: N_17  and  C_18
REMARK   10  A    between atoms: C_24  and  C_26
REMARK   11  A    between atoms: C_26  and  N_27
REMARK   12  A    between atoms: C_28  and  C_30
REMARK                            x       y       z     vdW  Elec       q    Type
REMARK                         _______ _______ _______ _____ _____    ______ ____
ROOT
ATOM      1  N   UNL     1       4.153   0.011  -2.629  0.00  0.00    -0.281 N 
ATOM      2  C   UNL     1       4.660   0.946  -3.457  0.00  0.00    +0.234 C 
ATOM      3  O   UNL     1       4.077   1.228  -4.482  0.00  0.00    -0.274 OA
ENDROOT
BRANCH   1   4
ATOM      4  C   UNL     1       4.915  -0.416  -1.452  0.00  0.00    +0.077 C 
ATOM      5  C   UNL     1       6.157  -1.188  -1.901  0.00  0.00    +0.022 C 
ATOM      6  C   UNL     1       6.952  -1.634  -0.672  0.00  0.00    +0.002 C 
ATOM      7  C   UNL     1       6.078  -2.536   0.201  0.00  0.00    +0.000 C 
ATOM      8  C   UNL     1       4.836  -1.764   0.650  0.00  0.00    +0.002 C 
ATOM      9  C   UNL     1       4.041  -1.319  -0.579  0.00  0.00    +0.022 C 
ENDBRANCH   1   4
BRANCH   1  10
ATOM     10  C   UNL     1       2.841  -0.578  -2.905  0.00  0.00    +0.196 C 
BRANCH  10  11
ATOM     11  C   UNL     1       1.823   0.520  -3.076  0.00  0.00    +0.023 A 
ATOM     12  C   UNL     1       1.394   0.874  -4.341  0.00  0.00    +0.009 A 
ATOM     13  C   UNL     1       0.461   1.882  -4.499  0.00  0.00    +0.001 A 
ATOM     14  C   UNL     1      -0.046   2.538  -3.392  0.00  0.00    +0.004 A 
ATOM     15  C   UNL     1       0.379   2.187  -2.125  0.00  0.00    +0.046 A 
ATOM     16  C   UNL     1       1.312   1.172  -1.964  0.00  0.00    +0.122 A 
BRANCH  16  17
ATOM     17  O   UNL     1       1.728   0.822  -0.719  0.00  0.00    -0.506 OA
ATOM     18  H   UNL     1       2.499   1.315  -0.408  0.00  0.00    +0.292 HD
ENDBRANCH  16  17
ENDBRANCH  10  11
BRANCH  10  20
ATOM     19  N   UNL     1       1.817  -2.037  -4.621  0.00  0.00    -0.309 N 
ATOM     20  C   UNL     1       2.914  -1.397  -4.168  0.00  0.00    +0.239 C 
ATOM     21  O   UNL     1       3.959  -1.480  -4.778  0.00  0.00    -0.273 OA
ATOM     22  H   UNL     1       0.981  -1.970  -4.134  0.00  0.00    +0.149 HD
BRANCH  19  24
ATOM     23  C   UNL     1       2.921  -3.947  -5.675  0.00  0.00    +0.031 C 
ATOM     24  C   UNL     1       1.888  -2.832  -5.849  0.00  0.00    +0.026 C 
ATOM     25  C   UNL     1       2.300  -1.933  -7.016  0.00  0.00    +0.031 C 
ATOM     26  C   UNL     1       0.517  -3.448  -6.138  0.00  0.00    +0.031 C 
ENDBRANCH  19  24
ENDBRANCH  10  20
ENDBRANCH   1  10
BRANCH   2  27
ATOM     27  C   UNL     1       5.952   1.640  -3.109  0.00  0.00    +0.200 C 
BRANCH  27  28
ATOM     28  N   UNL     1       6.211   2.705  -4.081  0.00  0.00    -0.303 N 
ATOM     29  C   UNL     1       7.318   3.465  -3.968  0.00  0.00    +0.244 C 
ATOM     30  O   UNL     1       8.102   3.267  -3.060  0.00  0.00    -0.270 OA
ATOM     31  H   UNL     1       5.586   2.863  -4.805  0.00  0.00    +0.150 HD
BRANCH  29  32
ATOM     32  C   UNL     1       7.580   4.540  -4.949  0.00  0.00    +0.037 A 
ATOM     33  C   UNL     1       6.679   4.774  -5.989  0.00  0.00    +0.013 A 
ATOM     34  C   UNL     1       6.929   5.779  -6.901  0.00  0.00    +0.001 A 
ATOM     35  C   UNL     1       8.069   6.554  -6.786  0.00  0.00    +0.000 A 
ATOM     36  C   UNL     1       8.966   6.327  -5.757  0.00  0.00    +0.001 A 
ATOM     37  C   UNL     1       8.725   5.329  -4.835  0.00  0.00    +0.013 A 
ENDBRANCH  29  32
ENDBRANCH  27  28
ENDBRANCH   2  27
TORSDOF 9
