REMARK  Name = ZINC05851654
REMARK  4 active torsions:
REMARK  status: ('A' for Active; 'I' for Inactive)
REMARK    1  A    between atoms: C_1  and  C_2
REMARK    2  A    between atoms: C_5  and  N_8
REMARK    3  A    between atoms: C_19  and  C_20
REMARK    4  A    between atoms: C_25  and  O_26
REMARK                            x       y       z     vdW  Elec       q    Type
REMARK                         _______ _______ _______ _____ _____    ______ ____
ROOT
ATOM      1  N   UNL     1       5.680  10.675   1.665  0.00  0.00    -0.327 N 
ATOM      2  C   UNL     1       6.085   9.263   1.701  0.00  0.00    +0.124 C 
ATOM      3  C   UNL     1       5.501   8.536   0.485  0.00  0.00    +0.125 C 
ATOM      4  N   UNL     1       4.049   8.766   0.455  0.00  0.00    -0.308 N 
ATOM      5  C   UNL     1       3.562  10.151   0.548  0.00  0.00    +0.125 C 
ATOM      6  C   UNL     1       4.221  10.813   1.768  0.00  0.00    +0.124 C 
ATOM      7  C   UNL     1       3.174   7.719   0.339  0.00  0.00    +0.154 C 
ATOM      8  N   UNL     1       3.446   6.428   0.241  0.00  0.00    -0.154 NA
ATOM      9  C   UNL     1       2.506   5.514   0.135  0.00  0.00    +0.276 C 
ATOM     10  O   UNL     1       2.770   4.326   0.045  0.00  0.00    -0.267 OA
ATOM     11  C   UNL     1       1.109   6.007   0.129  0.00  0.00    +0.080 C 
ATOM     12  C   UNL     1      -0.056   5.318   0.033  0.00  0.00    +0.032 C 
ATOM     13  S   UNL     1       1.389   7.768   0.275  0.00  0.00    -0.052 S 
ENDROOT
BRANCH   1  18
ATOM     14  C   UNL     1       8.293  13.644   5.728  0.00  0.00    +0.044 C 
ATOM     15  C   UNL     1       7.599  12.855   4.648  0.00  0.00    -0.050 A 
ATOM     16  C   UNL     1       6.716  13.486   3.792  0.00  0.00    +0.005 A 
ATOM     17  C   UNL     1       6.077  12.766   2.802  0.00  0.00    +0.023 A 
ATOM     18  C   UNL     1       6.324  11.406   2.665  0.00  0.00    +0.030 A 
ATOM     19  C   UNL     1       7.208  10.774   3.530  0.00  0.00    +0.023 A 
ATOM     20  C   UNL     1       7.847  11.501   4.515  0.00  0.00    +0.005 A 
ENDBRANCH   1  18
BRANCH  12  21
ATOM     21  C   UNL     1      -0.046   3.851   0.080  0.00  0.00    +0.018 A 
ATOM     22  C   UNL     1       0.783   3.180   0.987  0.00  0.00    +0.011 A 
ATOM     23  C   UNL     1       0.786   1.803   1.025  0.00  0.00    +0.001 A 
ATOM     24  C   UNL     1      -0.028   1.078   0.170  0.00  0.00    +0.004 A 
ATOM     25  C   UNL     1      -0.848   1.726  -0.734  0.00  0.00    +0.046 A 
ATOM     26  C   UNL     1      -0.869   3.110  -0.785  0.00  0.00    +0.124 A 
BRANCH  26  27
ATOM     27  O   UNL     1      -1.677   3.748  -1.670  0.00  0.00    -0.506 OA
ATOM     28  H   UNL     1      -1.265   3.917  -2.528  0.00  0.00    +0.292 HD
ENDBRANCH  26  27
ENDBRANCH  12  21
TORSDOF 3
