REMARK  Name = ZINC13078088
REMARK  6 active torsions:
REMARK  status: ('A' for Active; 'I' for Inactive)
REMARK    1  A    between atoms: C_4  and  C_7
REMARK    2  A    between atoms: C_7  and  N_53
REMARK    3  A    between atoms: C_10  and  C_31
REMARK    4  A    between atoms: C_20  and  C_21
REMARK    5  A    between atoms: C_23  and  O_29
REMARK    6  A    between atoms: C_24  and  O_28
REMARK                            x       y       z     vdW  Elec       q    Type
REMARK                         _______ _______ _______ _____ _____    ______ ____
ROOT
ATOM      1  C   UNL     1      -6.174   2.285  -1.252  0.00  0.00    -0.039 C 
ATOM      2  C   UNL     1      -6.349   3.778  -1.260  0.00  0.00    -0.024 A 
ATOM      3  C   UNL     1      -7.567   4.321  -1.643  0.00  0.00    +0.076 A 
ATOM      4  C   UNL     1      -7.693   5.779  -1.623  0.00  0.00    +0.015 A 
ATOM      5  C   UNL     1      -8.884   6.414  -1.989  0.00  0.00    +0.011 A 
ATOM      6  C   UNL     1      -8.960   7.775  -1.954  0.00  0.00    +0.001 A 
ATOM      7  C   UNL     1      -7.867   8.541  -1.556  0.00  0.00    +0.002 A 
ATOM      8  C   UNL     1      -6.693   7.956  -1.194  0.00  0.00    +0.028 A 
ATOM      9  C   UNL     1      -6.576   6.553  -1.218  0.00  0.00    +0.072 A 
ATOM     10  N   UNL     1      -5.439   5.951  -0.869  0.00  0.00    -0.247 NA
ATOM     11  C   UNL     1      -5.301   4.638  -0.880  0.00  0.00    +0.068 A 
ATOM     12  C   UNL     1      -4.005   4.041  -0.483  0.00  0.00    -0.038 C 
ATOM     13  C   UNL     1      -2.902   4.795  -0.330  0.00  0.00    +0.012 C 
ATOM     14  C   UNL     1      -3.976   2.542  -0.262  0.00  0.00    -0.040 C 
ATOM     15  N   UNL     1      -4.747   1.925  -1.364  0.00  0.00    +0.388 N 
ATOM     16  H   UNL     1      -4.385   2.276  -2.259  0.00  0.00    -0.080 HD
ENDROOT
BRANCH  13  17
ATOM     17  C   UNL     1      -1.676   4.200   0.229  0.00  0.00    -0.020 A 
ATOM     18  C   UNL     1      -1.761   3.251   1.252  0.00  0.00    +0.057 A 
ATOM     19  C   UNL     1      -0.607   2.696   1.772  0.00  0.00    +0.160 A 
ATOM     20  C   UNL     1       0.637   3.083   1.279  0.00  0.00    +0.177 A 
ATOM     21  C   UNL     1       0.723   4.026   0.263  0.00  0.00    +0.087 A 
ATOM     22  C   UNL     1      -0.424   4.588  -0.259  0.00  0.00    +0.031 A 
ATOM     23 CL   UNL     1       2.276   4.503  -0.347  0.00  0.00    -0.080 Cl
BRANCH  20  24
ATOM     24  O   UNL     1       1.770   2.536   1.793  0.00  0.00    -0.502 OA
ATOM     25  H   UNL     1       2.136   3.023   2.544  0.00  0.00    +0.292 HD
ENDBRANCH  20  24
BRANCH  19  26
ATOM     26  O   UNL     1      -0.686   1.772   2.767  0.00  0.00    -0.503 OA
ATOM     27  H   UNL     1      -0.671   2.150   3.657  0.00  0.00    +0.292 HD
ENDBRANCH  19  26
ENDBRANCH  13  17
BRANCH   3  28
ATOM     28  C   UNL     1      -8.694   3.459  -2.056  0.00  0.00    +0.387 C 
ATOM     29  O   UNL     1      -8.825   3.148  -3.223  0.00  0.00    -0.241 OA
ATOM     30  O   UNL     1      -9.576   3.019  -1.139  0.00  0.00    -0.241 OA
ENDBRANCH   3  28
BRANCH  15  31
ATOM     31  C   UNL     1      -4.593   0.457  -1.327  0.00  0.00    -0.042 C 
BRANCH  31  35
ATOM     32  C   UNL     1      -0.670  -0.542  -2.692  0.00  0.00    +0.000 A 
ATOM     33  C   UNL     1      -0.927  -0.447  -1.337  0.00  0.00    +0.000 A 
ATOM     34  C   UNL     1      -2.197  -0.123  -0.895  0.00  0.00    +0.002 A 
ATOM     35  C   UNL     1      -3.209   0.105  -1.808  0.00  0.00    -0.064 A 
ATOM     36  C   UNL     1      -2.953   0.004  -3.163  0.00  0.00    +0.002 A 
ATOM     37  C   UNL     1      -1.683  -0.314  -3.605  0.00  0.00    +0.000 A 
ENDBRANCH  31  35
ENDBRANCH  15  31
TORSDOF 6
