REMARK  Name = ZINC35642096
REMARK  15 active torsions:
REMARK  status: ('A' for Active; 'I' for Inactive)
REMARK    1  A    between atoms: C_1  and  C_2
REMARK    2  A    between atoms: C_2  and  C_3
REMARK    3  A    between atoms: N_9  and  C_12
REMARK    4  A    between atoms: C_12  and  C_13
REMARK    5  A    between atoms: C_14  and  C_33
REMARK    6  A    between atoms: C_15  and  C_23
REMARK    7  A    between atoms: N_20  and  C_21
REMARK    8  A    between atoms: C_21  and  C_22
REMARK    9  A    between atoms: C_25  and  O_31
REMARK   10  A    between atoms: C_27  and  O_29
REMARK   11  A    between atoms: O_29  and  C_30
REMARK   12  A    between atoms: O_31  and  C_32
REMARK   13  A    between atoms: C_33  and  O_35
REMARK   14  A    between atoms: O_35  and  C_36
REMARK   15  A    between atoms: C_36  and  C_37
REMARK                            x       y       z     vdW  Elec       q    Type
REMARK                         _______ _______ _______ _____ _____    ______ ____
ROOT
ATOM      1  C   UNL     1       5.498  -3.940   2.558  0.00  0.00    +0.010 C 
ATOM      2  C   UNL     1       6.123  -5.137   2.584  0.00  0.00    +0.076 C 
ATOM      3  C   UNL     1       6.655  -5.625   3.917  0.00  0.00    +0.144 C 
ATOM      4  N   UNL     1       6.445  -4.748   5.081  0.00  0.00    -0.288 N 
ATOM      5  C   UNL     1       5.800  -3.579   4.895  0.00  0.00    +0.307 C 
ATOM      6  O   UNL     1       5.622  -2.848   5.850  0.00  0.00    -0.252 OA
ATOM      7  N   UNL     1       5.355  -3.194   3.692  0.00  0.00    -0.261 N 
ATOM      8  H   UNL     1       6.762  -5.005   5.960  0.00  0.00    +0.151 HD
ENDROOT
BRANCH   3   9
ATOM      9  C   UNL     1       6.011  -6.954   4.215  0.00  0.00    -0.016 A 
ATOM     10  C   UNL     1       4.727  -7.000   4.722  0.00  0.00    +0.051 A 
ATOM     11  C   UNL     1       4.131  -8.223   4.997  0.00  0.00    +0.124 A 
ATOM     12  C   UNL     1       4.827  -9.399   4.764  0.00  0.00    +0.091 A 
ATOM     13  C   UNL     1       6.116  -9.351   4.255  0.00  0.00    +0.124 A 
ATOM     14  C   UNL     1       6.704  -8.125   3.976  0.00  0.00    +0.051 A 
BRANCH  13  15
ATOM     15  O   UNL     1       6.800 -10.502   4.025  0.00  0.00    -0.495 OA
ATOM     16  C   UNL     1       6.130 -11.727   4.331  0.00  0.00    +0.277 C 
ENDBRANCH  13  15
BRANCH  11  17
ATOM     17  O   UNL     1       2.868  -8.268   5.496  0.00  0.00    -0.495 OA
ATOM     18  C   UNL     1       2.318  -9.561   5.756  0.00  0.00    +0.277 C 
ENDBRANCH  11  17
ENDBRANCH   3   9
BRANCH   7  19
ATOM     19  C   UNL     1       4.671  -1.902   3.589  0.00  0.00    +0.111 C 
ATOM     20  C   UNL     1       3.186  -2.085   3.907  0.00  0.00    +0.025 C 
ENDBRANCH   7  19
BRANCH   2  21
ATOM     21  C   UNL     1       6.276  -5.908   1.409  0.00  0.00    +0.339 C 
ATOM     22  O   UNL     1       5.948  -5.448   0.332  0.00  0.00    -0.245 OA
BRANCH  21  23
ATOM     23  O   UNL     1       6.787  -7.155   1.482  0.00  0.00    -0.462 OA
BRANCH  23  24
ATOM     24  C   UNL     1       6.913  -7.878   0.255  0.00  0.00    +0.229 C 
ATOM     25  C   UNL     1       7.505  -9.260   0.536  0.00  0.00    +0.048 C 
ENDBRANCH  23  24
ENDBRANCH  21  23
ENDBRANCH   2  21
BRANCH   1  26
ATOM     26  C   UNL     1       4.954  -3.417   1.253  0.00  0.00    -0.026 C 
BRANCH  26  33
ATOM     27  C   UNL     1       8.369  -2.407  -2.460  0.00  0.00    +0.215 C 
ATOM     28  O   UNL     1       9.053  -3.391  -2.273  0.00  0.00    -0.276 OA
ATOM     29  N   UNL     1       7.886  -1.713  -1.410  0.00  0.00    -0.303 N 
ATOM     30  C   UNL     1       7.051  -0.522  -1.667  0.00  0.00    +0.106 C 
ATOM     31  C   UNL     1       5.854  -0.467  -0.700  0.00  0.00    +0.000 C 
ATOM     32  C   UNL     1       5.296  -1.860  -0.509  0.00  0.00    -0.077 C 
ATOM     33  N   UNL     1       5.911  -2.468   0.668  0.00  0.00    +0.384 N 
ATOM     34  C   UNL     1       7.122  -3.152   0.422  0.00  0.00    -0.059 C 
ATOM     35  C   UNL     1       8.200  -2.166  -0.070  0.00  0.00    +0.089 C 
ATOM     36  H   UNL     1       6.088  -1.742   1.346  0.00  0.00    -0.081 HD
BRANCH  27  38
ATOM     37  C   UNL     1       8.722  -2.913  -4.861  0.00  0.00    +0.013 C 
ATOM     38  C   UNL     1       8.059  -1.960  -3.865  0.00  0.00    +0.092 C 
ENDBRANCH  27  38
ENDBRANCH  26  33
ENDBRANCH   1  26
TORSDOF 10
