REMARK  Name = ZINC22063904
REMARK  11 active torsions:
REMARK  status: ('A' for Active; 'I' for Inactive)
REMARK    1  A    between atoms: C_1  and  O_2
REMARK    2  A    between atoms: O_2  and  C_3
REMARK    3  A    between atoms: C_5  and  O_37
REMARK    4  A    between atoms: C_7  and  O_36
REMARK    5  A    between atoms: C_9  and  O_35
REMARK    6  A    between atoms: C_11  and  C_14
REMARK    7  A    between atoms: C_14  and  O_15
REMARK    8  A    between atoms: O_15  and  C_16
REMARK    9  A    between atoms: C_16  and  C_17
REMARK   10  A    between atoms: C_16  and  C_23
REMARK   11  A    between atoms: C_16  and  C_29
REMARK                            x       y       z     vdW  Elec       q    Type
REMARK                         _______ _______ _______ _____ _____    ______ ____
ROOT
ATOM      1  C   UNL     1      -4.341  -0.158   2.360  0.00  0.00    +0.144 C 
ENDROOT
BRANCH   1   2
ATOM      2  C   UNL     1      -5.622  -0.655   1.741  0.00  0.00    -0.007 A 
ATOM      3  C   UNL     1      -6.798  -0.619   2.466  0.00  0.00    +0.007 A 
ATOM      4  C   UNL     1      -7.974  -1.071   1.897  0.00  0.00    +0.000 A 
ATOM      5  C   UNL     1      -7.972  -1.567   0.607  0.00  0.00    +0.000 A 
ATOM      6  C   UNL     1      -6.794  -1.609  -0.116  0.00  0.00    +0.000 A 
ATOM      7  C   UNL     1      -5.619  -1.153   0.452  0.00  0.00    +0.007 A 
ENDBRANCH   1   2
BRANCH   1   8
ATOM      8  C   UNL     1      -4.287  -0.574   3.807  0.00  0.00    -0.007 A 
ATOM      9  C   UNL     1      -3.715   0.264   4.746  0.00  0.00    +0.007 A 
ATOM     10  C   UNL     1      -3.669  -0.115   6.075  0.00  0.00    +0.000 A 
ATOM     11  C   UNL     1      -4.189  -1.336   6.463  0.00  0.00    +0.000 A 
ATOM     12  C   UNL     1      -4.757  -2.176   5.523  0.00  0.00    +0.000 A 
ATOM     13  C   UNL     1      -4.806  -1.795   4.195  0.00  0.00    +0.007 A 
ENDBRANCH   1   8
BRANCH   1  14
ATOM     14  C   UNL     1      -4.288   1.345   2.266  0.00  0.00    -0.007 A 
ATOM     15  C   UNL     1      -5.298   2.108   2.822  0.00  0.00    +0.007 A 
ATOM     16  C   UNL     1      -5.247   3.487   2.740  0.00  0.00    +0.000 A 
ATOM     17  C   UNL     1      -4.191   4.103   2.095  0.00  0.00    +0.000 A 
ATOM     18  C   UNL     1      -3.184   3.340   1.534  0.00  0.00    +0.000 A 
ATOM     19  C   UNL     1      -3.232   1.961   1.620  0.00  0.00    +0.007 A 
ENDBRANCH   1  14
BRANCH   1  20
ATOM     20  O   UNL     1      -3.226  -0.718   1.662  0.00  0.00    -0.357 OA
BRANCH  20  21
ATOM     21  C   UNL     1      -3.128  -2.139   1.770  0.00  0.00    +0.196 C 
BRANCH  21  26
ATOM     22  C   UNL     1       0.376  -2.535   0.547  0.00  0.00    +0.281 C 
ATOM     23  C   UNL     1       0.494  -4.061   0.553  0.00  0.00    +0.201 C 
ATOM     24  C   UNL     1      -0.809  -4.669   0.025  0.00  0.00    +0.179 C 
ATOM     25  C   UNL     1      -1.976  -4.173   0.885  0.00  0.00    +0.177 C 
ATOM     26  C   UNL     1      -2.001  -2.643   0.866  0.00  0.00    +0.178 C 
ATOM     27  O   UNL     1      -0.747  -2.142   1.339  0.00  0.00    -0.341 OA
BRANCH  22  29
ATOM     28  C   UNL     1       1.606  -0.534   1.027  0.00  0.00    +0.197 C 
ATOM     29  O   UNL     1       1.566  -1.962   1.091  0.00  0.00    -0.352 OA
ENDBRANCH  22  29
BRANCH  25  30
ATOM     30  O   UNL     1      -1.808  -4.631   2.228  0.00  0.00    -0.386 OA
ATOM     31  H   UNL     1      -2.553  -4.372   2.995  0.00  0.00    +0.210 HD
ENDBRANCH  25  30
BRANCH  24  32
ATOM     32  O   UNL     1      -0.734  -6.094   0.097  0.00  0.00    -0.386 OA
ATOM     33  H   UNL     1      -1.583  -6.707  -0.241  0.00  0.00    +0.210 HD
ENDBRANCH  24  32
BRANCH  23  34
ATOM     34  O   UNL     1       0.728  -4.517   1.887  0.00  0.00    -0.384 OA
ATOM     35  H   UNL     1       0.842  -5.593   2.089  0.00  0.00    +0.210 HD
ENDBRANCH  23  34
ENDBRANCH  21  26
ENDBRANCH  20  21
ENDBRANCH   1  20
TORSDOF 10
