REMARK  Name = ZINC34734701
REMARK  7 active torsions:
REMARK  status: ('A' for Active; 'I' for Inactive)
REMARK    1  A    between atoms: C_1  and  C_2
REMARK    2  A    between atoms: C_2  and  C_4
REMARK    3  A    between atoms: C_4  and  N_5
REMARK    4  A    between atoms: C_20  and  C_22
REMARK    5  A    between atoms: C_20  and  C_23
REMARK    6  A    between atoms: N_26  and  C_27
REMARK    7  A    between atoms: C_27  and  C_28
REMARK                            x       y       z     vdW  Elec       q    Type
REMARK                         _______ _______ _______ _____ _____    ______ ____
ROOT
ATOM      1  N   UNL     1      -0.652  -1.185   3.117  0.00  0.00    +0.384 N 
ATOM      2  C   UNL     1      -1.318  -1.851   4.243  0.00  0.00    -0.059 C 
ATOM      3  C   UNL     1      -2.831  -1.869   4.003  0.00  0.00    +0.089 C 
ATOM      4  N   UNL     1      -3.281  -0.489   3.762  0.00  0.00    -0.304 N 
ATOM      5  C   UNL     1      -2.559   0.310   2.759  0.00  0.00    +0.089 C 
ATOM      6  C   UNL     1      -1.059   0.224   3.058  0.00  0.00    -0.059 C 
ATOM      7  C   UNL     1      -4.344   0.038   4.452  0.00  0.00    +0.202 A 
ATOM      8  N   UNL     1      -4.251   1.248   4.963  0.00  0.00    -0.208 NA
ATOM      9  C   UNL     1      -5.263   1.783   5.636  0.00  0.00    +0.118 A 
ATOM     10  C   UNL     1      -6.473   1.096   5.837  0.00  0.00    +0.076 A 
ATOM     11  C   UNL     1      -7.493   1.814   6.598  0.00  0.00    -0.018 A 
ATOM     12  C   UNL     1      -7.179   3.054   7.029  0.00  0.00    +0.021 A 
ATOM     13  S   UNL     1      -5.528   3.336   6.455  0.00  0.00    -0.071 S 
ATOM     14  C   UNL     1      -8.063   3.968   7.820  0.00  0.00    +0.203 C 
ATOM     15  O   UNL     1      -9.399   3.441   7.772  0.00  0.00    -0.368 OA
ATOM     16  C   UNL     1      -9.471   2.043   8.066  0.00  0.00    +0.068 C 
ATOM     17  C   UNL     1      -8.867   1.230   6.918  0.00  0.00    +0.071 C 
ATOM     18  C   UNL     1      -8.697   1.756   9.354  0.00  0.00    +0.041 C 
ATOM     19  C   UNL     1     -10.935   1.641   8.257  0.00  0.00    +0.041 C 
ATOM     20  C   UNL     1      -6.545  -0.216   5.269  0.00  0.00    +0.264 A 
ATOM     21  O   UNL     1      -7.554  -0.888   5.392  0.00  0.00    -0.267 OA
ATOM     22  N   UNL     1      -5.484  -0.697   4.595  0.00  0.00    -0.276 N 
ATOM     23  H   UNL     1      -0.911  -1.645   2.256  0.00  0.00    -0.081 HD
ENDROOT
BRANCH   1  24
ATOM     24  C   UNL     1       0.804  -1.266   3.293  0.00  0.00    -0.048 C 
BRANCH  24  26
ATOM     25  C   UNL     1       1.464  -3.380   1.911  0.00  0.00    +0.036 C 
ATOM     26  C   UNL     1       1.237  -2.709   3.241  0.00  0.00    -0.096 C 
ATOM     27  C   UNL     1       1.416  -3.379   4.352  0.00  0.00    +0.005 C 
ENDBRANCH  24  26
ENDBRANCH   1  24
BRANCH  22  28
ATOM     28  C   UNL     1      -5.553  -2.037   4.008  0.00  0.00    +0.164 C 
BRANCH  28  29
ATOM     29  C   UNL     1      -6.627  -2.067   2.951  0.00  0.00    -0.009 A 
ATOM     30  C   UNL     1      -7.881  -2.563   3.254  0.00  0.00    +0.007 A 
ATOM     31  C   UNL     1      -8.866  -2.591   2.285  0.00  0.00    +0.000 A 
ATOM     32  C   UNL     1      -8.598  -2.123   1.012  0.00  0.00    +0.001 A 
ATOM     33  C   UNL     1      -7.345  -1.627   0.708  0.00  0.00    +0.020 A 
ATOM     34  C   UNL     1      -6.360  -1.593   1.679  0.00  0.00    +0.046 A 
ATOM     35 CL   UNL     1      -4.787  -0.964   1.300  0.00  0.00    -0.083 Cl
ENDBRANCH  28  29
ENDBRANCH  22  28
TORSDOF 4
