REMARK  Name = ZINC36593575
REMARK  11 active torsions:
REMARK  status: ('A' for Active; 'I' for Inactive)
REMARK    1  A    between atoms: C_1  and  O_2
REMARK    2  A    between atoms: O_2  and  C_3
REMARK    3  A    between atoms: C_7  and  C_9
REMARK    4  A    between atoms: N_22  and  C_23
REMARK    5  A    between atoms: C_23  and  C_25
REMARK    6  A    between atoms: C_23  and  C_29
REMARK    7  A    between atoms: C_25  and  C_26
REMARK    8  A    between atoms: C_26  and  S_27
REMARK    9  A    between atoms: S_27  and  C_28
REMARK   10  A    between atoms: C_29  and  O_31
REMARK   11  A    between atoms: O_31  and  C_32
REMARK                            x       y       z     vdW  Elec       q    Type
REMARK                         _______ _______ _______ _____ _____    ______ ____
ROOT
ATOM      1  C   UNL     1      -2.539  -4.184   0.009  0.00  0.00    +0.156 C 
ATOM      2  C   UNL     1      -2.967  -4.684  -1.350  0.00  0.00    +0.062 A 
ATOM      3  C   UNL     1      -4.183  -5.213  -1.605  0.00  0.00    +0.040 A 
ATOM      4  N   UNL     1      -4.204  -5.542  -2.927  0.00  0.00    -0.349 N 
ATOM      5  H   UNL     1      -4.944  -5.941  -3.410  0.00  0.00    +0.166 HD
ATOM      6  C   UNL     1      -2.997  -5.207  -3.438  0.00  0.00    +0.171 A 
ATOM      7  N   UNL     1      -2.264  -4.694  -2.484  0.00  0.00    -0.348 N 
ATOM      8  C   UNL     1      -5.276  -5.391  -0.584  0.00  0.00    +0.074 C 
ATOM      9  C   UNL     1      -4.971  -4.498   0.627  0.00  0.00    +0.116 C 
ATOM     10  N   UNL     1      -3.550  -4.636   0.982  0.00  0.00    -0.273 N 
ATOM     11  C   UNL     1      -3.181  -5.164   2.166  0.00  0.00    +0.304 C 
ATOM     12  O   UNL     1      -4.021  -5.621   2.917  0.00  0.00    -0.253 OA
ATOM     13  N   UNL     1      -1.880  -5.186   2.518  0.00  0.00    -0.286 N 
ATOM     14  H   UNL     1      -1.218  -4.755   1.955  0.00  0.00    +0.151 HD
ATOM     15  H   UNL     1      -1.354  -4.372  -2.585  0.00  0.00    +0.167 HD
ENDROOT
BRANCH   1  20
ATOM     16  C   UNL     1      -3.495  -0.554  -0.417  0.00  0.00    +0.120 A 
ATOM     17  C   UNL     1      -2.335   0.086  -0.005  0.00  0.00    +0.045 A 
ATOM     18  C   UNL     1      -1.248  -0.658   0.410  0.00  0.00    +0.004 A 
ATOM     19  C   UNL     1      -1.315  -2.039   0.415  0.00  0.00    +0.006 A 
ATOM     20  C   UNL     1      -2.470  -2.679   0.004  0.00  0.00    -0.018 A 
ATOM     21  C   UNL     1      -3.562  -1.939  -0.407  0.00  0.00    +0.051 A 
BRANCH  16  23
ATOM     22  C   UNL     1      -4.427   1.598  -0.810  0.00  0.00    +0.277 C 
ATOM     23  O   UNL     1      -4.567   0.176  -0.825  0.00  0.00    -0.495 OA
ENDBRANCH  16  23
ENDBRANCH   1  20
BRANCH  13  24
ATOM     24  C   UNL     1      -1.466  -5.860   3.752  0.00  0.00    +0.184 C 
BRANCH  24  25
ATOM     25  C   UNL     1      -1.268  -7.329   3.479  0.00  0.00    +0.327 C 
ATOM     26  O   UNL     1      -1.453  -7.767   2.368  0.00  0.00    -0.249 OA
BRANCH  25  27
ATOM     27  O   UNL     1      -0.885  -8.149   4.470  0.00  0.00    -0.467 OA
ATOM     28  C   UNL     1      -0.716  -9.530   4.140  0.00  0.00    +0.280 C 
ENDBRANCH  25  27
ENDBRANCH  24  25
BRANCH  24  29
ATOM     29  C   UNL     1      -0.153  -5.252   4.249  0.00  0.00    +0.044 C 
BRANCH  29  30
ATOM     30  C   UNL     1      -0.385  -3.792   4.644  0.00  0.00    +0.071 C 
BRANCH  30  31
ATOM     31  S   UNL     1       1.171  -3.071   5.234  0.00  0.00    -0.164 S 
ATOM     32  C   UNL     1       0.731  -1.362   5.657  0.00  0.00    +0.084 C 
ENDBRANCH  30  31
ENDBRANCH  29  30
ENDBRANCH  24  29
ENDBRANCH  13  24
TORSDOF 8
