REMARK  Name = ZINC19770159
REMARK  11 active torsions:
REMARK  status: ('A' for Active; 'I' for Inactive)
REMARK    1  A    between atoms: C_1  and  C_2
REMARK    2  A    between atoms: C_3  and  C_31
REMARK    3  A    between atoms: C_4  and  C_22
REMARK    4  A    between atoms: C_10  and  C_15
REMARK    5  A    between atoms: C_25  and  O_30
REMARK    6  A    between atoms: C_26  and  O_28
REMARK    7  A    between atoms: O_28  and  C_29
REMARK    8  A    between atoms: C_31  and  O_33
REMARK    9  A    between atoms: O_33  and  C_34
REMARK   10  A    between atoms: C_34  and  C_35
REMARK   11  A    between atoms: C_34  and  C_36
REMARK                            x       y       z     vdW  Elec       q    Type
REMARK                         _______ _______ _______ _____ _____    ______ ____
ROOT
ATOM      1  C   UNL     1      -2.765   3.806  -0.714  0.00  0.00    +0.061 C 
ATOM      2  C   UNL     1      -1.377   3.354  -0.340  0.00  0.00    +0.016 C 
ATOM      3  C   UNL     1      -0.349   4.216  -0.422  0.00  0.00    +0.065 C 
ATOM      4  C   UNL     1       1.045   3.803  -0.049  0.00  0.00    +0.092 C 
ATOM      5  C   UNL     1       1.175   2.301  -0.021  0.00  0.00    +0.024 C 
ATOM      6  C   UNL     1       0.080   1.515   0.045  0.00  0.00    +0.016 C 
ATOM      7  N   UNL     1      -1.172   2.070   0.080  0.00  0.00    -0.321 N 
ATOM      8  C   UNL     1       0.202   0.012   0.077  0.00  0.00    +0.059 C 
ATOM      9  C   UNL     1       1.514  -0.382   0.761  0.00  0.00    +0.032 C 
ATOM     10  C   UNL     1       2.674   0.256  -0.010  0.00  0.00    +0.088 C 
ATOM     11  C   UNL     1       2.466   1.745  -0.062  0.00  0.00    +0.162 C 
ATOM     12  O   UNL     1       3.430   2.481  -0.141  0.00  0.00    -0.292 OA
ATOM     13  H   UNL     1      -2.017   1.470   0.449  0.00  0.00    +0.152 HD
ENDROOT
BRANCH   9  14
ATOM     14  C   UNL     1       1.661  -1.882   0.747  0.00  0.00    -0.043 A 
ATOM     15  C   UNL     1       1.691  -2.562  -0.456  0.00  0.00    +0.005 A 
ATOM     16  C   UNL     1       1.832  -3.937  -0.470  0.00  0.00    +0.020 A 
ATOM     17  C   UNL     1       1.931  -4.634   0.722  0.00  0.00    +0.041 A 
ATOM     18  C   UNL     1       1.895  -3.953   1.925  0.00  0.00    +0.020 A 
ATOM     19  C   UNL     1       1.760  -2.578   1.938  0.00  0.00    +0.005 A 
ATOM     20 CL   UNL     1       2.100  -6.361   0.706  0.00  0.00    -0.084 Cl
ENDBRANCH   9  14
BRANCH   4  21
ATOM     21  C   UNL     1       1.375   4.354   1.314  0.00  0.00    -0.032 A 
ATOM     22  C   UNL     1       0.629   3.970   2.413  0.00  0.00    +0.008 A 
ATOM     23  C   UNL     1       0.928   4.472   3.666  0.00  0.00    +0.049 A 
ATOM     24  C   UNL     1       1.977   5.363   3.822  0.00  0.00    +0.158 A 
ATOM     25  C   UNL     1       2.728   5.750   2.716  0.00  0.00    +0.162 A 
ATOM     26  C   UNL     1       2.426   5.239   1.464  0.00  0.00    +0.054 A 
BRANCH  25  27
ATOM     27  O   UNL     1       3.759   6.625   2.865  0.00  0.00    -0.491 OA
ATOM     28  C   UNL     1       4.486   6.977   1.686  0.00  0.00    +0.277 C 
ENDBRANCH  25  27
BRANCH  24  29
ATOM     29  O   UNL     1       2.272   5.859   5.054  0.00  0.00    -0.503 OA
ATOM     30  H   UNL     1       3.106   6.566   5.176  0.00  0.00    +0.292 HD
ENDBRANCH  24  29
ENDBRANCH   4  21
BRANCH   3  31
ATOM     31  C   UNL     1      -0.586   5.537  -0.867  0.00  0.00    +0.338 C 
ATOM     32  O   UNL     1      -1.689   5.855  -1.271  0.00  0.00    -0.245 OA
BRANCH  31  33
ATOM     33  O   UNL     1       0.411   6.446  -0.844  0.00  0.00    -0.459 OA
BRANCH  33  34
ATOM     34  C   UNL     1       0.102   7.761  -1.309  0.00  0.00    +0.171 C 
ATOM     35  C   UNL     1      -0.389   8.614  -0.137  0.00  0.00    +0.052 C 
ATOM     36  C   UNL     1       1.355   8.397  -1.913  0.00  0.00    +0.052 C 
ENDBRANCH  33  34
ENDBRANCH  31  33
ENDBRANCH   3  31
TORSDOF 7
