REMARK  Name = ZINC65493119
REMARK  6 active torsions:
REMARK  status: ('A' for Active; 'I' for Inactive)
REMARK    1  A    between atoms: C_1  and  C_2
REMARK    2  A    between atoms: C_4  and  C_31
REMARK    3  A    between atoms: C_8  and  C_10
REMARK    4  A    between atoms: C_10  and  C_11
REMARK    5  A    between atoms: C_14  and  C_28
REMARK    6  A    between atoms: N_17  and  C_18
REMARK                            x       y       z     vdW  Elec       q    Type
REMARK                         _______ _______ _______ _____ _____    ______ ____
ROOT
ATOM      1  C   UNL     1       1.251  -1.075   3.454  0.00  0.00    +0.160 C 
ATOM      2  N   UNL     1       0.064  -0.645   4.233  0.00  0.00    -0.281 NA
ATOM      3  C   UNL     1       0.610  -0.517   5.612  0.00  0.00    +0.143 C 
ATOM      4  N   UNL     1       1.985  -0.013   5.366  0.00  0.00    -0.221 NA
ATOM      5  N   UNL     1       2.427  -0.668   4.240  0.00  0.00    -0.248 N 
ATOM      6  H   UNL     1      -0.286   0.240   3.899  0.00  0.00    +0.125 HD
ATOM      7  H   UNL     1       1.985   0.986   5.227  0.00  0.00    +0.146 HD
ENDROOT
BRANCH   5   8
ATOM      8  C   UNL     1       3.763  -0.907   3.900  0.00  0.00    +0.050 A 
ATOM      9  C   UNL     1       4.071  -1.579   2.724  0.00  0.00    +0.028 A 
ATOM     10  C   UNL     1       5.390  -1.816   2.389  0.00  0.00    +0.051 A 
ATOM     11  C   UNL     1       6.410  -1.383   3.223  0.00  0.00    +0.162 A 
ATOM     12  C   UNL     1       6.105  -0.708   4.399  0.00  0.00    +0.164 A 
ATOM     13  C   UNL     1       4.781  -0.467   4.734  0.00  0.00    +0.074 A 
ATOM     14  O   UNL     1       7.092  -0.268   5.226  0.00  0.00    -0.485 OA
ATOM     15  C   UNL     1       8.389  -0.847   5.045  0.00  0.00    +0.270 C 
ATOM     16  C   UNL     1       8.707  -0.854   3.543  0.00  0.00    +0.270 C 
ATOM     17  O   UNL     1       7.704  -1.629   2.877  0.00  0.00    -0.485 OA
ENDBRANCH   5   8
BRANCH   3  18
ATOM     18  C   UNL     1      -0.204   0.490   6.428  0.00  0.00    +0.022 C 
ATOM     19  C   UNL     1      -0.715   0.040   7.798  0.00  0.00    +0.007 C 
ATOM     20  C   UNL     1      -1.692   0.196   6.630  0.00  0.00    +0.007 C 
ENDBRANCH   3  18
BRANCH   1  21
ATOM     21  C   UNL     1       1.264  -0.383   2.090  0.00  0.00    +0.058 C 
BRANCH  21  29
ATOM     22  C   UNL     1      -0.018   1.503   0.010  0.00  0.00    +0.061 C 
ATOM     23  C   UNL     1       0.002  -0.004   0.002  0.00  0.00    +0.030 C 
ATOM     24  N   UNL     1       0.006  -0.674  -1.114  0.00  0.00    -0.243 NA
ATOM     25  C   UNL     1       0.024  -2.007  -1.152  0.00  0.00    +0.119 C 
ATOM     26  N   UNL     1       0.039  -2.794  -0.112  0.00  0.00    -0.165 NA
ATOM     27  C   UNL     1       0.038  -2.310   1.142  0.00  0.00    +0.246 C 
ATOM     28  O   UNL     1       0.053  -3.046   2.107  0.00  0.00    -0.273 OA
ATOM     29  C   UNL     1       0.025  -0.799   1.295  0.00  0.00    +0.124 C 
ATOM     30  C   UNL     1       0.026  -2.659  -2.511  0.00  0.00    +0.085 C 
ENDBRANCH  21  29
ENDBRANCH   1  21
TORSDOF 4
