REMARK  Name = ZINC09532927
REMARK  10 active torsions:
REMARK  status: ('A' for Active; 'I' for Inactive)
REMARK    1  A    between atoms: C_1  and  N_2
REMARK    2  A    between atoms: C_3  and  C_24
REMARK    3  A    between atoms: C_6  and  S_7
REMARK    4  A    between atoms: S_7  and  C_8
REMARK    5  A    between atoms: C_8  and  C_9
REMARK    6  A    between atoms: C_12  and  C_14
REMARK    7  A    between atoms: C_18  and  O_22
REMARK    8  A    between atoms: C_19  and  O_20
REMARK    9  A    between atoms: O_20  and  C_21
REMARK   10  A    between atoms: O_22  and  C_23
REMARK                            x       y       z     vdW  Elec       q    Type
REMARK                         _______ _______ _______ _____ _____    ______ ____
ROOT
ATOM      1  C   UNL     1       0.390  -1.910   3.671  0.00  0.00    +0.133 C 
ENDROOT
BRANCH   1   2
ATOM      2  C   UNL     1       0.538  -1.629   5.144  0.00  0.00    +0.059 A 
ATOM      3  C   UNL     1       1.775  -1.494   5.691  0.00  0.00    +0.071 A 
ATOM      4  S   UNL     1       1.349  -1.184   7.400  0.00  0.00    -0.075 S 
ATOM      5  C   UNL     1      -0.426  -1.268   7.201  0.00  0.00    +0.112 A 
ATOM      6  N   UNL     1      -0.528  -1.509   5.901  0.00  0.00    -0.243 NA
BRANCH   5   7
ATOM      7  C   UNL     1      -1.492  -1.107   8.211  0.00  0.00    +0.052 A 
ATOM      8  C   UNL     1      -2.833  -1.218   7.840  0.00  0.00    +0.014 A 
ATOM      9  C   UNL     1      -3.825  -1.066   8.785  0.00  0.00    +0.004 A 
ATOM     10  C   UNL     1      -3.499  -0.803  10.105  0.00  0.00    +0.049 A 
ATOM     11  C   UNL     1      -2.171  -0.691  10.487  0.00  0.00    +0.162 A 
ATOM     12  C   UNL     1      -1.161  -0.847   9.545  0.00  0.00    +0.171 A 
BRANCH  12  13
ATOM     13  O   UNL     1       0.142  -0.743   9.918  0.00  0.00    -0.491 OA
ATOM     14  C   UNL     1       0.731   0.558   9.861  0.00  0.00    +0.277 C 
ENDBRANCH  12  13
BRANCH  11  15
ATOM     15  O   UNL     1      -1.857  -0.433  11.785  0.00  0.00    -0.491 OA
ATOM     16  C   UNL     1      -2.946  -0.290  12.700  0.00  0.00    +0.277 C 
ENDBRANCH  11  15
ENDBRANCH   5   7
ENDBRANCH   1   2
BRANCH   1  17
ATOM     17  S   UNL     1       0.295  -0.342   2.764  0.00  0.00    -0.080 S 
BRANCH  17  23
ATOM     18  C   UNL     1       0.013   1.461   0.007  0.00  0.00    +0.153 C 
ATOM     19  N   UNL     1       0.015  -0.004   0.001  0.00  0.00    -0.305 N 
ATOM     20  C   UNL     1      -0.087  -0.831  -1.094  0.00  0.00    +0.165 A 
ATOM     21  N   UNL     1      -0.041  -2.065  -0.650  0.00  0.00    -0.128 NA
ATOM     22  N   UNL     1       0.081  -2.067   0.629  0.00  0.00    -0.122 NA
ATOM     23  C   UNL     1       0.126  -0.834   1.080  0.00  0.00    +0.192 A 
BRANCH  20  24
ATOM     24  C   UNL     1      -0.223  -0.408  -2.504  0.00  0.00    +0.019 A 
ATOM     25  C   UNL     1       0.143   0.883  -2.888  0.00  0.00    +0.013 A 
ATOM     26  C   UNL     1       0.014   1.271  -4.205  0.00  0.00    +0.021 A 
ATOM     27  C   UNL     1      -0.478   0.383  -5.146  0.00  0.00    +0.041 A 
ATOM     28  C   UNL     1      -0.843  -0.899  -4.772  0.00  0.00    +0.021 A 
ATOM     29  C   UNL     1      -0.713  -1.301  -3.459  0.00  0.00    +0.013 A 
ATOM     30 CL   UNL     1      -0.638   0.879  -6.802  0.00  0.00    -0.084 Cl
ENDBRANCH  20  24
ENDBRANCH  17  23
ENDBRANCH   1  17
TORSDOF 7
