REMARK  Name = ZINC09542469
REMARK  11 active torsions:
REMARK  status: ('A' for Active; 'I' for Inactive)
REMARK    1  A    between atoms: C_1  and  C_2
REMARK    2  A    between atoms: C_2  and  C_3
REMARK    3  A    between atoms: C_6  and  C_9
REMARK    4  A    between atoms: C_11  and  C_26
REMARK    5  A    between atoms: C_13  and  C_16
REMARK    6  A    between atoms: C_20  and  O_23
REMARK    7  A    between atoms: C_21  and  O_22
REMARK    8  A    between atoms: O_23  and  C_24
REMARK    9  A    between atoms: C_24  and  C_25
REMARK   10  A    between atoms: C_31  and  O_32
REMARK   11  A    between atoms: O_32  and  C_33
REMARK                            x       y       z     vdW  Elec       q    Type
REMARK                         _______ _______ _______ _____ _____    ______ ____
ROOT
ATOM      1  C   UNL     1       5.251   3.408  -1.497  0.00  0.00    +0.040 C 
ATOM      2  N   UNL     1       5.481   4.216  -0.531  0.00  0.00    -0.298 NA
ATOM      3  C   UNL     1       4.728   4.236   0.716  0.00  0.00    +0.084 C 
ATOM      4  C   UNL     1       3.670   2.198  -0.021  0.00  0.00    -0.028 C 
ATOM      5  C   UNL     1       4.156   2.378  -1.462  0.00  0.00    +0.044 C 
ATOM      6  N   UNL     1       3.445   3.535   0.562  0.00  0.00    +0.401 N 
ATOM      7  H   UNL     1       2.832   4.078  -0.058  0.00  0.00    -0.081 HD
ATOM      8  H   UNL     1       2.999   3.435   1.482  0.00  0.00    -0.081 HD
ENDROOT
BRANCH   3   9
ATOM      9  C   UNL     1       4.464   5.665   1.114  0.00  0.00    +0.002 A 
ATOM     10  C   UNL     1       3.290   5.997   1.762  0.00  0.00    +0.022 A 
ATOM     11  C   UNL     1       3.047   7.309   2.127  0.00  0.00    +0.018 A 
ATOM     12  C   UNL     1       3.978   8.292   1.843  0.00  0.00    +0.019 A 
ATOM     13  C   UNL     1       5.154   7.965   1.195  0.00  0.00    +0.047 A 
ATOM     14  C   UNL     1       5.402   6.648   0.834  0.00  0.00    +0.123 A 
ATOM     15 BR   UNL     1       1.439   7.760   3.014  0.00  0.00    -0.050 Br
BRANCH  14  16
ATOM     16  O   UNL     1       6.560   6.323   0.202  0.00  0.00    -0.495 OA
ATOM     17  C   UNL     1       7.480   7.386  -0.054  0.00  0.00    +0.277 C 
ENDBRANCH  14  16
ENDBRANCH   3   9
BRANCH   1  21
ATOM     18  C   UNL     1       7.693   3.647  -4.961  0.00  0.00    -0.048 A 
ATOM     19  C   UNL     1       7.917   4.507  -3.900  0.00  0.00    +0.004 A 
ATOM     20  C   UNL     1       7.127   4.435  -2.772  0.00  0.00    +0.010 A 
ATOM     21  C   UNL     1       6.100   3.492  -2.701  0.00  0.00    -0.004 A 
ATOM     22  C   UNL     1       5.883   2.624  -3.774  0.00  0.00    +0.010 A 
ATOM     23  C   UNL     1       6.677   2.711  -4.898  0.00  0.00    +0.004 A 
BRANCH  18  25
ATOM     24  C   UNL     1       9.769   2.808  -6.027  0.00  0.00    +0.009 C 
ATOM     25  C   UNL     1       8.560   3.732  -6.191  0.00  0.00    +0.032 C 
ENDBRANCH  18  25
ENDBRANCH   1  21
BRANCH   4  26
ATOM     26  C   UNL     1       2.379   1.420  -0.013  0.00  0.00    -0.016 A 
ATOM     27  C   UNL     1       1.169   2.089   0.002  0.00  0.00    +0.006 A 
ATOM     28  C   UNL     1      -0.017   1.379   0.010  0.00  0.00    +0.004 A 
ATOM     29  C   UNL     1       0.002  -0.004   0.002  0.00  0.00    +0.049 A 
ATOM     30  C   UNL     1       1.211  -0.680  -0.013  0.00  0.00    +0.162 A 
ATOM     31  C   UNL     1       2.405   0.035  -0.021  0.00  0.00    +0.160 A 
BRANCH  31  32
ATOM     32  O   UNL     1       3.594  -0.624  -0.035  0.00  0.00    -0.503 OA
ATOM     33  H   UNL     1       3.930  -0.810  -0.923  0.00  0.00    +0.292 HD
ENDBRANCH  31  32
BRANCH  30  34
ATOM     34  O   UNL     1       1.231  -2.040  -0.020  0.00  0.00    -0.489 OA
BRANCH  34  35
ATOM     35  C   UNL     1      -0.032  -2.708  -0.011  0.00  0.00    +0.226 C 
ATOM     36  C   UNL     1       0.191  -4.221  -0.021  0.00  0.00    +0.048 C 
ENDBRANCH  34  35
ENDBRANCH  30  34
ENDBRANCH   4  26
TORSDOF 8
