REMARK  Name = ZINC10508026
REMARK  7 active torsions:
REMARK  status: ('A' for Active; 'I' for Inactive)
REMARK    1  A    between atoms: C_10  and  C_11
REMARK    2  A    between atoms: C_11  and  C_13
REMARK    3  A    between atoms: C_11  and  N_53
REMARK    4  A    between atoms: C_13  and  N_14
REMARK    5  A    between atoms: N_14  and  S_15
REMARK    6  A    between atoms: S_15  and  C_18
REMARK    7  A    between atoms: C_21  and  N_24
REMARK                            x       y       z     vdW  Elec       q    Type
REMARK                         _______ _______ _______ _____ _____    ______ ____
ROOT
ATOM      1  C   UNL     1      -0.796   1.707  -1.145  0.00  0.00    -0.021 C 
ENDROOT
BRANCH   1  11
ATOM      2  C   UNL     1      -0.265  -1.933  -4.706  0.00  0.00    +0.001 A 
ATOM      3  C   UNL     1      -0.993  -1.817  -3.523  0.00  0.00    +0.001 A 
ATOM      4  C   UNL     1      -0.926  -0.687  -2.767  0.00  0.00    +0.009 A 
ATOM      5  C   UNL     1      -0.112   0.380  -3.182  0.00  0.00    -0.016 A 
ATOM      6  C   UNL     1       0.628   0.263  -4.385  0.00  0.00    -0.018 A 
ATOM      7  C   UNL     1       0.533  -0.919  -5.139  0.00  0.00    +0.008 A 
ATOM      8  C   UNL     1       1.443   1.330  -4.800  0.00  0.00    +0.008 A 
ATOM      9  C   UNL     1       1.510   2.459  -4.043  0.00  0.00    +0.001 A 
ATOM     10  C   UNL     1       0.779   2.577  -2.863  0.00  0.00    +0.002 A 
ATOM     11  C   UNL     1      -0.017   1.562  -2.427  0.00  0.00    -0.052 A 
ENDBRANCH   1  11
BRANCH   1  16
ATOM     12  C   UNL     1      -1.837   3.759  -1.941  0.00  0.00    -0.078 C 
ATOM     13  C   UNL     1      -2.404   5.029  -1.258  0.00  0.00    -0.020 C 
ATOM     14  C   UNL     1      -2.690   4.548   0.183  0.00  0.00    -0.020 C 
ATOM     15  C   UNL     1      -1.792   3.313   0.381  0.00  0.00    -0.078 C 
ATOM     16  N   UNL     1      -1.038   3.154  -0.863  0.00  0.00    +0.385 N 
ATOM     17  H   UNL     1      -0.136   3.637  -0.786  0.00  0.00    -0.081 HD
ENDBRANCH   1  16
BRANCH   1  18
ATOM     18  C   UNL     1      -0.004   1.083   0.006  0.00  0.00    +0.095 C 
BRANCH  18  19
ATOM     19  N   UNL     1       1.222   1.853   0.228  0.00  0.00    -0.191 NA
ATOM     20  H   UNL     1       1.541   2.465  -0.453  0.00  0.00    +0.148 HD
BRANCH  19  21
ATOM     21  S   UNL     1       2.065   1.677   1.643  0.00  0.00    +0.058 S 
ATOM     22  O   UNL     1       3.203   2.523   1.546  0.00  0.00    -0.153 OA
ATOM     23  O   UNL     1       1.119   1.791   2.696  0.00  0.00    -0.153 OA
BRANCH  21  24
ATOM     24  C   UNL     1       2.671   0.023   1.686  0.00  0.00    +0.105 A 
ATOM     25  C   UNL     1       1.909  -0.977   2.261  0.00  0.00    +0.031 A 
ATOM     26  C   UNL     1       2.382  -2.276   2.292  0.00  0.00    +0.034 A 
ATOM     27  C   UNL     1       3.621  -2.573   1.756  0.00  0.00    +0.126 A 
ATOM     28  C   UNL     1       4.385  -1.572   1.185  0.00  0.00    +0.034 A 
ATOM     29  C   UNL     1       3.910  -0.274   1.150  0.00  0.00    +0.031 A 
BRANCH  27  30
ATOM     30  N   UNL     1       4.129  -3.962   1.792  0.00  0.00    +0.056 N 
ATOM     31  O   UNL     1       5.221  -4.224   1.319  0.00  0.00    -0.126 OA
ATOM     32  O   UNL     1       3.456  -4.844   2.295  0.00  0.00    -0.126 OA
ENDBRANCH  27  30
ENDBRANCH  21  24
ENDBRANCH  19  21
ENDBRANCH  18  19
ENDBRANCH   1  18
TORSDOF 7
