REMARK  Name = ZINC08599460
REMARK  11 active torsions:
REMARK  status: ('A' for Active; 'I' for Inactive)
REMARK    1  A    between atoms: C_1  and  C_2
REMARK    2  A    between atoms: C_4  and  C_38
REMARK    3  A    between atoms: C_6  and  N_8
REMARK    4  A    between atoms: C_9  and  C_11
REMARK    5  A    between atoms: C_11  and  C_13
REMARK    6  A    between atoms: C_11  and  N_20
REMARK    7  A    between atoms: C_13  and  C_14
REMARK    8  A    between atoms: N_20  and  S_21
REMARK    9  A    between atoms: S_21  and  C_24
REMARK   10  A    between atoms: N_32  and  C_37
REMARK   11  A    between atoms: N_35  and  C_36
REMARK                            x       y       z     vdW  Elec       q    Type
REMARK                         _______ _______ _______ _____ _____    ______ ____
ROOT
ATOM      1  C   UNL     1       0.280  -2.900   4.854  0.00  0.00    +0.167 C 
ENDROOT
BRANCH   1   3
ATOM      2  N   UNL     1       0.052  -2.797   2.393  0.00  0.00    -0.284 N 
ATOM      3  C   UNL     1       0.150  -2.134   3.562  0.00  0.00    +0.236 C 
ATOM      4  O   UNL     1       0.134  -0.922   3.575  0.00  0.00    -0.274 OA
ATOM      5  H   UNL     1      -0.012  -3.765   2.388  0.00  0.00    +0.155 HD
BRANCH   2  11
ATOM      6  C   UNL     1      -1.512  -2.365  -2.248  0.00  0.00    +0.044 C 
ATOM      7  C   UNL     1      -0.707  -1.857  -1.080  0.00  0.00    -0.048 A 
ATOM      8  C   UNL     1       0.025  -0.690  -1.201  0.00  0.00    +0.006 A 
ATOM      9  C   UNL     1       0.765  -0.220  -0.131  0.00  0.00    -0.048 A 
ATOM     10  C   UNL     1       0.776  -0.916   1.061  0.00  0.00    +0.026 A 
ATOM     11  C   UNL     1       0.043  -2.089   1.186  0.00  0.00    +0.034 A 
ATOM     12  C   UNL     1      -0.704  -2.555   0.112  0.00  0.00    +0.026 A 
ATOM     13  C   UNL     1       1.561   1.052  -0.268  0.00  0.00    +0.044 C 
ENDBRANCH   2  11
ENDBRANCH   1   3
BRANCH   1  14
ATOM     14  N   UNL     1       0.370  -1.959   5.973  0.00  0.00    -0.178 NA
ATOM     15  H   UNL     1      -0.129  -1.127   5.947  0.00  0.00    +0.149 HD
BRANCH  14  16
ATOM     16  S   UNL     1       1.321  -2.315   7.280  0.00  0.00    +0.059 S 
ATOM     17  O   UNL     1       1.220  -1.211   8.169  0.00  0.00    -0.153 OA
ATOM     18  O   UNL     1       0.993  -3.641   7.672  0.00  0.00    -0.153 OA
BRANCH  16  19
ATOM     19  C   UNL     1       2.990  -2.355   6.715  0.00  0.00    +0.106 A 
ATOM     20  C   UNL     1       3.530  -3.543   6.248  0.00  0.00    +0.030 A 
ATOM     21  C   UNL     1       4.836  -3.595   5.801  0.00  0.00    +0.028 A 
ATOM     22  C   UNL     1       5.614  -2.448   5.817  0.00  0.00    +0.058 A 
ATOM     23  C   UNL     1       5.067  -1.242   6.290  0.00  0.00    +0.065 A 
ATOM     24  C   UNL     1       3.747  -1.203   6.734  0.00  0.00    +0.043 A 
ATOM     25  C   UNL     1       5.922  -0.042   6.293  0.00  0.00    +0.264 A 
ATOM     26  O   UNL     1       5.498   1.025   6.692  0.00  0.00    -0.267 OA
ATOM     27  N   UNL     1       7.190  -0.158   5.842  0.00  0.00    -0.263 N 
ATOM     28  C   UNL     1       7.667  -1.333   5.400  0.00  0.00    +0.332 A 
ATOM     29  O   UNL     1       8.816  -1.382   5.005  0.00  0.00    -0.246 OA
ATOM     30  N   UNL     1       6.930  -2.456   5.376  0.00  0.00    -0.296 N 
ATOM     31  C   UNL     1       7.520  -3.701   4.880  0.00  0.00    +0.154 C 
ATOM     32  C   UNL     1       8.061   1.020   5.834  0.00  0.00    +0.157 C 
ENDBRANCH  16  19
ENDBRANCH  14  16
ENDBRANCH   1  14
BRANCH   1  33
ATOM     33  C   UNL     1      -0.945  -3.798   5.040  0.00  0.00    +0.065 C 
BRANCH  33  34
ATOM     34  C   UNL     1      -0.759  -4.653   6.266  0.00  0.00    -0.045 A 
ATOM     35  C   UNL     1      -0.149  -5.890   6.161  0.00  0.00    +0.004 A 
ATOM     36  C   UNL     1       0.021  -6.674   7.286  0.00  0.00    +0.000 A 
ATOM     37  C   UNL     1      -0.417  -6.222   8.517  0.00  0.00    +0.000 A 
ATOM     38  C   UNL     1      -1.026  -4.986   8.622  0.00  0.00    +0.000 A 
ATOM     39  C   UNL     1      -1.193  -4.199   7.498  0.00  0.00    +0.004 A 
ENDBRANCH  33  34
ENDBRANCH   1  33
TORSDOF 7
