REMARK  Name = ZINC12682515
REMARK  5 active torsions:
REMARK  status: ('A' for Active; 'I' for Inactive)
REMARK    1  A    between atoms: C_1  and  C_2
REMARK    2  A    between atoms: C_15  and  C_17
REMARK    3  A    between atoms: C_17  and  S_18
REMARK    4  A    between atoms: S_18  and  C_19
REMARK    5  A    between atoms: N_23  and  C_24
REMARK                            x       y       z     vdW  Elec       q    Type
REMARK                         _______ _______ _______ _____ _____    ______ ____
ROOT
ATOM      1  C   UNL     1       0.002  -0.004   0.002  0.00  0.00    +0.029 C 
ATOM      2  C   UNL     1      -0.019   1.526   0.010  0.00  0.00    +0.087 C 
ATOM      3  C   UNL     1       1.417   2.054  -0.000  0.00  0.00    +0.118 C 
ATOM      4  C   UNL     1       1.431   3.509  -0.386  0.00  0.00    +0.219 C 
ATOM      5  O   UNL     1       1.613   4.356   0.463  0.00  0.00    -0.275 OA
ATOM      6  N   UNL     1       1.242   3.880  -1.673  0.00  0.00    -0.284 N 
ATOM      7  C   UNL     1       0.941   2.925  -2.651  0.00  0.00    +0.055 A 
ATOM      8  C   UNL     1       1.633   2.892  -3.850  0.00  0.00    +0.025 A 
ATOM      9  C   UNL     1       1.299   1.955  -4.811  0.00  0.00    +0.002 A 
ATOM     10  C   UNL     1       0.277   1.053  -4.579  0.00  0.00    +0.002 A 
ATOM     11  C   UNL     1      -0.411   1.073  -3.380  0.00  0.00    +0.025 A 
ATOM     12  C   UNL     1      -0.075   2.001  -2.407  0.00  0.00    +0.058 A 
ATOM     13  N   UNL     1      -0.734   2.009  -1.171  0.00  0.00    -0.266 N 
ATOM     14  C   UNL     1      -2.003   2.453  -1.073  0.00  0.00    +0.230 C 
ATOM     15  O   UNL     1      -2.563   2.454   0.003  0.00  0.00    -0.274 OA
ATOM     16  H   UNL     1       1.315   4.815  -1.919  0.00  0.00    +0.155 HD
ENDROOT
BRANCH  14  17
ATOM     17  C   UNL     1      -2.726   2.947  -2.299  0.00  0.00    +0.173 C 
BRANCH  17  18
ATOM     18  S   UNL     1      -4.398   3.471  -1.844  0.00  0.00    -0.075 S 
BRANCH  18  19
ATOM     19  C   UNL     1      -4.997   3.986  -3.419  0.00  0.00    +0.214 A 
ATOM     20  N   UNL     1      -4.332   3.964  -4.555  0.00  0.00    -0.101 NA
ATOM     21  N   UNL     1      -5.064   4.405  -5.513  0.00  0.00    -0.022 NA
ATOM     22  N   UNL     1      -6.227   4.746  -5.074  0.00  0.00    -0.038 NA
ATOM     23  N   UNL     1      -6.233   4.488  -3.692  0.00  0.00    -0.187 N 
BRANCH  23  24
ATOM     24  C   UNL     1      -7.285   4.702  -2.789  0.00  0.00    +0.071 A 
ATOM     25  C   UNL     1      -8.134   5.788  -2.955  0.00  0.00    +0.028 A 
ATOM     26  C   UNL     1      -9.169   5.997  -2.065  0.00  0.00    +0.003 A 
ATOM     27  C   UNL     1      -9.361   5.126  -1.008  0.00  0.00    +0.020 A 
ATOM     28  C   UNL     1      -8.516   4.042  -0.840  0.00  0.00    +0.043 A 
ATOM     29  C   UNL     1      -7.482   3.826  -1.731  0.00  0.00    +0.048 A 
ATOM     30 CL   UNL     1      -8.761   2.950   0.488  0.00  0.00    -0.083 Cl
ENDBRANCH  23  24
ENDBRANCH  18  19
ENDBRANCH  17  18
ENDBRANCH  14  17
TORSDOF 4
