REMARK  Name = ZINC09024046
REMARK  6 active torsions:
REMARK  status: ('A' for Active; 'I' for Inactive)
REMARK    1  A    between atoms: C_5  and  C_7
REMARK    2  A    between atoms: C_7  and  S_8
REMARK    3  A    between atoms: S_8  and  C_11
REMARK    4  A    between atoms: C_14  and  C_16
REMARK    5  A    between atoms: N_21  and  S_22
REMARK    6  A    between atoms: S_22  and  C_25
REMARK                            x       y       z     vdW  Elec       q    Type
REMARK                         _______ _______ _______ _____ _____    ______ ____
ROOT
ATOM      1  C   UNL     1      -0.013   1.086   0.008  0.00  0.00    +0.167 C 
ATOM      2  C   UNL     1      -0.684   1.595   1.301  0.00  0.00    +0.031 C 
ATOM      3  C   UNL     1       0.525   1.903   2.223  0.00  0.00    +0.019 C 
ATOM      4  C   UNL     1       1.567   2.428   1.204  0.00  0.00    +0.110 C 
ATOM      5  N   UNL     1       1.363   1.605  -0.002  0.00  0.00    -0.165 NA
ENDROOT
BRANCH   1   9
ATOM      6  C   UNL     1      -2.015   1.717  -2.941  0.00  0.00    +0.361 A 
ATOM      7  N   UNL     1      -1.505   2.889  -2.692  0.00  0.00    -0.090 NA
ATOM      8  N   UNL     1      -0.755   2.816  -1.649  0.00  0.00    -0.109 NA
ATOM      9  C   UNL     1      -0.761   1.595  -1.197  0.00  0.00    +0.238 A 
ATOM     10  O   UNL     1      -1.554   0.870  -2.005  0.00  0.00    -0.406 OA
BRANCH   6  11
ATOM     11  S   UNL     1      -3.106   1.314  -4.265  0.00  0.00    +0.053 S 
ATOM     12  O   UNL     1      -3.843   0.192  -3.799  0.00  0.00    -0.165 OA
ATOM     13  O   UNL     1      -3.764   2.534  -4.577  0.00  0.00    -0.165 OA
BRANCH  11  14
ATOM     14  C   UNL     1      -2.018   0.823  -5.631  0.00  0.00    +0.215 C 
BRANCH  14  19
ATOM     15  C   UNL     1      -4.041  -1.192  -8.101  0.00  0.00    +0.000 A 
ATOM     16  C   UNL     1      -4.387  -0.227  -9.030  0.00  0.00    +0.003 A 
ATOM     17  C   UNL     1      -3.966   1.078  -8.859  0.00  0.00    +0.038 A 
ATOM     18  C   UNL     1      -3.199   1.420  -7.758  0.00  0.00    +0.128 A 
ATOM     19  C   UNL     1      -2.853   0.453  -6.830  0.00  0.00    +0.009 A 
ATOM     20  C   UNL     1      -3.270  -0.853  -7.005  0.00  0.00    +0.008 A 
ATOM     21  F   UNL     1      -2.787   2.695  -7.591  0.00  0.00    -0.205 F 
ENDBRANCH  14  19
ENDBRANCH  11  14
ENDBRANCH   6  11
ENDBRANCH   1   9
BRANCH   5  22
ATOM     22  S   UNL     1       2.496   1.312  -1.174  0.00  0.00    +0.062 S 
ATOM     23  O   UNL     1       3.767   1.493  -0.565  0.00  0.00    -0.153 OA
ATOM     24  O   UNL     1       2.121   0.096  -1.807  0.00  0.00    -0.153 OA
BRANCH  22  25
ATOM     25  C   UNL     1       2.333   2.582  -2.385  0.00  0.00    +0.109 A 
ATOM     26  C   UNL     1       1.481   2.404  -3.460  0.00  0.00    +0.032 A 
ATOM     27  C   UNL     1       1.346   3.399  -4.410  0.00  0.00    +0.051 A 
ATOM     28  C   UNL     1       2.072   4.573  -4.293  0.00  0.00    +0.166 A 
ATOM     29  C   UNL     1       2.934   4.750  -3.213  0.00  0.00    +0.168 A 
ATOM     30  C   UNL     1       3.060   3.750  -2.262  0.00  0.00    +0.078 A 
ATOM     31  O   UNL     1       3.527   5.974  -3.323  0.00  0.00    -0.453 OA
ATOM     32  C   UNL     1       2.716   6.711  -4.258  0.00  0.00    +0.466 C 
ATOM     33  O   UNL     1       2.125   5.687  -5.080  0.00  0.00    -0.453 OA
ENDBRANCH  22  25
ENDBRANCH   5  22
TORSDOF 6
