REMARK  Name = ZINC02309572
REMARK  11 active torsions:
REMARK  status: ('A' for Active; 'I' for Inactive)
REMARK    1  A    between atoms: C_1  and  C_2
REMARK    2  A    between atoms: C_2  and  O_3
REMARK    3  A    between atoms: O_3  and  C_4
REMARK    4  A    between atoms: C_7  and  C_10
REMARK    5  A    between atoms: C_12  and  C_36
REMARK    6  A    between atoms: C_13  and  S_22
REMARK    7  A    between atoms: S_22  and  C_23
REMARK    8  A    between atoms: C_23  and  C_24
REMARK    9  A    between atoms: N_26  and  C_27
REMARK   10  A    between atoms: C_30  and  C_33
REMARK   11  A    between atoms: C_33  and  C_35
REMARK                            x       y       z     vdW  Elec       q    Type
REMARK                         _______ _______ _______ _____ _____    ______ ____
ROOT
ATOM      1  C   UNL     1       1.115  -6.022  -1.855  0.00  0.00    +0.097 C 
ATOM      2  C   UNL     1       0.353  -6.419  -3.107  0.00  0.00    +0.073 C 
ATOM      3  C   UNL     1       1.066  -7.061  -4.106  0.00  0.00    +0.112 C 
ATOM      4  N   UNL     1       2.368  -7.329  -3.993  0.00  0.00    -0.244 NA
ATOM      5  C   UNL     1       3.121  -7.033  -2.963  0.00  0.00    +0.050 C 
ATOM      6  C   UNL     1       2.590  -6.377  -1.842  0.00  0.00    +0.029 C 
ATOM      7  C   UNL     1       3.345  -6.064  -0.777  0.00  0.00    +0.162 C 
ATOM      8  C   UNL     1       4.812  -6.401  -0.733  0.00  0.00    +0.080 C 
ATOM      9  C   UNL     1       5.069  -7.656  -1.571  0.00  0.00    +0.014 C 
ATOM     10  C   UNL     1       4.585  -7.405  -2.991  0.00  0.00    +0.056 C 
ATOM     11  O   UNL     1       2.779  -5.437   0.273  0.00  0.00    -0.292 OA
ENDROOT
BRANCH   1  15
ATOM     12  C   UNL     1       0.754  -1.794  -1.356  0.00  0.00    +0.121 A 
ATOM     13  C   UNL     1       0.230  -2.653  -0.401  0.00  0.00    +0.046 A 
ATOM     14  C   UNL     1       0.348  -4.020  -0.565  0.00  0.00    +0.008 A 
ATOM     15  C   UNL     1       0.988  -4.531  -1.679  0.00  0.00    -0.034 A 
ATOM     16  C   UNL     1       1.511  -3.676  -2.632  0.00  0.00    +0.008 A 
ATOM     17  C   UNL     1       1.390  -2.309  -2.476  0.00  0.00    +0.046 A 
BRANCH  12  18
ATOM     18  O   UNL     1       0.639  -0.449  -1.197  0.00  0.00    -0.492 OA
BRANCH  18  20
ATOM     19  C   UNL     1      -0.060   1.540  -0.016  0.00  0.00    +0.048 C 
ATOM     20  C   UNL     1      -0.028   0.011  -0.020  0.00  0.00    +0.225 C 
ENDBRANCH  18  20
ENDBRANCH  12  18
ENDBRANCH   1  15
BRANCH   2  21
ATOM     21  C   UNL     1      -1.044  -6.141  -3.249  0.00  0.00    +0.098 C 
ATOM     22  N   UNL     1      -2.153  -5.921  -3.362  0.00  0.00    -0.191 NA
ENDBRANCH   2  21
BRANCH   3  23
ATOM     23  S   UNL     1       0.224  -7.540  -5.577  0.00  0.00    -0.096 S 
BRANCH  23  24
ATOM     24  C   UNL     1       1.512  -8.327  -6.584  0.00  0.00    +0.172 C 
BRANCH  24  25
ATOM     25  C   UNL     1       0.916  -8.790  -7.888  0.00  0.00    +0.227 C 
ATOM     26  O   UNL     1      -0.261  -8.608  -8.117  0.00  0.00    -0.275 OA
ATOM     27  N   UNL     1       1.692  -9.407  -8.802  0.00  0.00    -0.285 N 
ATOM     28  H   UNL     1       2.646  -9.494  -8.648  0.00  0.00    +0.155 HD
BRANCH  27  29
ATOM     29  C   UNL     1       1.124  -9.920  -9.966  0.00  0.00    +0.033 A 
ATOM     30  C   UNL     1       1.619 -11.098 -10.518  0.00  0.00    +0.024 A 
ATOM     31  C   UNL     1       1.063 -11.607 -11.664  0.00  0.00    +0.013 A 
ATOM     32  C   UNL     1      -0.004 -10.940 -12.277  0.00  0.00    +0.017 A 
ATOM     33  C   UNL     1      -0.499  -9.755 -11.718  0.00  0.00    +0.013 A 
ATOM     34  C   UNL     1       0.060  -9.256 -10.570  0.00  0.00    +0.024 A 
BRANCH  32  35
ATOM     35  C   UNL     1      -0.603 -11.480 -13.505  0.00  0.00    +0.160 C 
ATOM     36  O   UNL     1      -0.173 -12.506 -13.988  0.00  0.00    -0.292 OA
ATOM     37  C   UNL     1      -1.751 -10.760 -14.163  0.00  0.00    +0.091 C 
ENDBRANCH  32  35
ENDBRANCH  27  29
ENDBRANCH  24  25
ENDBRANCH  23  24
ENDBRANCH   3  23
TORSDOF 9
