REMARK  Name = ZINC49932084
REMARK  11 active torsions:
REMARK  status: ('A' for Active; 'I' for Inactive)
REMARK    1  A    between atoms: C_1  and  C_2
REMARK    2  A    between atoms: C_2  and  C_3
REMARK    3  A    between atoms: C_2  and  C_4
REMARK    4  A    between atoms: C_4  and  C_5
REMARK    5  A    between atoms: C_8  and  C_11
REMARK    6  A    between atoms: C_11  and  C_13
REMARK    7  A    between atoms: C_15  and  C_38
REMARK    8  A    between atoms: C_38  and  C_40
REMARK    9  A    between atoms: C_40  and  C_41
REMARK   10  A    between atoms: C_40  and  C_42
REMARK   11  A    between atoms: C_40  and  C_43
REMARK                            x       y       z     vdW  Elec       q    Type
REMARK                         _______ _______ _______ _____ _____    ______ ____
ROOT
ATOM      1  C   UNL     1      -3.911   0.031  -6.160  0.00  0.00    +0.109 C 
ATOM      2  C   UNL     1      -5.256  -0.669  -6.487  0.00  0.00    +0.152 C 
ATOM      3  N   UNL     1      -5.994   0.261  -7.345  0.00  0.00    -0.317 N 
ATOM      4  C   UNL     1      -7.323   0.198  -7.736  0.00  0.00    +0.072 C 
ATOM      5  C   UNL     1      -7.586   0.564  -9.007  0.00  0.00    +0.023 C 
ATOM      6  C   UNL     1      -6.473   0.976  -9.886  0.00  0.00    -0.019 A 
ATOM      7  C   UNL     1      -6.642   0.996 -11.272  0.00  0.00    +0.008 A 
ATOM      8  C   UNL     1      -5.599   1.387 -12.085  0.00  0.00    +0.001 A 
ATOM      9  C   UNL     1      -4.386   1.760 -11.534  0.00  0.00    +0.000 A 
ATOM     10  C   UNL     1      -4.207   1.740 -10.161  0.00  0.00    +0.006 A 
ATOM     11  C   UNL     1      -5.239   1.349  -9.340  0.00  0.00    -0.019 A 
ATOM     12  C   UNL     1      -5.072   1.305  -7.844  0.00  0.00    +0.125 C 
ATOM     13  C   UNL     1      -3.668   0.860  -7.439  0.00  0.00    +0.108 C 
ATOM     14  C   UNL     1      -2.738   1.997  -7.203  0.00  0.00    -0.008 A 
ATOM     15  C   UNL     1      -2.794   3.076  -6.347  0.00  0.00    +0.006 A 
ATOM     16  C   UNL     1      -1.732   3.972  -6.387  0.00  0.00    +0.000 A 
ATOM     17  C   UNL     1      -0.668   3.788  -7.247  0.00  0.00    +0.002 A 
ATOM     18  C   UNL     1      -0.602   2.706  -8.111  0.00  0.00    +0.023 A 
ATOM     19  C   UNL     1      -1.661   1.799  -8.081  0.00  0.00    +0.038 A 
ATOM     20  N   UNL     1      -1.851   0.645  -8.823  0.00  0.00    -0.284 N 
ATOM     21  C   UNL     1      -3.011   0.026  -8.508  0.00  0.00    +0.231 C 
ATOM     22  O   UNL     1      -3.439  -1.001  -8.991  0.00  0.00    -0.274 OA
ATOM     23  H   UNL     1      -1.227   0.321  -9.491  0.00  0.00    +0.155 HD
ENDROOT
BRANCH   1  24
ATOM     24  C   UNL     1      -4.047   0.926  -4.955  0.00  0.00    +0.170 C 
ATOM     25  O   UNL     1      -5.128   1.394  -4.667  0.00  0.00    -0.292 OA
BRANCH  24  29
ATOM     26  C   UNL     1      -0.650   1.806  -2.572  0.00  0.00    -0.047 A 
ATOM     27  C   UNL     1      -1.897   2.275  -2.194  0.00  0.00    +0.004 A 
ATOM     28  C   UNL     1      -3.006   1.993  -2.964  0.00  0.00    +0.011 A 
ATOM     29  C   UNL     1      -2.869   1.232  -4.129  0.00  0.00    +0.018 A 
ATOM     30  C   UNL     1      -1.606   0.762  -4.504  0.00  0.00    +0.011 A 
ATOM     31  C   UNL     1      -0.506   1.057  -3.727  0.00  0.00    +0.004 A 
BRANCH  26  32
ATOM     32  C   UNL     1       0.556   2.118  -1.725  0.00  0.00    +0.038 C 
BRANCH  32  34
ATOM     33  C   UNL     1       0.205   4.582  -1.946  0.00  0.00    +0.007 C 
ATOM     34  C   UNL     1       1.183   3.432  -2.195  0.00  0.00    -0.013 C 
ATOM     35  C   UNL     1       2.477   3.686  -1.419  0.00  0.00    +0.007 C 
ENDBRANCH  32  34
ENDBRANCH  26  32
ENDBRANCH  24  29
ENDBRANCH   1  24
BRANCH   2  36
ATOM     36  C   UNL     1      -5.004  -1.964  -7.217  0.00  0.00    +0.160 C 
ATOM     37  O   UNL     1      -5.225  -2.042  -8.401  0.00  0.00    -0.295 OA
BRANCH  36  38
ATOM     38  C   UNL     1      -4.477  -3.160  -6.468  0.00  0.00    +0.022 C 
ATOM     39  C   UNL     1      -4.431  -4.369  -7.406  0.00  0.00    +0.018 C 
ATOM     40  C   UNL     1      -3.067  -2.860  -5.954  0.00  0.00    +0.018 C 
ATOM     41  C   UNL     1      -5.397  -3.468  -5.285  0.00  0.00    +0.018 C 
ENDBRANCH  36  38
ENDBRANCH   2  36
TORSDOF 6
