REMARK  Name = ZINC63795791
REMARK  8 active torsions:
REMARK  status: ('A' for Active; 'I' for Inactive)
REMARK    1  A    between atoms: C_1  and  O_2
REMARK    2  A    between atoms: O_2  and  C_3
REMARK    3  A    between atoms: C_9  and  C_12
REMARK    4  A    between atoms: C_12  and  C_13
REMARK    5  A    between atoms: C_13  and  N_14
REMARK    6  A    between atoms: C_15  and  C_30
REMARK    7  A    between atoms: C_19  and  C_25
REMARK    8  A    between atoms: C_33  and  N_36
REMARK                            x       y       z     vdW  Elec       q    Type
REMARK                         _______ _______ _______ _____ _____    ______ ____
ROOT
ATOM      1  N   UNL     1      -0.752  -6.781  -1.509  0.00  0.00    -0.288 N 
ATOM      2  C   UNL     1      -0.430  -8.194  -1.834  0.00  0.00    +0.122 C 
ATOM      3  C   UNL     1      -1.561  -8.948  -1.113  0.00  0.00    +0.124 C 
ATOM      4  C   UNL     1      -1.175 -10.290  -0.558  0.00  0.00    +0.117 C 
ATOM      5  N   UNL     1      -1.322 -10.161   0.753  0.00  0.00    -0.149 NA
ATOM      6  N   UNL     1      -1.596  -8.968   1.130  0.00  0.00    -0.148 NA
ATOM      7  C   UNL     1      -1.629  -8.087   0.161  0.00  0.00    +0.136 C 
ATOM      8  C   UNL     1      -1.504  -6.736  -0.379  0.00  0.00    +0.264 C 
ATOM      9  O   UNL     1      -1.997  -5.732   0.104  0.00  0.00    -0.269 OA
ENDROOT
BRANCH   2  10
ATOM     10  C   UNL     1       0.916  -8.581  -1.280  0.00  0.00    -0.026 A 
ATOM     11  C   UNL     1       1.311  -8.122  -0.037  0.00  0.00    +0.008 A 
ATOM     12  C   UNL     1       2.546  -8.477   0.471  0.00  0.00    +0.033 A 
ATOM     13  C   UNL     1       3.387  -9.293  -0.263  0.00  0.00    +0.126 A 
ATOM     14  C   UNL     1       2.992  -9.753  -1.505  0.00  0.00    +0.033 A 
ATOM     15  C   UNL     1       1.755  -9.401  -2.012  0.00  0.00    +0.008 A 
BRANCH  13  16
ATOM     16  N   UNL     1       4.710  -9.672   0.281  0.00  0.00    +0.056 N 
ATOM     17  O   UNL     1       5.056  -9.270   1.367  0.00  0.00    -0.126 OA
ATOM     18  O   UNL     1       5.446 -10.385  -0.361  0.00  0.00    -0.126 OA
ENDBRANCH  13  16
ENDBRANCH   2  10
BRANCH   4  19
ATOM     19  C   UNL     1      -0.754 -11.428  -1.270  0.00  0.00    +0.151 A 
ATOM     20  C   UNL     1      -0.411 -12.654  -0.722  0.00  0.00    +0.051 A 
ATOM     21  C   UNL     1      -0.059 -13.483  -1.794  0.00  0.00    +0.042 A 
ATOM     22  C   UNL     1      -0.195 -12.755  -2.927  0.00  0.00    +0.196 A 
ATOM     23  O   UNL     1      -0.617 -11.524  -2.610  0.00  0.00    -0.462 OA
ENDBRANCH   4  19
BRANCH   1  24
ATOM     24  C   UNL     1      -0.319  -5.616  -2.284  0.00  0.00    +0.113 C 
BRANCH  24  25
ATOM     25  C   UNL     1       1.031  -5.126  -1.758  0.00  0.00    +0.052 C 
BRANCH  25  32
ATOM     26  C   UNL     1       0.606  -0.607  -1.056  0.00  0.00    +0.121 A 
ATOM     27  C   UNL     1       1.172   0.195  -2.062  0.00  0.00    +0.047 A 
ATOM     28  C   UNL     1       1.790  -0.325  -3.144  0.00  0.00    +0.029 A 
ATOM     29  C   UNL     1       1.886  -1.780  -3.299  0.00  0.00    +0.043 A 
ATOM     30  N   UNL     1       2.419  -2.528  -4.232  0.00  0.00    -0.380 N 
ATOM     31  C   UNL     1       2.222  -3.937  -3.871  0.00  0.00    +0.144 C 
ATOM     32  C   UNL     1       1.476  -3.927  -2.555  0.00  0.00    -0.040 C 
ATOM     33  C   UNL     1       1.290  -2.626  -2.239  0.00  0.00    +0.002 A 
ATOM     34  C   UNL     1       0.646  -1.960  -1.102  0.00  0.00    +0.055 A 
ATOM     35  H   UNL     1       2.869  -2.205  -5.029  0.00  0.00    +0.160 HD
BRANCH  26  37
ATOM     36  C   UNL     1      -0.017   1.425   0.010  0.00  0.00    +0.277 C 
ATOM     37  O   UNL     1       0.002  -0.004   0.002  0.00  0.00    -0.495 OA
ENDBRANCH  26  37
ENDBRANCH  25  32
ENDBRANCH  24  25
ENDBRANCH   1  24
TORSDOF 7
