REMARK  Name = ZINC28626620
REMARK  7 active torsions:
REMARK  status: ('A' for Active; 'I' for Inactive)
REMARK    1  A    between atoms: C_1  and  C_2
REMARK    2  A    between atoms: C_14  and  C_15
REMARK    3  A    between atoms: C_15  and  O_17
REMARK    4  A    between atoms: O_17  and  C_18
REMARK    5  A    between atoms: C_18  and  C_19
REMARK    6  A    between atoms: N_21  and  C_22
REMARK    7  A    between atoms: C_23  and  C_30
REMARK                            x       y       z     vdW  Elec       q    Type
REMARK                         _______ _______ _______ _____ _____    ______ ____
ROOT
ATOM      1  C   UNL     1       2.373   1.128  -0.015  0.00  0.00    +0.328 C 
ENDROOT
BRANCH   1   2
ATOM      2  C   UNL     1       3.555   2.062  -0.021  0.00  0.00    +0.255 C 
ATOM      3  O   UNL     1       3.380   3.262  -0.013  0.00  0.00    -0.272 OA
ATOM      4  N   UNL     1       4.807   1.564  -0.035  0.00  0.00    -0.277 N 
ATOM      5  H   UNL     1       4.966   0.475  -0.043  0.00  0.00    +0.155 HD
BRANCH   4   6
ATOM      6  C   UNL     1       5.895   2.423  -0.041  0.00  0.00    +0.084 A 
ATOM      7  C   UNL     1       7.243   2.106  -0.050  0.00  0.00    +0.068 A 
ATOM      8  C   UNL     1       8.199   3.212  -0.059  0.00  0.00    -0.023 A 
ATOM      9  C   UNL     1       7.652   4.440  -0.047  0.00  0.00    -0.004 A 
ATOM     10  S   UNL     1       5.899   4.154  -0.031  0.00  0.00    -0.077 S 
ATOM     11  C   UNL     1       8.696   5.524  -0.054  0.00  0.00    +0.043 C 
ATOM     12  C   UNL     1       9.990   4.813  -0.509  0.00  0.00    +0.010 C 
ATOM     13  C   UNL     1       9.721   3.360  -0.071  0.00  0.00    +0.037 C 
BRANCH   7  14
ATOM     14  C   UNL     1       7.694   0.711  -0.055  0.00  0.00    +0.244 C 
ATOM     15  O   UNL     1       7.875   0.133  -1.111  0.00  0.00    -0.270 OA
ATOM     16  N   UNL     1       7.909   0.068   1.110  0.00  0.00    -0.325 N 
ATOM     17  H   UNL     1       8.248  -0.979   1.107  0.00  0.00    +0.145 HD
ATOM     18  H   UNL     1       7.745   0.590   2.064  0.00  0.00    +0.145 HD
ENDBRANCH   7  14
ENDBRANCH   4   6
ENDBRANCH   1   2
BRANCH   1  19
ATOM     19  O   UNL     1       1.144   1.902   0.001  0.00  0.00    -0.450 OA
BRANCH  19  20
ATOM     20  C   UNL     1      -0.014   1.212   0.009  0.00  0.00    +0.376 C 
ATOM     21  O   UNL     1       0.002  -0.004   0.002  0.00  0.00    -0.241 OA
BRANCH  20  35
ATOM     22  C   UNL     1      -2.815  -0.134   0.015  0.00  0.00    +0.048 C 
ATOM     23  C   UNL     1      -2.523   1.345   0.021  0.00  0.00    +0.010 A 
ATOM     24  C   UNL     1      -3.476   2.394   0.032  0.00  0.00    +0.025 A 
ATOM     25  C   UNL     1      -4.886   2.417   0.038  0.00  0.00    +0.012 A 
ATOM     26  C   UNL     1      -5.559   3.591   0.049  0.00  0.00    +0.009 A 
ATOM     27  C   UNL     1      -4.857   4.816   0.052  0.00  0.00    -0.014 A 
ATOM     28  C   UNL     1      -5.544   6.040   0.062  0.00  0.00    +0.008 A 
ATOM     29  C   UNL     1      -4.843   7.208   0.066  0.00  0.00    +0.001 A 
ATOM     30  C   UNL     1      -3.451   7.209   0.059  0.00  0.00    +0.001 A 
ATOM     31  C   UNL     1      -2.752   6.039   0.049  0.00  0.00    +0.012 A 
ATOM     32  C   UNL     1      -3.442   4.817   0.045  0.00  0.00    +0.025 A 
ATOM     33  C   UNL     1      -2.747   3.588   0.035  0.00  0.00    +0.144 A 
ATOM     34  O   UNL     1      -1.440   3.270   0.033  0.00  0.00    -0.447 OA
ATOM     35  C   UNL     1      -1.295   1.928   0.019  0.00  0.00    +0.216 A 
ENDBRANCH  20  35
ENDBRANCH  19  20
ENDBRANCH   1  19
TORSDOF 6
