REMARK  Name = ZINC66602121
REMARK  6 active torsions:
REMARK  status: ('A' for Active; 'I' for Inactive)
REMARK    1  A    between atoms: C_1  and  C_2
REMARK    2  A    between atoms: C_7  and  C_8
REMARK    3  A    between atoms: C_10  and  C_13
REMARK    4  A    between atoms: N_15  and  N_16
REMARK    5  A    between atoms: C_17  and  C_19
REMARK    6  A    between atoms: C_20  and  C_28
REMARK                            x       y       z     vdW  Elec       q    Type
REMARK                         _______ _______ _______ _____ _____    ______ ____
ROOT
ATOM      1  C   UNL     1       0.082  -0.407   6.190  0.00  0.00    +0.279 C 
ATOM      2  O   UNL     1       0.016   0.329   7.155  0.00  0.00    -0.267 OA
ATOM      3  N   UNL     1       0.265  -1.731   6.363  0.00  0.00    -0.229 N 
ATOM      4  H   UNL     1       0.318  -2.319   5.593  0.00  0.00    +0.173 HD
ENDROOT
BRANCH   1   7
ATOM      5  C   UNL     1      -0.082  -0.108   2.571  0.00  0.00    +0.109 A 
ATOM      6  N   UNL     1       0.032  -0.647   3.771  0.00  0.00    -0.234 NA
ATOM      7  C   UNL     1      -0.038   0.148   4.830  0.00  0.00    +0.135 A 
ATOM      8  C   UNL     1      -0.225   1.492   4.643  0.00  0.00    +0.080 A 
ATOM      9  S   UNL     1      -0.292   1.619   2.966  0.00  0.00    -0.075 S 
BRANCH   5  16
ATOM     10  C   UNL     1       2.004  -2.027   1.991  0.00  0.00    +0.044 C 
ATOM     11  C   UNL     1       0.962  -1.690   0.955  0.00  0.00    -0.041 A 
ATOM     12  C   UNL     1       0.993  -2.303  -0.281  0.00  0.00    +0.004 A 
ATOM     13  C   UNL     1       0.037  -1.996  -1.232  0.00  0.00    +0.000 A 
ATOM     14  C   UNL     1      -0.955  -1.073  -0.952  0.00  0.00    +0.001 A 
ATOM     15  C   UNL     1      -0.997  -0.453   0.280  0.00  0.00    +0.011 A 
ATOM     16  C   UNL     1      -0.039  -0.763   1.246  0.00  0.00    +0.010 A 
ENDBRANCH   5  16
ENDBRANCH   1   7
BRANCH   3  17
ATOM     17  N   UNL     1       0.379  -2.259   7.656  0.00  0.00    -0.229 N 
ATOM     18  C   UNL     1       0.562  -3.583   7.830  0.00  0.00    +0.279 C 
ATOM     19  O   UNL     1       0.718  -4.308   6.864  0.00  0.00    -0.267 OA
ATOM     20  H   UNL     1       0.327  -1.671   8.426  0.00  0.00    +0.173 HD
BRANCH  18  21
ATOM     21  C   UNL     1       0.574  -4.132   9.137  0.00  0.00    +0.133 A 
ATOM     22  C   UNL     1      -0.510  -4.646   9.830  0.00  0.00    +0.069 A 
ATOM     23  N   UNL     1      -0.086  -5.059  11.014  0.00  0.00    -0.232 NA
ATOM     24  C   UNL     1       1.223  -4.838  11.127  0.00  0.00    +0.138 A 
ATOM     25  N   UNL     1       1.670  -4.265   9.970  0.00  0.00    -0.295 N 
ATOM     26  C   UNL     1       2.981  -3.939   9.819  0.00  0.00    +0.093 A 
ATOM     27  C   UNL     1       3.870  -4.181  10.809  0.00  0.00    +0.018 A 
ATOM     28  C   UNL     1       3.445  -4.771  12.008  0.00  0.00    +0.005 A 
ATOM     29  C   UNL     1       2.131  -5.092  12.171  0.00  0.00    +0.047 A 
ATOM     30  C   UNL     1      -1.927  -4.722   9.324  0.00  0.00    +0.068 C 
ENDBRANCH  18  21
ENDBRANCH   3  17
TORSDOF 4
