REMARK  Name = ZINC64002233
REMARK  5 active torsions:
REMARK  status: ('A' for Active; 'I' for Inactive)
REMARK    1  A    between atoms: C_1  and  C_2
REMARK    2  A    between atoms: C_7  and  C_8
REMARK    3  A    between atoms: C_15  and  C_18
REMARK    4  A    between atoms: C_18  and  N_19
REMARK    5  A    between atoms: C_20  and  C_22
REMARK                            x       y       z     vdW  Elec       q    Type
REMARK                         _______ _______ _______ _____ _____    ______ ____
ROOT
ATOM      1  N   UNL     1       1.063  -4.399   5.207  0.00  0.00    -0.311 N 
ATOM      2  C   UNL     1       0.715  -5.619   5.662  0.00  0.00    +0.219 C 
ATOM      3  O   UNL     1       0.046  -5.723   6.669  0.00  0.00    -0.275 OA
ATOM      4  H   UNL     1       1.597  -4.316   4.402  0.00  0.00    +0.149 HD
ENDROOT
BRANCH   2   5
ATOM      5  C   UNL     1       1.155  -6.854   4.920  0.00  0.00    +0.101 C 
ATOM      6  C   UNL     1       2.686  -6.910   4.876  0.00  0.00    +0.015 C 
ATOM      7  C   UNL     1       3.284  -6.821   6.279  0.00  0.00    +0.005 C 
ATOM      8  C   UNL     1       2.854  -8.038   7.116  0.00  0.00    +0.033 C 
ATOM      9  C   UNL     1       1.354  -8.136   6.996  0.00  0.00    -0.038 C 
ATOM     10  C   UNL     1       0.401  -8.243   7.912  0.00  0.00    -0.001 A 
ATOM     11  C   UNL     1       0.460  -8.425   9.372  0.00  0.00    +0.010 A 
ATOM     12  C   UNL     1      -0.735  -8.473  10.019  0.00  0.00    +0.001 A 
ATOM     13  C   UNL     1      -1.967  -8.359   9.368  0.00  0.00    +0.002 A 
ATOM     14  C   UNL     1      -2.116  -8.200   8.029  0.00  0.00    +0.026 A 
ATOM     15  C   UNL     1      -0.930  -8.144   7.239  0.00  0.00    +0.043 A 
ATOM     16  N   UNL     1      -0.782  -8.025   5.953  0.00  0.00    -0.377 N 
ATOM     17  C   UNL     1       0.642  -8.100   5.643  0.00  0.00    +0.118 C 
ATOM     18  H   UNL     1      -1.496  -7.907   5.307  0.00  0.00    +0.160 HD
ENDBRANCH   2   5
BRANCH   1  19
ATOM     19  C   UNL     1       0.634  -3.198   5.928  0.00  0.00    +0.149 C 
BRANCH  19  27
ATOM     20  C   UNL     1       0.173   0.147   2.404  0.00  0.00    +0.043 A 
ATOM     21  C   UNL     1       0.027   1.530   2.354  0.00  0.00    +0.013 A 
ATOM     22  C   UNL     1       0.099   2.278   3.511  0.00  0.00    +0.001 A 
ATOM     23  C   UNL     1       0.323   1.651   4.726  0.00  0.00    +0.007 A 
ATOM     24  C   UNL     1       0.473   0.283   4.784  0.00  0.00    -0.002 A 
ATOM     25  C   UNL     1       0.390  -0.491   3.635  0.00  0.00    +0.133 A 
ATOM     26  O   UNL     1       0.537  -1.814   3.918  0.00  0.00    -0.486 OA
ATOM     27  C   UNL     1       1.159  -1.955   5.207  0.00  0.00    +0.195 C 
ATOM     28  C   UNL     1       0.734  -0.664   5.939  0.00  0.00    +0.085 C 
BRANCH  20  35
ATOM     29  C   UNL     1      -2.058   0.532   0.603  0.00  0.00    +0.046 C 
ATOM     30  C   UNL     1      -0.978  -0.470   0.287  0.00  0.00    -0.024 A 
ATOM     31  C   UNL     1      -1.035  -1.219  -0.876  0.00  0.00    +0.007 A 
ATOM     32  C   UNL     1      -0.019  -2.131  -1.127  0.00  0.00    +0.020 A 
ATOM     33  C   UNL     1       1.012  -2.264  -0.216  0.00  0.00    +0.111 A 
ATOM     34  N   UNL     1       1.042  -1.539   0.884  0.00  0.00    -0.255 NA
ATOM     35  C   UNL     1       0.094  -0.652   1.158  0.00  0.00    +0.077 A 
ENDBRANCH  20  35
ENDBRANCH  19  27
ENDBRANCH   1  19
TORSDOF 4
