REMARK  Name = ZINC09086422
REMARK  17 active torsions:
REMARK  status: ('A' for Active; 'I' for Inactive)
REMARK    1  A    between atoms: C_1  and  C_2
REMARK    2  A    between atoms: C_2  and  O_3
REMARK    3  A    between atoms: O_3  and  C_4
REMARK    4  A    between atoms: C_4  and  C_6
REMARK    5  A    between atoms: C_7  and  S_26
REMARK    6  A    between atoms: C_9  and  N_25
REMARK    7  A    between atoms: C_10  and  C_23
REMARK    8  A    between atoms: C_11  and  C_13
REMARK    9  A    between atoms: C_16  and  O_21
REMARK   10  A    between atoms: C_17  and  O_19
REMARK   11  A    between atoms: O_19  and  C_20
REMARK   12  A    between atoms: O_21  and  C_22
REMARK   13  A    between atoms: S_26  and  C_27
REMARK   14  A    between atoms: C_27  and  C_28
REMARK   15  A    between atoms: C_29  and  C_36
REMARK   16  A    between atoms: C_30  and  C_35
REMARK   17  A    between atoms: C_32  and  C_34
REMARK                            x       y       z     vdW  Elec       q    Type
REMARK                         _______ _______ _______ _____ _____    ______ ____
ROOT
ATOM      1  C   UNL     1       2.590   0.177   1.211  0.00  0.00    +0.098 C 
ATOM      2  C   UNL     1       2.403  -1.167   1.135  0.00  0.00    +0.175 C 
ATOM      3  O   UNL     1       2.123  -1.775  -0.031  0.00  0.00    -0.434 OA
ATOM      4  C   UNL     1       2.384  -1.149  -1.193  0.00  0.00    +0.199 C 
ATOM      5  C   UNL     1       2.567   0.190  -1.252  0.00  0.00    +0.098 C 
ATOM      6  C   UNL     1       2.489   1.043  -0.016  0.00  0.00    +0.106 C 
ENDROOT
BRANCH   6   7
ATOM      7  C   UNL     1       1.176   1.782   0.000  0.00  0.00    -0.031 A 
ATOM      8  C   UNL     1      -0.013   1.076   0.008  0.00  0.00    +0.008 A 
ATOM      9  C   UNL     1      -1.220   1.749   0.017  0.00  0.00    +0.050 A 
ATOM     10  C   UNL     1      -1.240   3.135   0.030  0.00  0.00    +0.162 A 
ATOM     11  C   UNL     1      -0.044   3.845   0.022  0.00  0.00    +0.162 A 
ATOM     12  C   UNL     1       1.163   3.164   0.007  0.00  0.00    +0.054 A 
BRANCH  11  13
ATOM     13  O   UNL     1      -0.059   5.205   0.028  0.00  0.00    -0.491 OA
ATOM     14  C   UNL     1       1.207   5.868   0.018  0.00  0.00    +0.277 C 
ENDBRANCH  11  13
BRANCH  10  15
ATOM     15  O   UNL     1      -2.427   3.799   0.044  0.00  0.00    -0.491 OA
ATOM     16  C   UNL     1      -3.615   3.004   0.052  0.00  0.00    +0.277 C 
ENDBRANCH  10  15
ENDBRANCH   6   7
BRANCH   4  17
ATOM     17  N   UNL     1       2.463  -1.887  -2.347  0.00  0.00    -0.328 N 
ATOM     18  H   UNL     1       2.333  -2.848  -2.318  0.00  0.00    +0.145 HD
ATOM     19  H   UNL     1       2.651  -1.448  -3.192  0.00  0.00    +0.145 HD
ENDBRANCH   4  17
BRANCH   1  20
ATOM     20  C   UNL     1       2.881   0.766   2.450  0.00  0.00    +0.340 C 
ATOM     21  O   UNL     1       2.965   0.073   3.448  0.00  0.00    -0.245 OA
BRANCH  20  22
ATOM     22  O   UNL     1       3.068   2.101   2.536  0.00  0.00    -0.462 OA
BRANCH  22  24
ATOM     23  C   UNL     1       3.539   4.149   3.729  0.00  0.00    +0.048 C 
ATOM     24  C   UNL     1       3.361   2.633   3.829  0.00  0.00    +0.229 C 
ENDBRANCH  22  24
ENDBRANCH  20  22
ENDBRANCH   1  20
BRANCH   5  25
ATOM     25  C   UNL     1       2.841   0.805  -2.516  0.00  0.00    +0.101 C 
ATOM     26  N   UNL     1       3.058   1.293  -3.519  0.00  0.00    -0.191 NA
ENDBRANCH   5  25
BRANCH   2  27
ATOM     27  S   UNL     1       2.531  -2.136   2.601  0.00  0.00    -0.081 S 
BRANCH  27  28
ATOM     28  C   UNL     1       2.201  -3.780   1.921  0.00  0.00    +0.134 C 
BRANCH  28  29
ATOM     29  C   UNL     1       2.260  -4.803   3.026  0.00  0.00    +0.069 A 
ATOM     30  C   UNL     1       3.470  -5.430   3.325  0.00  0.00    +0.077 A 
ATOM     31  C   UNL     1       3.506  -6.373   4.360  0.00  0.00    -0.030 A 
ATOM     32  C   UNL     1       2.330  -6.650   5.035  0.00  0.00    +0.027 A 
ATOM     33  C   UNL     1       1.170  -5.989   4.674  0.00  0.00    +0.039 A 
ATOM     34  N   UNL     1       1.167  -5.101   3.698  0.00  0.00    -0.255 NA
ATOM     35  C   UNL     1      -0.112  -6.288   5.408  0.00  0.00    +0.065 C 
ATOM     36  C   UNL     1       4.790  -7.073   4.724  0.00  0.00    +0.045 C 
BRANCH  30  37
ATOM     37  C   UNL     1       4.657  -5.111   2.590  0.00  0.00    +0.101 C 
ATOM     38  N   UNL     1       5.598  -4.857   2.007  0.00  0.00    -0.191 NA
ENDBRANCH  30  37
ENDBRANCH  28  29
ENDBRANCH  27  28
ENDBRANCH   2  27
TORSDOF 12
