REMARK  Name = ZINC45696210
REMARK  8 active torsions:
REMARK  status: ('A' for Active; 'I' for Inactive)
REMARK    1  A    between atoms: C_4  and  S_21
REMARK    2  A    between atoms: C_5  and  N_7
REMARK    3  A    between atoms: N_10  and  C_11
REMARK    4  A    between atoms: C_11  and  C_12
REMARK    5  A    between atoms: C_12  and  C_13
REMARK    6  A    between atoms: C_13  and  N_14
REMARK    7  A    between atoms: S_21  and  C_22
REMARK    8  A    between atoms: C_22  and  C_23
REMARK                            x       y       z     vdW  Elec       q    Type
REMARK                         _______ _______ _______ _____ _____    ______ ____
ROOT
ATOM      1  N   UNL     1       1.187  -2.219  -0.885  0.00  0.00    -0.268 N 
ATOM      2  C   UNL     1       0.042  -2.893  -0.659  0.00  0.00    +0.304 C 
ATOM      3  O   UNL     1      -1.027  -2.321  -0.748  0.00  0.00    -0.253 OA
ATOM      4  N   UNL     1       0.082  -4.200  -0.335  0.00  0.00    -0.299 N 
ATOM      5  H   UNL     1       2.034  -2.692  -0.894  0.00  0.00    +0.156 HD
ATOM      6  H   UNL     1       0.935  -4.657  -0.264  0.00  0.00    +0.150 HD
ENDROOT
BRANCH   1  11
ATOM      7  C   UNL     1       0.023   1.272  -0.928  0.00  0.00    +0.002 A 
ATOM      8  C   UNL     1       1.088   1.901  -1.546  0.00  0.00    +0.001 A 
ATOM      9  C   UNL     1       2.189   1.169  -1.948  0.00  0.00    +0.016 A 
ATOM     10  C   UNL     1       2.229  -0.201  -1.731  0.00  0.00    +0.030 A 
ATOM     11  C   UNL     1       1.154  -0.835  -1.107  0.00  0.00    +0.048 A 
ATOM     12  C   UNL     1       0.053  -0.093  -0.708  0.00  0.00    +0.024 A 
BRANCH  10  13
ATOM     13  S   UNL     1       3.631  -1.137  -2.242  0.00  0.00    -0.114 S 
BRANCH  13  14
ATOM     14  C   UNL     1       4.735   0.097  -2.984  0.00  0.00    +0.169 C 
BRANCH  14  15
ATOM     15  C   UNL     1       5.991  -0.580  -3.469  0.00  0.00    +0.221 C 
ATOM     16  O   UNL     1       6.128  -1.776  -3.329  0.00  0.00    -0.275 OA
ATOM     17  N   UNL     1       6.962   0.145  -4.060  0.00  0.00    -0.329 N 
ATOM     18  H   UNL     1       6.853   1.103  -4.172  0.00  0.00    +0.145 HD
ATOM     19  H   UNL     1       7.771  -0.290  -4.372  0.00  0.00    +0.145 HD
ENDBRANCH  14  15
ENDBRANCH  13  14
ENDBRANCH  10  13
ENDBRANCH   1  11
BRANCH   4  20
ATOM     20  C   UNL     1      -1.163  -4.933  -0.090  0.00  0.00    +0.104 C 
BRANCH  20  21
ATOM     21  C   UNL     1      -0.839  -6.387   0.257  0.00  0.00    +0.000 C 
BRANCH  21  22
ATOM     22  C   UNL     1      -2.139  -7.152   0.513  0.00  0.00    -0.077 C 
BRANCH  22  23
ATOM     23  N   UNL     1      -1.837  -8.575   0.719  0.00  0.00    +0.380 N 
ATOM     24  C   UNL     1      -3.106  -9.329   0.744  0.00  0.00    -0.079 C 
ATOM     25  C   UNL     1      -2.817 -10.756   0.349  0.00  0.00    -0.019 C 
ATOM     26  C   UNL     1      -2.628 -11.655   1.585  0.00  0.00    -0.002 C 
ATOM     27  C   UNL     1      -1.813 -10.948   2.688  0.00  0.00    -0.002 C 
ATOM     28  C   UNL     1      -0.650 -10.168   2.132  0.00  0.00    -0.019 C 
ATOM     29  C   UNL     1      -1.091  -8.709   1.891  0.00  0.00    -0.079 C 
ATOM     30  H   UNL     1      -1.283  -8.903  -0.057  0.00  0.00    -0.082 HD
ENDBRANCH  22  23
ENDBRANCH  21  22
ENDBRANCH  20  21
ENDBRANCH   4  20
TORSDOF 8
