REMARK  Name = ZINC20464241
REMARK  7 active torsions:
REMARK  status: ('A' for Active; 'I' for Inactive)
REMARK    1  A    between atoms: C_1  and  N_2
REMARK    2  A    between atoms: C_4  and  N_21
REMARK    3  A    between atoms: C_7  and  C_9
REMARK    4  A    between atoms: C_11  and  C_14
REMARK    5  A    between atoms: C_14  and  C_15
REMARK    6  A    between atoms: C_22  and  C_24
REMARK    7  A    between atoms: C_27  and  C_30
REMARK                            x       y       z     vdW  Elec       q    Type
REMARK                         _______ _______ _______ _____ _____    ______ ____
ROOT
ATOM      1  C   UNL     1       4.327   1.862  -2.345  0.00  0.00    -0.095 C 
ATOM      2  N   UNL     1       3.455   2.295  -1.245  0.00  0.00    +0.387 N 
ATOM      3  C   UNL     1       2.029   2.156  -1.612  0.00  0.00    -0.056 C 
ATOM      4  C   UNL     1       1.314   1.785  -0.289  0.00  0.00    +0.056 C 
ATOM      5  C   UNL     1       2.364   0.863   0.386  0.00  0.00    +0.014 C 
ATOM      6  C   UNL     1       3.706   1.501  -0.028  0.00  0.00    +0.023 C 
ATOM      7  H   UNL     1       3.689   3.352  -1.052  0.00  0.00    -0.081 HD
ENDROOT
BRANCH   6   8
ATOM      8  C   UNL     1       4.720   0.424  -0.315  0.00  0.00    +0.214 A 
ATOM      9  N   UNL     1       5.877   0.262   0.280  0.00  0.00    -0.197 NA
ATOM     10  C   UNL     1       6.434  -0.817  -0.298  0.00  0.00    +0.176 A 
ATOM     11  N   UNL     1       5.602  -1.248  -1.199  0.00  0.00    -0.061 NA
ATOM     12  O   UNL     1       4.608  -0.553  -1.220  0.00  0.00    -0.340 OA
BRANCH  10  13
ATOM     13  C   UNL     1       7.775  -1.416   0.037  0.00  0.00    +0.114 C 
BRANCH  13  14
ATOM     14  C   UNL     1       7.607  -2.452   1.118  0.00  0.00    -0.040 A 
ATOM     15  C   UNL     1       7.703  -2.087   2.447  0.00  0.00    +0.004 A 
ATOM     16  C   UNL     1       7.544  -3.037   3.439  0.00  0.00    +0.000 A 
ATOM     17  C   UNL     1       7.298  -4.354   3.100  0.00  0.00    +0.000 A 
ATOM     18  C   UNL     1       7.207  -4.721   1.771  0.00  0.00    +0.000 A 
ATOM     19  C   UNL     1       7.362  -3.770   0.779  0.00  0.00    +0.004 A 
ENDBRANCH  13  14
ENDBRANCH  10  13
ENDBRANCH   6   8
BRANCH   4  20
ATOM     20  N   UNL     1       0.069   1.059  -0.551  0.00  0.00    -0.310 N 
ATOM     21  C   UNL     1      -1.094   1.732  -0.654  0.00  0.00    +0.244 C 
ATOM     22  O   UNL     1      -1.111   2.941  -0.524  0.00  0.00    -0.270 OA
ATOM     23  H   UNL     1       0.083  -0.035  -0.664  0.00  0.00    +0.149 HD
BRANCH  21  24
ATOM     24  C   UNL     1      -2.351   1.000  -0.924  0.00  0.00    +0.037 A 
ATOM     25  C   UNL     1      -2.331  -0.387  -1.079  0.00  0.00    +0.014 A 
ATOM     26  C   UNL     1      -3.501  -1.070  -1.326  0.00  0.00    +0.019 A 
ATOM     27  C   UNL     1      -4.707  -0.372  -1.432  0.00  0.00    +0.052 A 
ATOM     28  C   UNL     1      -4.726   1.016  -1.283  0.00  0.00    +0.019 A 
ATOM     29  C   UNL     1      -3.556   1.697  -1.031  0.00  0.00    +0.014 A 
BRANCH  27  30
ATOM     30  C   UNL     1      -5.923  -1.081  -1.694  0.00  0.00    +0.099 C 
ATOM     31  N   UNL     1      -6.888  -1.643  -1.901  0.00  0.00    -0.191 NA
ENDBRANCH  27  30
ENDBRANCH  21  24
ENDBRANCH   4  20
TORSDOF 6
