REMARK  Name = ZINC05044923
REMARK  10 active torsions:
REMARK  status: ('A' for Active; 'I' for Inactive)
REMARK    1  A    between atoms: C_1  and  C_2
REMARK    2  A    between atoms: C_2  and  C_3
REMARK    3  A    between atoms: C_2  and  C_4
REMARK    4  A    between atoms: C_2  and  C_5
REMARK    5  A    between atoms: C_12  and  N_32
REMARK    6  A    between atoms: C_13  and  C_30
REMARK    7  A    between atoms: C_14  and  C_16
REMARK    8  A    between atoms: C_20  and  O_22
REMARK    9  A    between atoms: O_22  and  C_23
REMARK   10  A    between atoms: C_23  and  C_24
REMARK                            x       y       z     vdW  Elec       q    Type
REMARK                         _______ _______ _______ _____ _____    ______ ____
ROOT
ATOM      1  C   UNL     1       0.915  -0.330  -1.937  0.00  0.00    +0.049 A 
ATOM      2  C   UNL     1       1.129  -1.655  -1.912  0.00  0.00    +0.050 A 
ATOM      3  C   UNL     1       2.002  -1.978  -2.973  0.00  0.00    +0.245 A 
ATOM      4  N   UNL     1       2.293  -0.878  -3.604  0.00  0.00    -0.135 NA
ATOM      5  N   UNL     1       1.617   0.179  -2.976  0.00  0.00    -0.277 N 
ATOM      6  H   UNL     1       1.648   1.112  -3.239  0.00  0.00    +0.189 HD
ATOM      7  O   UNL     1       2.411  -3.254  -3.206  0.00  0.00    -0.421 OA
ATOM      8  C   UNL     1       2.180  -4.166  -2.241  0.00  0.00    +0.201 C 
ATOM      9  C   UNL     1       1.358  -3.975  -1.189  0.00  0.00    +0.098 C 
ATOM     10  C   UNL     1       0.587  -2.699  -0.969  0.00  0.00    +0.101 C 
ENDROOT
BRANCH  10  11
ATOM     11  C   UNL     1      -0.874  -2.933  -1.255  0.00  0.00    -0.031 A 
ATOM     12  C   UNL     1      -1.302  -3.126  -2.556  0.00  0.00    +0.005 A 
ATOM     13  C   UNL     1      -2.641  -3.341  -2.821  0.00  0.00    +0.004 A 
ATOM     14  C   UNL     1      -3.557  -3.363  -1.787  0.00  0.00    +0.045 A 
ATOM     15  C   UNL     1      -3.131  -3.170  -0.481  0.00  0.00    +0.121 A 
ATOM     16  C   UNL     1      -1.785  -2.960  -0.217  0.00  0.00    +0.050 A 
BRANCH  15  17
ATOM     17  O   UNL     1      -4.029  -3.191   0.538  0.00  0.00    -0.487 OA
BRANCH  17  18
ATOM     18  C   UNL     1      -5.397  -3.418   0.193  0.00  0.00    +0.264 C 
BRANCH  18  19
ATOM     19  C   UNL     1      -6.239  -3.408   1.442  0.00  0.00    -0.010 A 
ATOM     20  C   UNL     1      -6.456  -4.582   2.139  0.00  0.00    +0.007 A 
ATOM     21  C   UNL     1      -7.229  -4.573   3.285  0.00  0.00    +0.000 A 
ATOM     22  C   UNL     1      -7.784  -3.390   3.735  0.00  0.00    +0.000 A 
ATOM     23  C   UNL     1      -7.567  -2.215   3.038  0.00  0.00    +0.000 A 
ATOM     24  C   UNL     1      -6.791  -2.224   1.895  0.00  0.00    +0.007 A 
ENDBRANCH  18  19
ENDBRANCH  17  18
ENDBRANCH  15  17
ENDBRANCH  10  11
BRANCH   1  26
ATOM     25  C   UNL     1       0.197   1.945  -1.263  0.00  0.00    +0.017 C 
ATOM     26  C   UNL     1       0.045   0.449  -0.984  0.00  0.00    +0.004 C 
ATOM     27  C   UNL     1       0.472   0.152   0.455  0.00  0.00    +0.017 C 
ATOM     28  C   UNL     1      -1.416   0.039  -1.177  0.00  0.00    +0.017 C 
ENDBRANCH   1  26
BRANCH   8  29
ATOM     29  N   UNL     1       2.826  -5.374  -2.337  0.00  0.00    -0.328 N 
ATOM     30  H   UNL     1       3.425  -5.547  -3.080  0.00  0.00    +0.145 HD
ATOM     31  H   UNL     1       2.684  -6.055  -1.660  0.00  0.00    +0.145 HD
ENDBRANCH   8  29
BRANCH   9  32
ATOM     32  C   UNL     1       1.212  -5.034  -0.236  0.00  0.00    +0.101 C 
ATOM     33  N   UNL     1       1.095  -5.874   0.520  0.00  0.00    -0.191 NA
ENDBRANCH   9  32
TORSDOF 7
