REMARK  Name = ZINC11911213
REMARK  7 active torsions:
REMARK  status: ('A' for Active; 'I' for Inactive)
REMARK    1  A    between atoms: C_1  and  N_2
REMARK    2  A    between atoms: C_3  and  C_7
REMARK    3  A    between atoms: N_9  and  C_10
REMARK    4  A    between atoms: C_10  and  C_11
REMARK    5  A    between atoms: C_21  and  C_22
REMARK    6  A    between atoms: C_21  and  N_62
REMARK    7  A    between atoms: C_31  and  O_32
REMARK                            x       y       z     vdW  Elec       q    Type
REMARK                         _______ _______ _______ _____ _____    ______ ____
ROOT
ATOM      1  C   UNL     1       0.591   1.754  -0.099  0.00  0.00    +0.136 C 
ATOM      2  C   UNL     1       0.173   2.476   1.208  0.00  0.00    +0.036 C 
ATOM      3  C   UNL     1       1.471   2.403   2.049  0.00  0.00    +0.037 C 
ATOM      4  C   UNL     1       2.579   2.171   1.007  0.00  0.00    +0.067 C 
ATOM      5  O   UNL     1       1.962   2.166  -0.288  0.00  0.00    -0.369 OA
ATOM      6  C   UNL     1       3.609   3.297   1.089  0.00  0.00    +0.016 C 
ATOM      7  C   UNL     1       4.736   3.025   0.088  0.00  0.00    -0.076 C 
ATOM      8  C   UNL     1       4.395   0.631   0.260  0.00  0.00    -0.076 C 
ATOM      9  C   UNL     1       3.257   0.826   1.266  0.00  0.00    +0.016 C 
ATOM     10  N   UNL     1       5.370   1.732   0.420  0.00  0.00    +0.383 N 
ATOM     11  H   UNL     1       5.685   1.756   1.397  0.00  0.00    -0.081 HD
ENDROOT
BRANCH   1  12
ATOM     12  C   UNL     1      -0.277   2.213  -1.273  0.00  0.00    +0.136 C 
BRANCH  12  15
ATOM     13  C   UNL     1      -0.538   1.706  -3.642  0.00  0.00    +0.262 C 
ATOM     14  O   UNL     1      -1.483   2.472  -3.673  0.00  0.00    -0.269 OA
ATOM     15  N   UNL     1       0.097   1.468  -2.477  0.00  0.00    -0.308 N 
ATOM     16  H   UNL     1       0.802   0.802  -2.436  0.00  0.00    +0.149 HD
BRANCH  13  19
ATOM     17  C   UNL     1      -1.682   2.131  -6.484  0.00  0.00    +0.173 C 
ATOM     18  N   UNL     1      -0.588   1.222  -6.133  0.00  0.00    -0.262 N 
ATOM     19  C   UNL     1      -0.089   1.040  -4.875  0.00  0.00    +0.123 A 
ATOM     20  C   UNL     1       0.928   0.109  -4.992  0.00  0.00    +0.054 A 
ATOM     21  C   UNL     1       0.971  -0.223  -6.348  0.00  0.00    +0.135 A 
ATOM     22  N   UNL     1       0.049   0.475  -6.961  0.00  0.00    -0.179 NA
ENDBRANCH  13  19
ENDBRANCH  12  15
ENDBRANCH   1  12
BRANCH  10  23
ATOM     23  C   UNL     1       6.537   1.502  -0.455  0.00  0.00    -0.039 C 
BRANCH  23  24
ATOM     24  C   UNL     1       7.383   2.749  -0.485  0.00  0.00    -0.015 A 
ATOM     25  C   UNL     1       7.166   3.727  -1.470  0.00  0.00    -0.013 A 
ATOM     26  C   UNL     1       6.164   3.570  -2.443  0.00  0.00    +0.009 A 
ATOM     27  C   UNL     1       5.981   4.537  -3.383  0.00  0.00    +0.001 A 
ATOM     28  C   UNL     1       6.773   5.684  -3.396  0.00  0.00    +0.001 A 
ATOM     29  C   UNL     1       7.745   5.875  -2.463  0.00  0.00    +0.008 A 
ATOM     30  C   UNL     1       7.968   4.895  -1.480  0.00  0.00    -0.017 A 
ATOM     31  C   UNL     1       8.975   5.051  -0.511  0.00  0.00    +0.012 A 
ATOM     32  C   UNL     1       9.164   4.083   0.426  0.00  0.00    +0.046 A 
ATOM     33  C   UNL     1       8.370   2.932   0.441  0.00  0.00    +0.119 A 
BRANCH  33  34
ATOM     34  O   UNL     1       8.583   1.984   1.391  0.00  0.00    -0.507 OA
ATOM     35  H   UNL     1       9.221   1.304   1.131  0.00  0.00    +0.292 HD
ENDBRANCH  33  34
ENDBRANCH  23  24
ENDBRANCH  10  23
TORSDOF 6
