REMARK  Name = ZINC13646816
REMARK  4 active torsions:
REMARK  status: ('A' for Active; 'I' for Inactive)
REMARK    1  A    between atoms: C_1  and  C_2
REMARK    2  A    between atoms: N_11  and  S_12
REMARK    3  A    between atoms: S_12  and  C_15
REMARK    4  A    between atoms: C_15  and  C_16
REMARK                            x       y       z     vdW  Elec       q    Type
REMARK                         _______ _______ _______ _____ _____    ______ ____
ROOT
ATOM      1  S   UNL     1      -0.017   1.417   0.010  0.00  0.00    +0.050 S 
ATOM      2  O   UNL     1       0.002  -0.004   0.002  0.00  0.00    -0.155 OA
ATOM      3  O   UNL     1       1.195   2.158   0.002  0.00  0.00    -0.155 OA
ENDROOT
BRANCH   1  13
ATOM      4  C   UNL     1       0.877   3.247  -2.547  0.00  0.00    +0.030 C 
ATOM      5  C   UNL     1      -0.583   3.101  -2.114  0.00  0.00    +0.099 C 
ATOM      6  C   UNL     1      -1.499   3.013  -3.347  0.00  0.00    +0.061 C 
ATOM      7  C   UNL     1      -2.163   1.659  -3.230  0.00  0.00    -0.023 A 
ATOM      8  C   UNL     1      -3.083   1.028  -4.044  0.00  0.00    +0.005 A 
ATOM      9  C   UNL     1      -3.549  -0.232  -3.718  0.00  0.00    +0.000 A 
ATOM     10  C   UNL     1      -3.092  -0.861  -2.575  0.00  0.00    +0.002 A 
ATOM     11  C   UNL     1      -2.173  -0.235  -1.759  0.00  0.00    +0.025 A 
ATOM     12  C   UNL     1      -1.694   1.036  -2.084  0.00  0.00    +0.054 A 
ATOM     13  N   UNL     1      -0.778   1.837  -1.400  0.00  0.00    -0.204 N 
ENDBRANCH   1  13
BRANCH   1  14
ATOM     14  C   UNL     1      -1.110   2.020   1.327  0.00  0.00    +0.225 C 
BRANCH  14  15
ATOM     15  C   UNL     1      -0.509   1.688   2.668  0.00  0.00    -0.006 A 
ATOM     16  C   UNL     1       0.345   2.584   3.284  0.00  0.00    +0.008 A 
ATOM     17  C   UNL     1       0.895   2.281   4.515  0.00  0.00    +0.020 A 
ATOM     18  C   UNL     1       0.592   1.080   5.132  0.00  0.00    +0.042 A 
ATOM     19  C   UNL     1      -0.262   0.183   4.516  0.00  0.00    +0.040 A 
ATOM     20  C   UNL     1      -0.817   0.489   3.287  0.00  0.00    +0.047 A 
ATOM     21 CL   UNL     1      -1.895  -0.633   2.517  0.00  0.00    -0.083 Cl
ATOM     22 CL   UNL     1       1.284   0.699   6.678  0.00  0.00    -0.083 Cl
ENDBRANCH  14  15
ENDBRANCH   1  14
TORSDOF 3
