REMARK  Name = ZINC64131672
REMARK  7 active torsions:
REMARK  status: ('A' for Active; 'I' for Inactive)
REMARK    1  A    between atoms: C_1  and  C_2
REMARK    2  A    between atoms: C_8  and  C_12
REMARK    3  A    between atoms: C_12  and  C_13
REMARK    4  A    between atoms: C_13  and  N_14
REMARK    5  A    between atoms: C_15  and  C_17
REMARK    6  A    between atoms: N_19  and  C_22
REMARK    7  A    between atoms: C_22  and  C_23
REMARK                            x       y       z     vdW  Elec       q    Type
REMARK                         _______ _______ _______ _____ _____    ______ ____
ROOT
ATOM      1  N   UNL     1       2.526  -2.934   5.864  0.00  0.00    -0.310 N 
ATOM      2  C   UNL     1       2.761  -3.983   6.678  0.00  0.00    +0.266 C 
ATOM      3  O   UNL     1       1.973  -4.908   6.720  0.00  0.00    -0.268 OA
ATOM      4  H   UNL     1       3.154  -2.196   5.831  0.00  0.00    +0.149 HD
ENDROOT
BRANCH   2   5
ATOM      5  C   UNL     1       3.974  -4.008   7.517  0.00  0.00    +0.167 A 
ATOM      6  C   UNL     1       4.330  -5.008   8.376  0.00  0.00    +0.143 A 
ATOM      7  N   UNL     1       5.497  -4.641   8.942  0.00  0.00    -0.251 N 
ATOM      8  N   UNL     1       5.834  -3.392   8.401  0.00  0.00    -0.065 NA
ATOM      9  N   UNL     1       4.918  -3.052   7.562  0.00  0.00    -0.125 NA
BRANCH   7  10
ATOM     10  C   UNL     1       6.265  -5.400   9.932  0.00  0.00    +0.148 C 
BRANCH  10  11
ATOM     11  C   UNL     1       7.694  -5.601   9.423  0.00  0.00    +0.010 C 
ATOM     12  C   UNL     1       7.670  -6.478   8.169  0.00  0.00    +0.005 C 
ATOM     13  C   UNL     1       9.099  -6.679   7.661  0.00  0.00    +0.000 C 
ATOM     14  C   UNL     1       9.935  -7.362   8.745  0.00  0.00    +0.000 C 
ATOM     15  C   UNL     1       9.959  -6.485   9.998  0.00  0.00    +0.000 C 
ATOM     16  C   UNL     1       8.530  -6.284  10.507  0.00  0.00    +0.005 C 
ENDBRANCH  10  11
ENDBRANCH   7  10
ENDBRANCH   2   5
BRANCH   1  17
ATOM     17  C   UNL     1       1.321  -2.910   5.030  0.00  0.00    +0.108 C 
BRANCH  17  18
ATOM     18  C   UNL     1       1.296  -1.619   4.209  0.00  0.00    +0.065 C 
BRANCH  18  26
ATOM     19  C   UNL     1      -0.018   1.503   0.010  0.00  0.00    +0.046 C 
ATOM     20  C   UNL     1       0.002  -0.004   0.002  0.00  0.00    -0.025 A 
ATOM     21  C   UNL     1       0.006  -0.676  -1.167  0.00  0.00    +0.005 A 
ATOM     22  C   UNL     1       0.025  -2.081  -1.233  0.00  0.00    +0.002 A 
ATOM     23  C   UNL     1       0.040  -2.860  -0.134  0.00  0.00    +0.027 A 
ATOM     24  C   UNL     1       0.037  -2.237   1.197  0.00  0.00    +0.060 A 
ATOM     25  N   UNL     1       0.049  -2.726   2.403  0.00  0.00    -0.363 N 
ATOM     26  C   UNL     1       0.039  -1.594   3.338  0.00  0.00    +0.175 C 
ATOM     27  N   UNL     1       0.019  -0.378   2.515  0.00  0.00    -0.363 N 
ATOM     28  C   UNL     1       0.024  -0.750   1.268  0.00  0.00    +0.063 A 
ATOM     29  H   UNL     1       0.008   0.536   2.841  0.00  0.00    +0.162 HD
ATOM     30  H   UNL     1       0.063  -3.666   2.641  0.00  0.00    +0.162 HD
ENDBRANCH  18  26
ENDBRANCH  17  18
ENDBRANCH   1  17
TORSDOF 6
