REMARK  Name = ZINC67361228
REMARK  6 active torsions:
REMARK  status: ('A' for Active; 'I' for Inactive)
REMARK    1  A    between atoms: C_4  and  C_7
REMARK    2  A    between atoms: C_7  and  N_8
REMARK    3  A    between atoms: C_12  and  C_15
REMARK    4  A    between atoms: C_15  and  N_16
REMARK    5  A    between atoms: C_17  and  C_19
REMARK    6  A    between atoms: C_25  and  N_29
REMARK                            x       y       z     vdW  Elec       q    Type
REMARK                         _______ _______ _______ _____ _____    ______ ____
ROOT
ATOM      1  N   UNL     1       7.903  -2.453   4.106  0.00  0.00    -0.310 N 
ATOM      2  C   UNL     1       9.122  -2.980   4.334  0.00  0.00    +0.260 C 
ATOM      3  O   UNL     1       9.787  -3.398   3.405  0.00  0.00    -0.269 OA
ATOM      4  H   UNL     1       7.372  -2.119   4.847  0.00  0.00    +0.149 HD
ENDROOT
BRANCH   2   5
ATOM      5  C   UNL     1       9.648  -3.051   5.705  0.00  0.00    +0.103 A 
ATOM      6  C   UNL     1      10.860  -3.553   6.059  0.00  0.00    +0.041 A 
ATOM      7  C   UNL     1      10.981  -3.437   7.465  0.00  0.00    +0.003 A 
ATOM      8  C   UNL     1      11.989  -3.780   8.376  0.00  0.00    +0.010 A 
ATOM      9  C   UNL     1      11.811  -3.539   9.707  0.00  0.00    +0.003 A 
ATOM     10  C   UNL     1      10.639  -2.955  10.171  0.00  0.00    +0.035 A 
ATOM     11  C   UNL     1       9.633  -2.610   9.296  0.00  0.00    +0.150 A 
ATOM     12  C   UNL     1       9.791  -2.845   7.932  0.00  0.00    +0.078 A 
ATOM     13  N   UNL     1       8.991  -2.611   6.839  0.00  0.00    -0.349 N 
ATOM     14  H   UNL     1       8.110  -2.207   6.860  0.00  0.00    +0.166 HD
BRANCH  11  15
ATOM     15  N   UNL     1       8.389  -1.988   9.803  0.00  0.00    +0.058 N 
ATOM     16  O   UNL     1       8.255  -1.784  10.986  0.00  0.00    -0.126 OA
ATOM     17  O   UNL     1       7.508  -1.685   9.033  0.00  0.00    -0.126 OA
ENDBRANCH  11  15
ENDBRANCH   2   5
BRANCH   1  18
ATOM     18  C   UNL     1       7.379  -2.382   2.740  0.00  0.00    +0.106 C 
BRANCH  18  23
ATOM     19  N   UNL     1       4.153  -0.953   1.342  0.00  0.00    +0.383 N 
ATOM     20  C   UNL     1       3.203  -1.854   2.005  0.00  0.00    -0.078 C 
ATOM     21  C   UNL     1       3.614  -2.050   3.466  0.00  0.00    -0.018 C 
ATOM     22  C   UNL     1       5.019  -2.657   3.518  0.00  0.00    +0.001 C 
ATOM     23  C   UNL     1       5.987  -1.746   2.760  0.00  0.00    -0.011 C 
ATOM     24  C   UNL     1       5.489  -1.562   1.325  0.00  0.00    -0.073 C 
ATOM     25  H   UNL     1       4.190  -0.078   1.843  0.00  0.00    -0.081 HD
BRANCH  19  26
ATOM     26  C   UNL     1       3.711  -0.707  -0.038  0.00  0.00    -0.043 C 
BRANCH  26  30
ATOM     27  C   UNL     1      -0.017   1.378   0.010  0.00  0.00    +0.000 A 
ATOM     28  C   UNL     1       1.171   2.086   0.002  0.00  0.00    +0.000 A 
ATOM     29  C   UNL     1       2.377   1.411  -0.013  0.00  0.00    +0.002 A 
ATOM     30  C   UNL     1       2.396   0.029  -0.020  0.00  0.00    -0.064 A 
ATOM     31  C   UNL     1       1.208  -0.679  -0.012  0.00  0.00    +0.002 A 
ATOM     32  C   UNL     1       0.002  -0.004   0.002  0.00  0.00    +0.000 A 
ENDBRANCH  26  30
ENDBRANCH  19  26
ENDBRANCH  18  23
ENDBRANCH   1  18
TORSDOF 6
