REMARK  Name = ZINC58492528
REMARK  4 active torsions:
REMARK  status: ('A' for Active; 'I' for Inactive)
REMARK    1  A    between atoms: C_1  and  C_2
REMARK    2  A    between atoms: C_5  and  N_8
REMARK    3  A    between atoms: C_18  and  S_19
REMARK    4  A    between atoms: S_19  and  C_20
REMARK                            x       y       z     vdW  Elec       q    Type
REMARK                         _______ _______ _______ _____ _____    ______ ____
ROOT
ATOM      1  N   UNL     1       0.059  -4.171  -0.021  0.00  0.00    -0.255 N 
ATOM      2  C   UNL     1      -0.035  -4.838  -1.195  0.00  0.00    +0.267 A 
ATOM      3  O   UNL     1      -0.137  -4.242  -2.252  0.00  0.00    -0.267 OA
ATOM      4  C   UNL     1      -0.011  -6.305  -1.147  0.00  0.00    +0.065 A 
ATOM      5  C   UNL     1      -0.101  -7.081  -2.302  0.00  0.00    +0.015 A 
ATOM      6  C   UNL     1      -0.072  -8.445  -2.202  0.00  0.00    +0.001 A 
ATOM      7  C   UNL     1       0.046  -9.063  -0.963  0.00  0.00    +0.002 A 
ATOM      8  C   UNL     1       0.136  -8.327   0.184  0.00  0.00    +0.028 A 
ATOM      9  C   UNL     1       0.109  -6.931   0.115  0.00  0.00    +0.079 A 
ATOM     10  N   UNL     1       0.196  -6.163   1.226  0.00  0.00    -0.223 NA
ATOM     11  C   UNL     1       0.177  -4.855   1.158  0.00  0.00    +0.177 A 
ENDROOT
BRANCH   1  16
ATOM     12  C   UNL     1      -0.017   1.503   0.008  0.00  0.00    +0.044 C 
ATOM     13  C   UNL     1       0.003  -0.004   0.001  0.00  0.00    -0.050 A 
ATOM     14  C   UNL     1       1.206  -0.678  -0.111  0.00  0.00    +0.005 A 
ATOM     15  C   UNL     1       1.228  -2.058  -0.119  0.00  0.00    +0.026 A 
ATOM     16  C   UNL     1       0.040  -2.771  -0.013  0.00  0.00    +0.052 A 
ATOM     17  C   UNL     1      -1.166  -2.091   0.099  0.00  0.00    +0.026 A 
ATOM     18  C   UNL     1      -1.180  -0.710   0.111  0.00  0.00    +0.005 A 
ENDBRANCH   1  16
BRANCH  11  19
ATOM     19  S   UNL     1       0.304  -3.933   2.654  0.00  0.00    -0.075 S 
BRANCH  19  20
ATOM     20  C   UNL     1       0.440  -5.204   3.942  0.00  0.00    +0.140 C 
ATOM     21  C   UNL     1       0.673  -4.538   5.300  0.00  0.00    +0.024 C 
ATOM     22  C   UNL     1       1.373  -5.490   6.253  0.00  0.00    +0.003 C 
ATOM     23  C   UNL     1       0.529  -6.686   6.653  0.00  0.00    +0.019 C 
ATOM     24  C   UNL     1       0.281  -7.604   5.455  0.00  0.00    +0.104 C 
ATOM     25  N   UNL     1      -0.905  -7.122   4.729  0.00  0.00    -0.314 N 
ATOM     26  C   UNL     1      -0.845  -6.002   4.008  0.00  0.00    +0.226 C 
ATOM     27  O   UNL     1      -1.826  -5.618   3.407  0.00  0.00    -0.275 OA
ATOM     28  H   UNL     1      -1.734  -7.623   4.772  0.00  0.00    +0.149 HD
ENDBRANCH  19  20
ENDBRANCH  11  19
TORSDOF 3
