REMARK  Name = ZINC06443887
REMARK  13 active torsions:
REMARK  status: ('A' for Active; 'I' for Inactive)
REMARK    1  A    between atoms: C_1  and  C_2
REMARK    2  A    between atoms: C_12  and  C_14
REMARK    3  A    between atoms: C_14  and  C_16
REMARK    4  A    between atoms: C_14  and  N_69
REMARK    5  A    between atoms: N_20  and  C_21
REMARK    6  A    between atoms: C_21  and  C_22
REMARK    7  A    between atoms: C_21  and  C_23
REMARK    8  A    between atoms: C_21  and  C_24
REMARK    9  A    between atoms: C_25  and  C_26
REMARK   10  A    between atoms: C_25  and  N_69
REMARK   11  A    between atoms: C_26  and  C_27
REMARK   12  A    between atoms: C_33  and  C_34
REMARK   13  A    between atoms: C_33  and  N_69
REMARK                            x       y       z     vdW  Elec       q    Type
REMARK                         _______ _______ _______ _____ _____    ______ ____
ROOT
ATOM      1  C   UNL     1       0.603  -2.390   5.354  0.00  0.00    +0.039 C 
ENDROOT
BRANCH   1  13
ATOM      2  C   UNL     1       1.681  -0.035  -0.687  0.00  0.00    +0.046 C 
ATOM      3  C   UNL     1       0.988  -1.288  -0.216  0.00  0.00    -0.026 A 
ATOM      4  C   UNL     1       0.442  -2.162  -1.131  0.00  0.00    +0.005 A 
ATOM      5  C   UNL     1      -0.194  -3.322  -0.711  0.00  0.00    +0.001 A 
ATOM      6  C   UNL     1      -0.301  -3.613   0.620  0.00  0.00    +0.010 A 
ATOM      7  C   UNL     1       0.240  -2.737   1.567  0.00  0.00    -0.001 A 
ATOM      8  C   UNL     1       0.891  -1.562   1.144  0.00  0.00    +0.052 A 
ATOM      9  N   UNL     1       1.423  -0.703   2.081  0.00  0.00    -0.322 N 
ATOM     10  H   UNL     1       1.871   0.106   1.788  0.00  0.00    +0.169 HD
ATOM     11  C   UNL     1       1.328  -0.969   3.396  0.00  0.00    +0.251 A 
ATOM     12  O   UNL     1       1.809  -0.186   4.196  0.00  0.00    -0.268 OA
ATOM     13  C   UNL     1       0.686  -2.132   3.872  0.00  0.00    +0.011 A 
ATOM     14  C   UNL     1       0.142  -3.017   3.001  0.00  0.00    +0.017 A 
ENDBRANCH   1  13
BRANCH   1  15
ATOM     15  C   UNL     1      -0.341  -1.400   5.985  0.00  0.00    +0.143 A 
ATOM     16  N   UNL     1      -0.192  -0.098   6.033  0.00  0.00    -0.115 NA
ATOM     17  N   UNL     1      -1.208   0.396   6.653  0.00  0.00    -0.023 NA
ATOM     18  N   UNL     1      -2.000  -0.557   7.003  0.00  0.00    -0.043 NA
ATOM     19  N   UNL     1      -1.503  -1.679   6.604  0.00  0.00    -0.225 N 
BRANCH  19  20
ATOM     20  C   UNL     1      -2.091  -3.007   6.793  0.00  0.00    +0.059 C 
ATOM     21  C   UNL     1      -1.129  -3.880   7.602  0.00  0.00    +0.036 C 
ATOM     22  C   UNL     1      -3.416  -2.876   7.546  0.00  0.00    +0.036 C 
ATOM     23  C   UNL     1      -2.341  -3.653   5.429  0.00  0.00    +0.036 C 
ENDBRANCH  19  20
ENDBRANCH   1  15
BRANCH   1  24
ATOM     24  N   UNL     1       1.949  -2.220   5.941  0.00  0.00    +0.392 N 
ATOM     25  H   UNL     1       2.370  -1.361   5.569  0.00  0.00    -0.080 HD
BRANCH  24  26
ATOM     26  C   UNL     1       1.848  -2.107   7.412  0.00  0.00    -0.072 C 
BRANCH  26  27
ATOM     27  C   UNL     1       3.216  -1.710   7.971  0.00  0.00    +0.016 C 
BRANCH  27  28
ATOM     28  C   UNL     1       3.124  -1.569   9.469  0.00  0.00    -0.049 A 
ATOM     29  C   UNL     1       2.804  -0.347  10.029  0.00  0.00    +0.003 A 
ATOM     30  C   UNL     1       2.715  -0.218  11.403  0.00  0.00    +0.000 A 
ATOM     31  C   UNL     1       2.957  -1.310  12.216  0.00  0.00    +0.000 A 
ATOM     32  C   UNL     1       3.283  -2.531  11.655  0.00  0.00    +0.000 A 
ATOM     33  C   UNL     1       3.366  -2.660  10.282  0.00  0.00    +0.003 A 
ENDBRANCH  27  28
ENDBRANCH  26  27
ENDBRANCH  24  26
BRANCH  24  34
ATOM     34  C   UNL     1       2.806  -3.370   5.581  0.00  0.00    -0.034 C 
BRANCH  34  35
ATOM     35  C   UNL     1       3.317  -3.169   4.178  0.00  0.00    -0.027 A 
ATOM     36  C   UNL     1       4.276  -2.321   3.731  0.00  0.00    +0.009 A 
ATOM     37  C   UNL     1       4.584  -2.308   2.384  0.00  0.00    +0.008 A 
ATOM     38  C   UNL     1       3.919  -3.144   1.549  0.00  0.00    +0.045 A 
ATOM     39  S   UNL     1       2.821  -3.991   2.673  0.00  0.00    -0.103 S 
ENDBRANCH  34  35
ENDBRANCH  24  34
ENDBRANCH   1  24
TORSDOF 9
