REMARK  Name = ZINC57316607
REMARK  6 active torsions:
REMARK  status: ('A' for Active; 'I' for Inactive)
REMARK    1  A    between atoms: C_10  and  C_12
REMARK    2  A    between atoms: N_14  and  C_15
REMARK    3  A    between atoms: C_15  and  N_17
REMARK    4  A    between atoms: N_17  and  C_18
REMARK    5  A    between atoms: C_18  and  C_19
REMARK    6  A    between atoms: C_22  and  C_24
REMARK                            x       y       z     vdW  Elec       q    Type
REMARK                         _______ _______ _______ _____ _____    ______ ____
ROOT
ATOM      1  C   UNL     1       0.102  -4.208   0.080  0.00  0.00    +0.137 C 
ATOM      2  S   UNL     1       1.591  -5.040  -0.069  0.00  0.00    -0.018 S 
ENDROOT
BRANCH   1   5
ATOM      3  C   UNL     1       1.231  -2.168  -0.021  0.00  0.00    +0.250 C 
ATOM      4  O   UNL     1       2.289  -2.758  -0.127  0.00  0.00    -0.270 OA
ATOM      5  N   UNL     1       0.080  -2.861   0.088  0.00  0.00    -0.264 N 
ATOM      6  H   UNL     1      -0.763  -2.389   0.172  0.00  0.00    +0.157 HD
BRANCH   3  16
ATOM      7  C   UNL     1      -0.017   1.384  -0.005  0.00  0.00    +0.001 A 
ATOM      8  C   UNL     1       1.130   2.118   0.002  0.00  0.00    +0.010 A 
ATOM      9  C   UNL     1       2.385   1.486   0.002  0.00  0.00    +0.001 A 
ATOM     10  C   UNL     1       2.452   0.072  -0.005  0.00  0.00    -0.004 A 
ATOM     11  C   UNL     1       3.701  -0.561  -0.006  0.00  0.00    +0.009 A 
ATOM     12  C   UNL     1       4.838   0.190   0.001  0.00  0.00    +0.002 A 
ATOM     13  C   UNL     1       4.777   1.581   0.008  0.00  0.00    +0.020 A 
ATOM     14  C   UNL     1       3.578   2.231   0.010  0.00  0.00    +0.049 A 
ATOM     15 CL   UNL     1       3.525   3.966   0.019  0.00  0.00    -0.083 Cl
ATOM     16  C   UNL     1       1.208  -0.694  -0.013  0.00  0.00    +0.045 A 
ATOM     17  C   UNL     1       0.002  -0.004  -0.013  0.00  0.00    +0.014 A 
ENDBRANCH   3  16
ENDBRANCH   1   5
BRANCH   1  18
ATOM     18  N   UNL     1      -1.049  -4.901   0.190  0.00  0.00    -0.319 N 
ATOM     19  H   UNL     1      -1.893  -4.430   0.274  0.00  0.00    +0.148 HD
BRANCH  18  20
ATOM     20  C   UNL     1      -1.026  -6.366   0.181  0.00  0.00    +0.177 C 
BRANCH  20  21
ATOM     21  C   UNL     1      -2.432  -6.891   0.316  0.00  0.00    +0.123 A 
ATOM     22  C   UNL     1      -3.269  -7.166  -0.703  0.00  0.00    +0.047 A 
ATOM     23  C   UNL     1      -4.472  -7.631  -0.135  0.00  0.00    +0.050 A 
ATOM     24  C   UNL     1      -4.300  -7.615   1.213  0.00  0.00    +0.135 A 
ATOM     25  O   UNL     1      -3.056  -7.170   1.472  0.00  0.00    -0.458 OA
BRANCH  24  26
ATOM     26  C   UNL     1      -5.303  -8.022   2.220  0.00  0.00    +0.017 A 
ATOM     27  C   UNL     1      -6.558  -8.479   1.815  0.00  0.00    +0.012 A 
ATOM     28  C   UNL     1      -7.489  -8.857   2.759  0.00  0.00    +0.016 A 
ATOM     29  C   UNL     1      -7.182  -8.784   4.107  0.00  0.00    +0.018 A 
ATOM     30  C   UNL     1      -5.939  -8.332   4.516  0.00  0.00    +0.016 A 
ATOM     31  C   UNL     1      -4.996  -7.956   3.580  0.00  0.00    +0.012 A 
ATOM     32 BR   UNL     1      -8.465  -9.303   5.395  0.00  0.00    -0.050 Br
ENDBRANCH  24  26
ENDBRANCH  20  21
ENDBRANCH  18  20
ENDBRANCH   1  18
TORSDOF 6
