REMARK  Name = ZINC51634316
REMARK  4 active torsions:
REMARK  status: ('A' for Active; 'I' for Inactive)
REMARK    1  A    between atoms: C_9  and  N_12
REMARK    2  A    between atoms: C_13  and  C_15
REMARK    3  A    between atoms: C_19  and  N_21
REMARK    4  A    between atoms: N_21  and  N_22
REMARK                            x       y       z     vdW  Elec       q    Type
REMARK                         _______ _______ _______ _____ _____    ______ ____
ROOT
ATOM      1  N   UNL     1       4.872  -2.834   0.137  0.00  0.00    -0.307 N 
ATOM      2  C   UNL     1       5.845  -2.805   1.069  0.00  0.00    +0.263 C 
ATOM      3  O   UNL     1       5.673  -2.198   2.108  0.00  0.00    -0.269 OA
ATOM      4  H   UNL     1       5.009  -3.318  -0.692  0.00  0.00    +0.149 HD
ENDROOT
BRANCH   1  13
ATOM      5  C   UNL     1      -0.017   1.375   0.010  0.00  0.00    +0.000 A 
ATOM      6  C   UNL     1       1.174   2.078   0.002  0.00  0.00    +0.000 A 
ATOM      7  C   UNL     1       2.372   1.395  -0.016  0.00  0.00    +0.004 A 
ATOM      8  C   UNL     1       2.393   0.006  -0.025  0.00  0.00    -0.042 A 
ATOM      9  C   UNL     1       1.208  -0.694  -0.013  0.00  0.00    -0.044 A 
ATOM     10  C   UNL     1       0.002  -0.004   0.002  0.00  0.00    +0.004 A 
ATOM     11  C   UNL     1       1.155  -2.199  -0.005  0.00  0.00    +0.037 C 
ATOM     12  C   UNL     1       2.493  -2.786  -0.452  0.00  0.00    +0.027 C 
ATOM     13  C   UNL     1       3.607  -2.135   0.376  0.00  0.00    +0.078 C 
ATOM     14  C   UNL     1       3.736  -0.675  -0.053  0.00  0.00    +0.057 C 
ENDBRANCH   1  13
BRANCH   2  15
ATOM     15  C   UNL     1       7.124  -3.512   0.828  0.00  0.00    +0.127 A 
ATOM     16  C   UNL     1       8.122  -3.482   1.797  0.00  0.00    +0.033 A 
ATOM     17  C   UNL     1       9.317  -4.148   1.560  0.00  0.00    +0.006 A 
ATOM     18  C   UNL     1       9.473  -4.821   0.362  0.00  0.00    +0.045 A 
ATOM     19  C   UNL     1       8.433  -4.811  -0.567  0.00  0.00    +0.133 A 
ATOM     20  N   UNL     1       7.305  -4.173  -0.310  0.00  0.00    -0.226 NA
BRANCH  19  21
ATOM     21  N   UNL     1       8.582  -5.486  -1.773  0.00  0.00    -0.268 N 
ATOM     22  H   UNL     1       9.407  -5.960  -1.964  0.00  0.00    +0.167 HD
BRANCH  21  23
ATOM     23  N   UNL     1       7.569  -5.481  -2.688  0.00  0.00    -0.255 NA
ATOM     24  H   UNL     1       7.821  -6.009  -3.510  0.00  0.00    +0.140 HD
ATOM     25  H   UNL     1       6.713  -5.830  -2.282  0.00  0.00    +0.140 HD
ENDBRANCH  21  23
ENDBRANCH  19  21
ENDBRANCH   2  15
TORSDOF 4
