REMARK  Name = ZINC35617920
REMARK  11 active torsions:
REMARK  status: ('A' for Active; 'I' for Inactive)
REMARK    1  A    between atoms: C_1  and  N_2
REMARK    2  A    between atoms: N_2  and  C_3
REMARK    3  A    between atoms: N_2  and  C_4
REMARK    4  A    between atoms: C_4  and  C_5
REMARK    5  A    between atoms: C_5  and  N_6
REMARK    6  A    between atoms: C_7  and  C_9
REMARK    7  A    between atoms: C_9  and  C_11
REMARK    8  A    between atoms: C_9  and  N_18
REMARK    9  A    between atoms: C_11  and  C_12
REMARK   10  A    between atoms: C_19  and  C_21
REMARK   11  A    between atoms: C_24  and  C_27
REMARK                            x       y       z     vdW  Elec       q    Type
REMARK                         _______ _______ _______ _____ _____    ______ ____
ROOT
ATOM      1  C   UNL     1      -4.377  -4.389  -0.207  0.00  0.00    +0.163 C 
ENDROOT
BRANCH   1   3
ATOM      2  N   UNL     1      -2.733  -2.544  -0.111  0.00  0.00    -0.316 N 
ATOM      3  C   UNL     1      -2.964  -3.867  -0.218  0.00  0.00    +0.234 C 
ATOM      4  O   UNL     1      -2.034  -4.638  -0.323  0.00  0.00    -0.274 OA
ATOM      5  H   UNL     1      -3.477  -1.927  -0.028  0.00  0.00    +0.149 HD
BRANCH   2   6
ATOM      6  C   UNL     1      -1.358  -2.037  -0.122  0.00  0.00    +0.085 C 
BRANCH   6   7
ATOM      7  C   UNL     1      -1.376  -0.512   0.012  0.00  0.00    -0.061 C 
BRANCH   7   9
ATOM      8  C   UNL     1      -0.018   1.465   0.010  0.00  0.00    -0.097 C 
ATOM      9  N   UNL     1       0.002  -0.004   0.002  0.00  0.00    +0.377 N 
ATOM     10  C   UNL     1       0.713  -0.491   1.192  0.00  0.00    -0.097 C 
ATOM     11  H   UNL     1       0.474  -0.330  -0.828  0.00  0.00    -0.083 HD
ENDBRANCH   7   9
ENDBRANCH   6   7
ENDBRANCH   2   6
ENDBRANCH   1   3
BRANCH   1  12
ATOM     12  N   UNL     1      -4.361  -5.848  -0.336  0.00  0.00    -0.301 N 
ATOM     13  C   UNL     1      -5.429  -6.492  -0.845  0.00  0.00    +0.257 C 
ATOM     14  O   UNL     1      -6.405  -5.864  -1.197  0.00  0.00    -0.272 OA
ATOM     15  H   UNL     1      -3.580  -6.351  -0.054  0.00  0.00    +0.150 HD
BRANCH  13  16
ATOM     16  C   UNL     1      -5.412  -7.993  -0.977  0.00  0.00    +0.295 C 
ATOM     17  C   UNL     1      -5.426  -8.672   0.414  0.00  0.00    +0.116 C 
ATOM     18  C   UNL     1      -6.905  -8.922   0.643  0.00  0.00    +0.091 C 
ATOM     19  N   UNL     1      -7.517  -8.792  -0.486  0.00  0.00    -0.088 NA
ATOM     20  O   UNL     1      -6.643  -8.475  -1.552  0.00  0.00    -0.380 OA
BRANCH  18  21
ATOM     21  C   UNL     1      -7.535  -9.256   1.935  0.00  0.00    -0.000 A 
ATOM     22  C   UNL     1      -6.755  -9.361   3.089  0.00  0.00    +0.011 A 
ATOM     23  C   UNL     1      -7.350  -9.673   4.294  0.00  0.00    +0.020 A 
ATOM     24  C   UNL     1      -8.717  -9.883   4.361  0.00  0.00    +0.041 A 
ATOM     25  C   UNL     1      -9.496  -9.780   3.220  0.00  0.00    +0.020 A 
ATOM     26  C   UNL     1      -8.914  -9.463   2.010  0.00  0.00    +0.011 A 
ATOM     27 CL   UNL     1      -9.459 -10.276   5.880  0.00  0.00    -0.084 Cl
ENDBRANCH  18  21
ENDBRANCH  13  16
ENDBRANCH   1  12
BRANCH   1  28
ATOM     28  C   UNL     1      -5.054  -4.000   1.109  0.00  0.00    +0.067 C 
BRANCH  28  29
ATOM     29  C   UNL     1      -6.503  -4.414   1.070  0.00  0.00    -0.045 A 
ATOM     30  C   UNL     1      -7.458  -3.541   0.583  0.00  0.00    +0.004 A 
ATOM     31  C   UNL     1      -8.787  -3.921   0.547  0.00  0.00    +0.000 A 
ATOM     32  C   UNL     1      -9.161  -5.173   0.998  0.00  0.00    +0.000 A 
ATOM     33  C   UNL     1      -8.205  -6.046   1.484  0.00  0.00    +0.000 A 
ATOM     34  C   UNL     1      -6.876  -5.668   1.516  0.00  0.00    +0.004 A 
ENDBRANCH  28  29
ENDBRANCH   1  28
TORSDOF 9
