REMARK  Name = ZINC06408571
REMARK  10 active torsions:
REMARK  status: ('A' for Active; 'I' for Inactive)
REMARK    1  A    between atoms: C_1  and  C_2
REMARK    2  A    between atoms: C_9  and  C_14
REMARK    3  A    between atoms: C_14  and  C_16
REMARK    4  A    between atoms: C_14  and  N_70
REMARK    5  A    between atoms: N_20  and  C_21
REMARK    6  A    between atoms: C_26  and  C_27
REMARK    7  A    between atoms: C_26  and  N_70
REMARK    8  A    between atoms: C_27  and  C_28
REMARK    9  A    between atoms: C_34  and  C_35
REMARK   10  A    between atoms: C_34  and  N_70
REMARK                            x       y       z     vdW  Elec       q    Type
REMARK                         _______ _______ _______ _____ _____    ______ ____
ROOT
ATOM      1  C   UNL     1       4.903   1.752  -0.043  0.00  0.00    +0.039 C 
ENDROOT
BRANCH   1  10
ATOM      2  C   UNL     1      -2.550   1.807  -0.303  0.00  0.00    +0.044 C 
ATOM      3  C   UNL     1      -1.224   2.500  -0.480  0.00  0.00    -0.050 A 
ATOM      4  C   UNL     1      -1.190   3.822  -0.902  0.00  0.00    +0.005 A 
ATOM      5  C   UNL     1       0.012   4.474  -1.076  0.00  0.00    +0.026 A 
ATOM      6  C   UNL     1       1.204   3.804  -0.822  0.00  0.00    +0.049 A 
ATOM      7  C   UNL     1       1.165   2.465  -0.390  0.00  0.00    -0.001 A 
ATOM      8  C   UNL     1      -0.066   1.823  -0.220  0.00  0.00    +0.013 A 
ATOM      9  C   UNL     1       2.425   1.767  -0.125  0.00  0.00    +0.017 A 
ATOM     10  C   UNL     1       3.588   2.440  -0.307  0.00  0.00    +0.011 A 
ATOM     11  C   UNL     1       3.572   3.783  -0.742  0.00  0.00    +0.251 A 
ATOM     12  O   UNL     1       4.629   4.369  -0.899  0.00  0.00    -0.268 OA
ATOM     13  N   UNL     1       2.420   4.431  -0.988  0.00  0.00    -0.322 N 
ATOM     14  H   UNL     1       2.445   5.354  -1.286  0.00  0.00    +0.169 HD
ENDBRANCH   1  10
BRANCH   1  15
ATOM     15  C   UNL     1       5.705   1.696  -1.318  0.00  0.00    +0.143 A 
ATOM     16  N   UNL     1       6.552   2.598  -1.750  0.00  0.00    -0.115 NA
ATOM     17  N   UNL     1       7.033   2.187  -2.873  0.00  0.00    -0.023 NA
ATOM     18  N   UNL     1       6.514   1.046  -3.168  0.00  0.00    -0.044 NA
ATOM     19  N   UNL     1       5.694   0.707  -2.232  0.00  0.00    -0.227 N 
BRANCH  19  20
ATOM     20  C   UNL     1       4.898  -0.521  -2.175  0.00  0.00    +0.111 C 
ATOM     21  C   UNL     1       5.824  -1.754  -2.234  0.00  0.00    +0.027 C 
ATOM     22  C   UNL     1       5.035  -2.779  -3.088  0.00  0.00    +0.002 C 
ATOM     23  C   UNL     1       4.366  -1.887  -4.163  0.00  0.00    +0.002 C 
ATOM     24  C   UNL     1       3.971  -0.606  -3.400  0.00  0.00    +0.027 C 
ENDBRANCH  19  20
ENDBRANCH   1  15
BRANCH   1  25
ATOM     25  N   UNL     1       5.663   2.525   0.961  0.00  0.00    +0.392 N 
ATOM     26  H   UNL     1       6.054   3.362   0.513  0.00  0.00    -0.080 HD
BRANCH  25  27
ATOM     27  C   UNL     1       4.768   2.942   2.061  0.00  0.00    -0.072 C 
BRANCH  27  28
ATOM     28  C   UNL     1       5.520   3.921   2.965  0.00  0.00    +0.016 C 
BRANCH  28  29
ATOM     29  C   UNL     1       4.613   4.374   4.080  0.00  0.00    -0.049 A 
ATOM     30  C   UNL     1       3.826   5.498   3.917  0.00  0.00    +0.003 A 
ATOM     31  C   UNL     1       2.990   5.910   4.938  0.00  0.00    +0.000 A 
ATOM     32  C   UNL     1       2.949   5.204   6.125  0.00  0.00    +0.000 A 
ATOM     33  C   UNL     1       3.740   4.083   6.290  0.00  0.00    +0.000 A 
ATOM     34  C   UNL     1       4.572   3.667   5.268  0.00  0.00    +0.003 A 
ENDBRANCH  28  29
ENDBRANCH  27  28
ENDBRANCH  25  27
BRANCH  25  35
ATOM     35  C   UNL     1       6.771   1.705   1.496  0.00  0.00    -0.034 C 
BRANCH  35  36
ATOM     36  C   UNL     1       7.914   1.741   0.514  0.00  0.00    -0.027 A 
ATOM     37  C   UNL     1       8.864   2.692   0.345  0.00  0.00    +0.009 A 
ATOM     38  C   UNL     1       9.828   2.511  -0.629  0.00  0.00    +0.008 A 
ATOM     39  C   UNL     1       9.794   1.387  -1.386  0.00  0.00    +0.045 A 
ATOM     40  S   UNL     1       8.373   0.536  -0.721  0.00  0.00    -0.103 S 
ENDBRANCH  35  36
ENDBRANCH  25  35
ENDBRANCH   1  25
TORSDOF 9
