REMARK  Name = ZINC50197827
REMARK  4 active torsions:
REMARK  status: ('A' for Active; 'I' for Inactive)
REMARK    1  A    between atoms: C_1  and  N_2
REMARK    2  A    between atoms: C_5  and  N_19
REMARK    3  A    between atoms: N_7  and  C_8
REMARK    4  A    between atoms: C_8  and  C_9
REMARK                            x       y       z     vdW  Elec       q    Type
REMARK                         _______ _______ _______ _____ _____    ______ ____
ROOT
ATOM      1  C   UNL     1      -0.013   1.086   0.008  0.00  0.00    +0.137 C 
ATOM      2  N   UNL     1      -0.721   1.571  -1.179  0.00  0.00    -0.281 N 
ATOM      3  C   UNL     1      -1.276   0.774  -2.140  0.00  0.00    +0.186 C 
ATOM      4  N   UNL     1      -1.844   1.435  -3.085  0.00  0.00    -0.237 NA
ATOM      5  C   UNL     1      -1.696   2.870  -2.795  0.00  0.00    +0.346 C 
ATOM      6  C   UNL     1      -0.931   2.898  -1.486  0.00  0.00    +0.128 C 
ATOM      7  N   UNL     1      -0.557   3.935  -0.810  0.00  0.00    -0.369 N 
ATOM      8  H   UNL     1      -0.767   4.825  -1.133  0.00  0.00    +0.161 HD
ENDROOT
BRANCH   5   9
ATOM      9  N   UNL     1      -0.935   3.533  -3.856  0.00  0.00    +0.055 N 
ATOM     10  O   UNL     1      -0.323   2.874  -4.664  0.00  0.00    -0.129 OA
ATOM     11  O   UNL     1      -0.918   4.740  -3.924  0.00  0.00    -0.129 OA
ENDBRANCH   5   9
BRANCH   7  12
ATOM     12  C   UNL     1       0.184   3.765   0.442  0.00  0.00    +0.150 C 
BRANCH  12  13
ATOM     13  C   UNL     1       0.498   5.118   1.027  0.00  0.00    -0.021 A 
ATOM     14  C   UNL     1       1.732   5.667   0.858  0.00  0.00    +0.006 A 
ATOM     15  C   UNL     1       2.041   6.917   1.391  0.00  0.00    +0.001 A 
ATOM     16  C   UNL     1       1.117   7.624   2.098  0.00  0.00    +0.008 A 
ATOM     17  C   UNL     1      -0.167   7.090   2.294  0.00  0.00    -0.018 A 
ATOM     18  C   UNL     1      -0.483   5.822   1.746  0.00  0.00    -0.013 A 
ATOM     19  C   UNL     1      -1.770   5.290   1.936  0.00  0.00    +0.009 A 
ATOM     20  C   UNL     1      -2.695   6.000   2.638  0.00  0.00    +0.001 A 
ATOM     21  C   UNL     1      -2.386   7.250   3.171  0.00  0.00    +0.001 A 
ATOM     22  C   UNL     1      -1.147   7.791   3.018  0.00  0.00    +0.008 A 
ENDBRANCH  12  13
ENDBRANCH   7  12
TORSDOF 3
