REMARK  Name = ZINC20830401
REMARK  6 active torsions:
REMARK  status: ('A' for Active; 'I' for Inactive)
REMARK    1  A    between atoms: C_3  and  C_8
REMARK    2  A    between atoms: C_11  and  S_14
REMARK    3  A    between atoms: N_12  and  N_13
REMARK    4  A    between atoms: S_14  and  C_15
REMARK    5  A    between atoms: C_15  and  C_16
REMARK    6  A    between atoms: C_19  and  C_21
REMARK                            x       y       z     vdW  Elec       q    Type
REMARK                         _______ _______ _______ _____ _____    ______ ____
ROOT
ATOM      1  C   UNL     1      -0.123  -4.448   1.770  0.00  0.00    +0.182 A 
ATOM      2  N   UNL     1       0.001  -4.309   0.471  0.00  0.00    -0.127 NA
ATOM      3  N   UNL     1       0.194  -3.073   0.178  0.00  0.00    -0.121 NA
ATOM      4  C   UNL     1       0.212  -2.347   1.274  0.00  0.00    +0.209 A 
ATOM      5  N   UNL     1       0.008  -3.196   2.325  0.00  0.00    -0.224 N 
ENDROOT
BRANCH   1   8
ATOM      6  C   UNL     1      -0.344  -8.113   2.563  0.00  0.00    +0.002 A 
ATOM      7  C   UNL     1      -0.122  -6.937   1.876  0.00  0.00    +0.012 A 
ATOM      8  C   UNL     1      -0.360  -5.712   2.501  0.00  0.00    +0.022 A 
ATOM      9  C   UNL     1      -0.816  -5.684   3.819  0.00  0.00    +0.027 A 
ATOM     10  C   UNL     1      -1.039  -6.867   4.494  0.00  0.00    +0.019 A 
ATOM     11  C   UNL     1      -0.802  -8.079   3.868  0.00  0.00    +0.015 A 
ATOM     12 BR   UNL     1      -1.664  -6.833   6.278  0.00  0.00    -0.050 Br
ENDBRANCH   1   8
BRANCH   5  13
ATOM     13  N   UNL     1      -0.053  -2.869   3.649  0.00  0.00    -0.295 N 
ATOM     14  H   UNL     1       0.069  -1.822   3.964  0.00  0.00    +0.163 HD
ATOM     15  H   UNL     1      -0.225  -3.652   4.402  0.00  0.00    +0.163 HD
ENDBRANCH   5  13
BRANCH   4  16
ATOM     16  S   UNL     1       0.449  -0.604   1.369  0.00  0.00    -0.075 S 
BRANCH  16  17
ATOM     17  C   UNL     1       0.646  -0.217  -0.388  0.00  0.00    +0.175 C 
BRANCH  17  18
ATOM     18  C   UNL     1       0.868   1.264  -0.555  0.00  0.00    +0.228 A 
ATOM     19  N   UNL     1       2.019   1.875  -0.556  0.00  0.00    -0.111 NA
ATOM     20  N   UNL     1       1.836   3.138  -0.723  0.00  0.00    -0.107 NA
ATOM     21  C   UNL     1       0.551   3.378  -0.834  0.00  0.00    +0.248 A 
ATOM     22  O   UNL     1      -0.087   2.194  -0.735  0.00  0.00    -0.419 OA
BRANCH  21  23
ATOM     23  C   UNL     1      -0.080   4.699  -1.036  0.00  0.00    +0.039 A 
ATOM     24  C   UNL     1      -1.468   4.804  -1.143  0.00  0.00    +0.016 A 
ATOM     25  C   UNL     1      -2.052   6.040  -1.325  0.00  0.00    +0.039 A 
ATOM     26  C   UNL     1      -1.262   7.175  -1.414  0.00  0.00    +0.123 A 
ATOM     27  C   UNL     1       0.116   7.077  -1.313  0.00  0.00    +0.039 A 
ATOM     28  C   UNL     1       0.710   5.846  -1.125  0.00  0.00    +0.016 A 
ATOM     29  F   UNL     1      -1.839   8.383  -1.598  0.00  0.00    -0.205 F 
ENDBRANCH  21  23
ENDBRANCH  17  18
ENDBRANCH  16  17
ENDBRANCH   4  16
TORSDOF 6
