REMARK  Name = ZINC44466308
REMARK  11 active torsions:
REMARK  status: ('A' for Active; 'I' for Inactive)
REMARK    1  A    between atoms: C_1  and  O_2
REMARK    2  A    between atoms: O_2  and  C_3
REMARK    3  A    between atoms: C_3  and  C_5
REMARK    4  A    between atoms: C_6  and  C_24
REMARK    5  A    between atoms: C_7  and  S_16
REMARK    6  A    between atoms: N_8  and  C_10
REMARK    7  A    between atoms: S_16  and  C_17
REMARK    8  A    between atoms: C_24  and  CA_25
REMARK    9  A    between atoms: CA_25  and  C_27
REMARK   10  A    between atoms: CA_25  and  N_29
REMARK   11  A    between atoms: C_27  and  O_28
REMARK                            x       y       z     vdW  Elec       q    Type
REMARK                         _______ _______ _______ _____ _____    ______ ____
ROOT
ATOM      1  C   UNL     1      -1.247  -2.107   0.003  0.00  0.00    +0.174 A 
ATOM      2  C   UNL     1      -2.421  -2.889   0.004  0.00  0.00    +0.017 A 
ATOM      3  C   UNL     1      -2.048  -4.196  -0.005  0.00  0.00    +0.109 A 
ATOM      4  N   UNL     1      -0.685  -4.239  -0.012  0.00  0.00    -0.225 N 
ATOM      5  N   UNL     1      -0.209  -2.922  -0.012  0.00  0.00    -0.158 NA
ENDROOT
BRANCH   4   6
ATOM      6  C   UNL     1       0.101  -5.398  -0.022  0.00  0.00    +0.067 A 
ATOM      7  C   UNL     1      -0.322  -6.532   0.658  0.00  0.00    +0.028 A 
ATOM      8  C   UNL     1       0.456  -7.674   0.646  0.00  0.00    +0.002 A 
ATOM      9  C   UNL     1       1.655  -7.688  -0.042  0.00  0.00    +0.000 A 
ATOM     10  C   UNL     1       2.079  -6.560  -0.721  0.00  0.00    +0.002 A 
ATOM     11  C   UNL     1       1.303  -5.418  -0.718  0.00  0.00    +0.028 A 
ENDBRANCH   4   6
BRANCH   1  12
ATOM     12  C   UNL     1      -1.190  -0.632   0.010  0.00  0.00    +0.360 C 
ATOM     13  O   UNL     1      -2.218   0.016   0.023  0.00  0.00    -0.243 OA
BRANCH  12  15
ATOM     14  C   UNL     1      -0.017   1.425   0.010  0.00  0.00    +0.280 C 
ATOM     15  O   UNL     1       0.002  -0.004   0.002  0.00  0.00    -0.463 OA
ENDBRANCH  12  15
ENDBRANCH   1  12
BRANCH   3  16
ATOM     16  S   UNL     1      -3.132  -5.585  -0.007  0.00  0.00    -0.069 S 
BRANCH  16  17
ATOM     17  C   UNL     1      -2.728  -6.439  -1.495  0.00  0.00    +0.014 A 
ATOM     18  C   UNL     1      -1.733  -5.947  -2.332  0.00  0.00    +0.016 A 
ATOM     19  C   UNL     1      -1.419  -6.618  -3.497  0.00  0.00    +0.021 A 
ATOM     20  C   UNL     1      -2.093  -7.779  -3.832  0.00  0.00    +0.041 A 
ATOM     21  C   UNL     1      -3.084  -8.271  -3.000  0.00  0.00    +0.021 A 
ATOM     22  C   UNL     1      -3.399  -7.608  -1.831  0.00  0.00    +0.016 A 
ATOM     23 CL   UNL     1      -1.696  -8.620  -5.298  0.00  0.00    -0.084 Cl
ENDBRANCH  16  17
ENDBRANCH   3  16
BRANCH   2  24
ATOM     24  C   UNL     1      -3.835  -2.369   0.014  0.00  0.00    +0.026 C 
BRANCH  24  25
ATOM     25  CA  UNL     1      -4.321  -2.185  -1.425  0.00  0.00    -0.045 C 
BRANCH  25  26
ATOM     26  N   UNL     1      -4.393  -3.494  -2.088  0.00  0.00    +0.382 N 
ATOM     27  H1  UNL     1      -4.714  -3.372  -3.037  0.00  0.00    -0.090 HD
ATOM     28  H2  UNL     1      -3.478  -3.919  -2.094  0.00  0.00    -0.090 HD
ATOM     29  H3  UNL     1      -5.037  -4.089  -1.589  0.00  0.00    -0.090 HD
ENDBRANCH  25  26
BRANCH  25  30
ATOM     30  C   UNL     1      -5.709  -1.541  -1.415  0.00  0.00    +0.140 C 
BRANCH  30  31
ATOM     31  O   UNL     1      -6.114  -1.262  -2.757  0.00  0.00    -0.397 OA
ATOM     32  H   UNL     1      -6.986  -0.852  -2.828  0.00  0.00    +0.209 HD
ENDBRANCH  30  31
ENDBRANCH  25  30
ENDBRANCH  24  25
ENDBRANCH   2  24
TORSDOF 10
