REMARK  Name = ZINC39690081
REMARK  7 active torsions:
REMARK  status: ('A' for Active; 'I' for Inactive)
REMARK    1  A    between atoms: N_4  and  C_6
REMARK    2  A    between atoms: C_9  and  C_12
REMARK    3  A    between atoms: C_12  and  N_13
REMARK    4  A    between atoms: C_14  and  C_16
REMARK    5  A    between atoms: C_27  and  C_29
REMARK    6  A    between atoms: C_32  and  O_35
REMARK    7  A    between atoms: O_35  and  C_36
REMARK                            x       y       z     vdW  Elec       q    Type
REMARK                         _______ _______ _______ _____ _____    ______ ____
ROOT
ATOM      1  C   UNL     1       4.381  -7.851   2.599  0.00  0.00    +0.100 C 
ATOM      2  C   UNL     1       5.339  -7.130   3.574  0.00  0.00    +0.121 C 
ATOM      3  N   UNL     1       5.897  -8.212   4.419  0.00  0.00    -0.296 N 
ATOM      4  C   UNL     1       6.116  -9.338   3.479  0.00  0.00    +0.115 C 
ATOM      5  C   UNL     1       4.894  -9.300   2.539  0.00  0.00    -0.004 C 
ATOM      6  C   UNL     1       3.818 -10.262   3.033  0.00  0.00    -0.010 C 
ATOM      7  C   UNL     1       4.332 -11.700   2.911  0.00  0.00    -0.082 C 
ATOM      8  N   UNL     1       4.667 -11.985   1.510  0.00  0.00    +0.379 N 
ATOM      9  C   UNL     1       5.766 -11.117   1.071  0.00  0.00    -0.082 C 
ATOM     10  C   UNL     1       5.314  -9.654   1.116  0.00  0.00    -0.010 C 
ATOM     11  C   UNL     1       6.149  -8.180   5.742  0.00  0.00    +0.247 C 
ATOM     12  O   UNL     1       5.796  -7.224   6.405  0.00  0.00    -0.270 OA
ATOM     13  H   UNL     1       4.946 -12.950   1.422  0.00  0.00    -0.086 HD
ATOM     14  H   UNL     1       3.857 -11.818   0.931  0.00  0.00    -0.086 HD
ENDROOT
BRANCH  11  15
ATOM     15  C   UNL     1       6.854  -9.305   6.387  0.00  0.00    +0.037 A 
ATOM     16  C   UNL     1       7.633 -10.175   5.621  0.00  0.00    +0.016 A 
ATOM     17  C   UNL     1       8.289 -11.224   6.226  0.00  0.00    +0.047 A 
ATOM     18  C   UNL     1       8.176 -11.417   7.598  0.00  0.00    +0.130 A 
ATOM     19  C   UNL     1       7.402 -10.554   8.364  0.00  0.00    +0.047 A 
ATOM     20  C   UNL     1       6.747  -9.500   7.767  0.00  0.00    +0.016 A 
BRANCH  18  21
ATOM     21  O   UNL     1       8.824 -12.452   8.191  0.00  0.00    -0.406 OA
BRANCH  21  22
ATOM     22  C   UNL     1       8.664 -12.593   9.604  0.00  0.00    +0.575 C 
ATOM     23  F   UNL     1       7.310 -12.775   9.905  0.00  0.00    -0.133 F 
ATOM     24  F   UNL     1       9.393 -13.702  10.047  0.00  0.00    -0.133 F 
ATOM     25  F   UNL     1       9.133 -11.441  10.243  0.00  0.00    -0.133 F 
ENDBRANCH  21  22
ENDBRANCH  18  21
ENDBRANCH  11  15
BRANCH   1  27
ATOM     26  N   UNL     1       3.361  -7.226   0.434  0.00  0.00    -0.311 N 
ATOM     27  C   UNL     1       4.445  -7.215   1.234  0.00  0.00    +0.218 C 
ATOM     28  O   UNL     1       5.473  -6.694   0.855  0.00  0.00    -0.275 OA
ATOM     29  H   UNL     1       2.539  -7.644   0.737  0.00  0.00    +0.149 HD
BRANCH  26  30
ATOM     30  C   UNL     1       3.423  -6.609  -0.893  0.00  0.00    +0.139 C 
BRANCH  30  34
ATOM     31  C   UNL     1      -0.360  -7.027  -2.838  0.00  0.00    +0.046 A 
ATOM     32  C   UNL     1      -0.102  -5.913  -2.051  0.00  0.00    +0.026 A 
ATOM     33  C   UNL     1       1.121  -5.780  -1.423  0.00  0.00    +0.007 A 
ATOM     34  C   UNL     1       2.089  -6.756  -1.579  0.00  0.00    -0.030 A 
ATOM     35  C   UNL     1       1.835  -7.867  -2.362  0.00  0.00    +0.007 A 
ATOM     36  C   UNL     1       0.612  -8.007  -2.988  0.00  0.00    +0.026 A 
BRANCH  31  40
ATOM     37  C   UNL     1      -3.235  -7.983  -4.697  0.00  0.00    +0.019 A 
ATOM     38  C   UNL     1      -3.653  -6.753  -4.150  0.00  0.00    +0.019 A 
ATOM     39  C   UNL     1      -2.634  -6.274  -3.407  0.00  0.00    +0.091 A 
ATOM     40  N   UNL     1      -1.601  -7.164  -3.476  0.00  0.00    -0.323 N 
ATOM     41  C   UNL     1      -1.977  -8.211  -4.269  0.00  0.00    +0.091 A 
ENDBRANCH  31  40
ENDBRANCH  30  34
ENDBRANCH  26  30
ENDBRANCH   1  27
TORSDOF 7
