REMARK  Name = ZINC20831364
REMARK  8 active torsions:
REMARK  status: ('A' for Active; 'I' for Inactive)
REMARK    1  A    between atoms: C_4  and  N_7
REMARK    2  A    between atoms: C_8  and  C_28
REMARK    3  A    between atoms: C_11  and  S_12
REMARK    4  A    between atoms: S_12  and  C_13
REMARK    5  A    between atoms: C_13  and  C_14
REMARK    6  A    between atoms: N_16  and  C_17
REMARK    7  A    between atoms: C_28  and  N_29
REMARK    8  A    between atoms: N_29  and  C_30
REMARK                            x       y       z     vdW  Elec       q    Type
REMARK                         _______ _______ _______ _____ _____    ______ ____
ROOT
ATOM      1  N   UNL     1      -0.364  11.203   1.860  0.00  0.00    -0.273 N 
ATOM      2  C   UNL     1      -0.562  11.744   3.102  0.00  0.00    +0.156 A 
ATOM      3  N   UNL     1      -1.136  10.832   3.835  0.00  0.00    -0.132 NA
ATOM      4  N   UNL     1      -1.320   9.762   3.147  0.00  0.00    -0.122 NA
ATOM      5  C   UNL     1      -0.869   9.933   1.926  0.00  0.00    +0.197 A 
ENDROOT
BRANCH   1   9
ATOM      6  C   UNL     1       1.397  13.044  -1.440  0.00  0.00    +0.000 A 
ATOM      7  C   UNL     1       0.062  12.689  -1.480  0.00  0.00    +0.002 A 
ATOM      8  C   UNL     1      -0.525  12.079  -0.388  0.00  0.00    +0.026 A 
ATOM      9  C   UNL     1       0.228  11.822   0.750  0.00  0.00    +0.050 A 
ATOM     10  C   UNL     1       1.568  12.184   0.788  0.00  0.00    +0.026 A 
ATOM     11  C   UNL     1       2.150  12.789  -0.308  0.00  0.00    +0.002 A 
ENDBRANCH   1   9
BRANCH   5  12
ATOM     12  S   UNL     1      -0.901   8.748   0.622  0.00  0.00    -0.076 S 
BRANCH  12  13
ATOM     13  C   UNL     1      -1.692   7.362   1.476  0.00  0.00    +0.173 C 
BRANCH  13  14
ATOM     14  C   UNL     1      -1.828   6.199   0.527  0.00  0.00    +0.224 C 
ATOM     15  O   UNL     1      -1.429   6.297  -0.614  0.00  0.00    -0.275 OA
ATOM     16  N   UNL     1      -2.393   5.050   0.947  0.00  0.00    -0.308 N 
ATOM     17  H   UNL     1      -2.755   4.960   1.982  0.00  0.00    +0.149 HD
BRANCH  16  18
ATOM     18  C   UNL     1      -2.525   3.919   0.025  0.00  0.00    +0.103 C 
ATOM     19  C   UNL     1      -3.702   3.046   0.444  0.00  0.00    +0.027 C 
ATOM     20  C   UNL     1      -3.687   1.763  -0.395  0.00  0.00    +0.007 C 
ATOM     21  C   UNL     1      -2.487   0.921   0.032  0.00  0.00    +0.035 C 
ATOM     22  C   UNL     1      -1.228   1.748   0.017  0.00  0.00    -0.042 A 
ATOM     23  C   UNL     1      -1.245   3.125   0.026  0.00  0.00    -0.024 A 
ATOM     24  C   UNL     1      -0.048   3.828   0.021  0.00  0.00    +0.006 A 
ATOM     25  C   UNL     1       1.158   3.158   0.008  0.00  0.00    +0.000 A 
ATOM     26  C   UNL     1       1.176   1.776   0.000  0.00  0.00    +0.000 A 
ATOM     27  C   UNL     1      -0.013   1.076   0.008  0.00  0.00    +0.004 A 
ENDBRANCH  16  18
ENDBRANCH  13  14
ENDBRANCH  12  13
ENDBRANCH   5  12
BRANCH   2  28
ATOM     28  C   UNL     1      -0.179  13.133   3.542  0.00  0.00    +0.178 C 
BRANCH  28  29
ATOM     29  N   UNL     1       1.184  13.118   4.078  0.00  0.00    -0.337 N 
ATOM     30  H   UNL     1       1.753  12.177   4.107  0.00  0.00    +0.147 HD
BRANCH  29  31
ATOM     31  C   UNL     1       1.762  14.299   4.552  0.00  0.00    +0.028 A 
ATOM     32  C   UNL     1       1.047  15.489   4.510  0.00  0.00    +0.024 A 
ATOM     33  C   UNL     1       1.619  16.653   4.985  0.00  0.00    +0.022 A 
ATOM     34  C   UNL     1       2.907  16.637   5.490  0.00  0.00    +0.041 A 
ATOM     35  C   UNL     1       3.624  15.454   5.527  0.00  0.00    +0.022 A 
ATOM     36  C   UNL     1       3.055  14.285   5.060  0.00  0.00    +0.024 A 
ATOM     37 CL   UNL     1       3.625  18.104   6.079  0.00  0.00    -0.084 Cl
ENDBRANCH  29  31
ENDBRANCH  28  29
ENDBRANCH   2  28
TORSDOF 8
