REMARK  Name = ZINC14579172
REMARK  10 active torsions:
REMARK  status: ('A' for Active; 'I' for Inactive)
REMARK    1  A    between atoms: C_1  and  C_2
REMARK    2  A    between atoms: C_2  and  C_3
REMARK    3  A    between atoms: C_2  and  C_4
REMARK    4  A    between atoms: C_4  and  C_5
REMARK    5  A    between atoms: C_5  and  N_6
REMARK    6  A    between atoms: N_6  and  C_7
REMARK    7  A    between atoms: C_8  and  N_23
REMARK    8  A    between atoms: N_9  and  C_16
REMARK    9  A    between atoms: C_16  and  C_17
REMARK   10  A    between atoms: C_24  and  C_26
REMARK                            x       y       z     vdW  Elec       q    Type
REMARK                         _______ _______ _______ _____ _____    ______ ____
ROOT
ATOM      1  C   UNL     1       2.265   9.498  -0.009  0.00  0.00    +0.140 A 
ATOM      2  C   UNL     1       1.872  10.164   1.134  0.00  0.00    +0.128 A 
ATOM      3  N   UNL     1       1.925  11.538   1.163  0.00  0.00    -0.276 N 
ATOM      4  C   UNL     1       2.345  12.226   0.085  0.00  0.00    +0.331 A 
ATOM      5  O   UNL     1       2.380  13.441   0.129  0.00  0.00    -0.246 OA
ATOM      6  N   UNL     1       2.728  11.595  -1.039  0.00  0.00    -0.273 N 
ATOM      7  H   UNL     1       3.036  12.129  -1.825  0.00  0.00    +0.173 HD
ATOM      8  C   UNL     1       2.700  10.250  -1.118  0.00  0.00    +0.277 A 
ATOM      9  O   UNL     1       3.048   9.688  -2.142  0.00  0.00    -0.266 OA
ENDROOT
BRANCH   1  10
ATOM     10  N   UNL     1       2.227   8.090  -0.068  0.00  0.00    -0.260 N 
ATOM     11  C   UNL     1       1.050   7.443   0.040  0.00  0.00    +0.251 C 
ATOM     12  O   UNL     1       1.021   6.227   0.035  0.00  0.00    -0.270 OA
BRANCH  11  13
ATOM     13  C   UNL     1      -0.207   8.210   0.164  0.00  0.00    +0.038 A 
ATOM     14  C   UNL     1      -0.273   9.526  -0.330  0.00  0.00    +0.013 A 
ATOM     15  C   UNL     1      -1.415  10.252  -0.227  0.00  0.00    +0.009 A 
ATOM     16  C   UNL     1      -2.554   9.690   0.380  0.00  0.00    -0.018 A 
ATOM     17  C   UNL     1      -3.747  10.421   0.498  0.00  0.00    +0.008 A 
ATOM     18  C   UNL     1      -4.832   9.852   1.091  0.00  0.00    +0.001 A 
ATOM     19  C   UNL     1      -4.778   8.551   1.588  0.00  0.00    +0.001 A 
ATOM     20  C   UNL     1      -3.642   7.809   1.487  0.00  0.00    +0.008 A 
ATOM     21  C   UNL     1      -2.500   8.364   0.881  0.00  0.00    -0.017 A 
ATOM     22  C   UNL     1      -1.310   7.630   0.766  0.00  0.00    +0.021 A 
ENDBRANCH  11  13
BRANCH  10  23
ATOM     23  C   UNL     1       3.467   7.330  -0.247  0.00  0.00    +0.114 C 
BRANCH  23  24
ATOM     24  C   UNL     1       3.643   6.982  -1.726  0.00  0.00    +0.022 C 
BRANCH  24  26
ATOM     25  C   UNL     1       4.960   5.618  -3.353  0.00  0.00    +0.007 C 
ATOM     26  C   UNL     1       4.857   6.067  -1.893  0.00  0.00    -0.016 C 
ATOM     27  C   UNL     1       6.126   6.826  -1.503  0.00  0.00    +0.007 C 
ENDBRANCH  24  26
ENDBRANCH  23  24
ENDBRANCH  10  23
ENDBRANCH   1  10
BRANCH   2  28
ATOM     28  N   UNL     1       1.438   9.462   2.233  0.00  0.00    -0.343 N 
ATOM     29  H   UNL     1       1.472   8.493   2.233  0.00  0.00    +0.144 HD
ATOM     30  H   UNL     1       1.096   9.936   3.007  0.00  0.00    +0.144 HD
ENDBRANCH   2  28
BRANCH   3  31
ATOM     31  C   UNL     1       1.516  12.258   2.371  0.00  0.00    +0.163 C 
BRANCH  31  32
ATOM     32  C   UNL     1       0.041  12.560   2.301  0.00  0.00    -0.028 A 
ATOM     33  C   UNL     1      -0.396  13.743   1.735  0.00  0.00    +0.005 A 
ATOM     34  C   UNL     1      -1.748  14.018   1.666  0.00  0.00    +0.000 A 
ATOM     35  C   UNL     1      -2.664  13.115   2.172  0.00  0.00    +0.000 A 
ATOM     36  C   UNL     1      -2.227  11.935   2.743  0.00  0.00    +0.000 A 
ATOM     37  C   UNL     1      -0.875  11.657   2.808  0.00  0.00    +0.005 A 
ENDBRANCH  31  32
ENDBRANCH   3  31
TORSDOF 8
