REMARK  Name = ZINC11995718
REMARK  8 active torsions:
REMARK  status: ('A' for Active; 'I' for Inactive)
REMARK    1  A    between atoms: C_1  and  C_2
REMARK    2  A    between atoms: C_7  and  C_8
REMARK    3  A    between atoms: N_10  and  C_11
REMARK    4  A    between atoms: C_11  and  C_13
REMARK    5  A    between atoms: C_11  and  C_14
REMARK    6  A    between atoms: C_23  and  C_24
REMARK    7  A    between atoms: C_23  and  N_63
REMARK    8  A    between atoms: C_27  and  C_29
REMARK                            x       y       z     vdW  Elec       q    Type
REMARK                         _______ _______ _______ _____ _____    ______ ____
ROOT
ATOM      1  C   UNL     1       2.510   1.325  -0.896  0.00  0.00    +0.154 A 
ATOM      2  N   UNL     1       1.694   2.346  -0.880  0.00  0.00    -0.132 NA
ATOM      3  N   UNL     1       0.490   1.944  -1.098  0.00  0.00    -0.134 NA
ATOM      4  C   UNL     1       0.486   0.655  -1.267  0.00  0.00    +0.132 A 
ATOM      5  N   UNL     1       1.764   0.224  -1.130  0.00  0.00    -0.315 N 
ATOM      6  C   UNL     1       2.217  -1.165  -1.207  0.00  0.00    +0.106 C 
ATOM      7  C   UNL     1       1.265  -1.956  -2.108  0.00  0.00    -0.056 C 
ATOM      8  C   UNL     1      -0.636  -1.464  -0.670  0.00  0.00    -0.070 C 
ATOM      9  C   UNL     1      -0.693  -0.231  -1.577  0.00  0.00    +0.058 C 
ATOM     10  N   UNL     1       0.179  -2.536  -1.285  0.00  0.00    +0.386 N 
ATOM     11  H   UNL     1       0.598  -3.102  -0.538  0.00  0.00    -0.081 HD
ENDROOT
BRANCH   1  12
ATOM     12  C   UNL     1       4.003   1.367  -0.692  0.00  0.00    +0.138 C 
ATOM     13  C   UNL     1       4.674   1.920  -1.951  0.00  0.00    +0.036 C 
BRANCH  12  16
ATOM     14  C   UNL     1       5.460   2.054   1.136  0.00  0.00    +0.245 C 
ATOM     15  O   UNL     1       6.233   1.175   0.811  0.00  0.00    -0.270 OA
ATOM     16  N   UNL     1       4.315   2.233   0.448  0.00  0.00    -0.302 N 
ATOM     17  H   UNL     1       3.698   2.935   0.707  0.00  0.00    +0.150 HD
BRANCH  14  24
ATOM     18  C   UNL     1       7.788   1.496   2.761  0.00  0.00    +0.044 C 
ATOM     19  C   UNL     1       6.895   2.669   3.077  0.00  0.00    -0.038 A 
ATOM     20  C   UNL     1       7.184   3.488   4.149  0.00  0.00    +0.004 A 
ATOM     21  C   UNL     1       6.366   4.565   4.440  0.00  0.00    +0.000 A 
ATOM     22  C   UNL     1       5.254   4.828   3.660  0.00  0.00    +0.001 A 
ATOM     23  C   UNL     1       4.957   4.020   2.582  0.00  0.00    +0.013 A 
ATOM     24  C   UNL     1       5.775   2.928   2.286  0.00  0.00    +0.040 A 
ENDBRANCH  14  24
ENDBRANCH  12  16
ENDBRANCH   1  12
BRANCH  10  25
ATOM     25  C   UNL     1      -0.676  -3.401  -2.117  0.00  0.00    -0.003 C 
BRANCH  25  26
ATOM     26  C   UNL     1      -1.636  -4.137  -1.218  0.00  0.00    +0.089 A 
ATOM     27  C   UNL     1      -2.868  -3.717  -0.873  0.00  0.00    +0.043 A 
ATOM     28  C   UNL     1      -3.417  -4.700  -0.025  0.00  0.00    +0.050 A 
ATOM     29  C   UNL     1      -2.480  -5.676   0.101  0.00  0.00    +0.136 A 
ATOM     30  O   UNL     1      -1.406  -5.324  -0.633  0.00  0.00    -0.462 OA
BRANCH  29  31
ATOM     31  C   UNL     1      -2.617  -6.912   0.899  0.00  0.00    +0.036 A 
ATOM     32  C   UNL     1      -2.323  -8.152   0.328  0.00  0.00    +0.013 A 
ATOM     33  C   UNL     1      -2.453  -9.302   1.078  0.00  0.00    +0.001 A 
ATOM     34  C   UNL     1      -2.873  -9.230   2.394  0.00  0.00    +0.001 A 
ATOM     35  C   UNL     1      -3.167  -8.006   2.967  0.00  0.00    +0.021 A 
ATOM     36  C   UNL     1      -3.035  -6.846   2.229  0.00  0.00    +0.052 A 
ATOM     37 CL   UNL     1      -3.397  -5.309   2.952  0.00  0.00    -0.083 Cl
ENDBRANCH  29  31
ENDBRANCH  25  26
ENDBRANCH  10  25
TORSDOF 6
