REMARK  Name = ZINC08230997
REMARK  5 active torsions:
REMARK  status: ('A' for Active; 'I' for Inactive)
REMARK    1  A    between atoms: C_1  and  C_2
REMARK    2  A    between atoms: C_2  and  C_4
REMARK    3  A    between atoms: C_2  and  S_16
REMARK    4  A    between atoms: S_16  and  C_17
REMARK    5  A    between atoms: N_21  and  C_22
REMARK                            x       y       z     vdW  Elec       q    Type
REMARK                         _______ _______ _______ _____ _____    ______ ____
ROOT
ATOM      1  C   UNL     1      -1.662   2.505  -6.689  0.00  0.00    +0.124 A 
ATOM      2  N   UNL     1      -2.440   1.398  -6.576  0.00  0.00    -0.309 N 
ATOM      3  H   UNL     1      -2.788   1.126  -5.679  0.00  0.00    +0.170 HD
ATOM      4  C   UNL     1      -2.748   0.658  -7.667  0.00  0.00    +0.259 A 
ATOM      5  O   UNL     1      -3.448  -0.335  -7.580  0.00  0.00    -0.267 OA
ATOM      6  C   UNL     1      -2.200   1.096  -8.959  0.00  0.00    +0.065 A 
ATOM      7  C   UNL     1      -2.452   0.401 -10.140  0.00  0.00    +0.015 A 
ATOM      8  C   UNL     1      -1.912   0.856 -11.323  0.00  0.00    +0.001 A 
ATOM      9  C   UNL     1      -1.121   1.997 -11.346  0.00  0.00    +0.002 A 
ATOM     10  C   UNL     1      -0.860   2.698 -10.190  0.00  0.00    +0.028 A 
ATOM     11  C   UNL     1      -1.396   2.257  -8.979  0.00  0.00    +0.078 A 
ATOM     12  N   UNL     1      -1.164   2.916  -7.816  0.00  0.00    -0.233 NA
ENDROOT
BRANCH   1  14
ATOM     13  C   UNL     1      -2.353   4.448  -5.312  0.00  0.00    +0.027 C 
ATOM     14  C   UNL     1      -1.356   3.295  -5.443  0.00  0.00    +0.117 C 
BRANCH  14  15
ATOM     15  S   UNL     1      -1.490   2.215  -3.997  0.00  0.00    -0.074 S 
BRANCH  15  16
ATOM     16  C   UNL     1      -0.949   3.321  -2.737  0.00  0.00    +0.210 A 
ATOM     17  N   UNL     1      -0.576   4.572  -2.902  0.00  0.00    -0.101 NA
ATOM     18  N   UNL     1      -0.236   5.092  -1.779  0.00  0.00    -0.022 NA
ATOM     19  N   UNL     1      -0.369   4.232  -0.828  0.00  0.00    -0.043 NA
ATOM     20  N   UNL     1      -0.843   3.046  -1.415  0.00  0.00    -0.217 N 
BRANCH  20  21
ATOM     21  C   UNL     1      -1.150   1.781  -0.743  0.00  0.00    +0.112 C 
ATOM     22  C   UNL     1      -0.013   1.086   0.008  0.00  0.00    +0.029 C 
ATOM     23  C   UNL     1      -1.136   1.773   0.788  0.00  0.00    +0.029 C 
ENDBRANCH  20  21
ENDBRANCH  15  16
ENDBRANCH  14  15
ENDBRANCH   1  14
TORSDOF 4
