REMARK  Name = ZINC09272746
REMARK  19 active torsions:
REMARK  status: ('A' for Active; 'I' for Inactive)
REMARK    1  A    between atoms: C_1  and  C_2
REMARK    2  A    between atoms: C_2  and  C_3
REMARK    3  A    between atoms: C_6  and  C_9
REMARK    4  A    between atoms: C_11  and  C_23
REMARK    5  A    between atoms: C_12  and  O_22
REMARK    6  A    between atoms: N_15  and  C_16
REMARK    7  A    between atoms: C_16  and  C_17
REMARK    8  A    between atoms: C_17  and  N_76
REMARK    9  A    between atoms: C_18  and  C_19
REMARK   10  A    between atoms: C_18  and  N_76
REMARK   11  A    between atoms: C_20  and  C_21
REMARK   12  A    between atoms: C_20  and  N_76
REMARK   13  A    between atoms: C_23  and  C_25
REMARK   14  A    between atoms: C_28  and  O_32
REMARK   15  A    between atoms: C_30  and  C_31
REMARK   16  A    between atoms: O_32  and  C_33
REMARK   17  A    between atoms: C_33  and  C_34
REMARK   18  A    between atoms: C_34  and  C_35
REMARK   19  A    between atoms: C_34  and  C_36
REMARK                            x       y       z     vdW  Elec       q    Type
REMARK                         _______ _______ _______ _____ _____    ______ ____
ROOT
ATOM      1  C   UNL     1      -1.284   1.505  -0.025  0.00  0.00    +0.144 C 
ATOM      2  C   UNL     1      -1.599   1.940   1.387  0.00  0.00    +0.071 C 
ATOM      3  C   UNL     1      -1.470   3.288   1.418  0.00  0.00    +0.188 C 
ATOM      4  C   UNL     1      -1.081   3.769   0.076  0.00  0.00    +0.282 C 
ATOM      5  O   UNL     1      -0.889   4.932  -0.219  0.00  0.00    -0.267 OA
ATOM      6  N   UNL     1      -0.971   2.730  -0.771  0.00  0.00    -0.285 N 
ENDROOT
BRANCH   1  10
ATOM      7  C   UNL     1       2.086  -1.120  -0.049  0.00  0.00    -0.048 A 
ATOM      8  C   UNL     1       0.820  -1.618  -0.297  0.00  0.00    +0.004 A 
ATOM      9  C   UNL     1      -0.271  -0.768  -0.287  0.00  0.00    +0.006 A 
ATOM     10  C   UNL     1      -0.096   0.578  -0.029  0.00  0.00    -0.022 A 
ATOM     11  C   UNL     1       1.170   1.076   0.220  0.00  0.00    +0.006 A 
ATOM     12  C   UNL     1       2.260   0.227   0.210  0.00  0.00    +0.004 A 
BRANCH   7  14
ATOM     13  C   UNL     1       3.857  -2.111  -1.473  0.00  0.00    +0.009 C 
ATOM     14  C   UNL     1       3.275  -2.046  -0.060  0.00  0.00    +0.032 C 
ENDBRANCH   7  14
ENDBRANCH   1  10
BRANCH   3  15
ATOM     15  O   UNL     1      -1.667   4.070   2.505  0.00  0.00    -0.502 OA
ATOM     16  H   UNL     1      -1.508   5.026   2.260  0.00  0.00    +0.292 HD
ENDBRANCH   3  15
BRANCH   2  17
ATOM     17  C   UNL     1      -1.972   1.070   2.508  0.00  0.00    +0.195 C 
ATOM     18  O   UNL     1      -2.103   1.538   3.624  0.00  0.00    -0.287 OA
BRANCH  17  19
ATOM     19  C   UNL     1      -2.189  -0.372   2.281  0.00  0.00    +0.025 A 
ATOM     20  C   UNL     1      -1.250  -1.303   2.737  0.00  0.00    +0.015 A 
ATOM     21  C   UNL     1      -1.459  -2.647   2.528  0.00  0.00    +0.046 A 
ATOM     22  C   UNL     1      -2.597  -3.080   1.856  0.00  0.00    +0.121 A 
ATOM     23  C   UNL     1      -3.530  -2.158   1.396  0.00  0.00    +0.049 A 
ATOM     24  C   UNL     1      -3.332  -0.812   1.606  0.00  0.00    -0.036 A 
ATOM     25  C   UNL     1      -4.345   0.187   1.108  0.00  0.00    +0.044 C 
BRANCH  22  26
ATOM     26  O   UNL     1      -2.796  -4.406   1.648  0.00  0.00    -0.492 OA
BRANCH  26  27
ATOM     27  C   UNL     1      -1.798  -5.298   2.146  0.00  0.00    +0.232 C 
BRANCH  27  28
ATOM     28  C   UNL     1      -2.193  -6.740   1.819  0.00  0.00    +0.020 C 
ATOM     29  C   UNL     1      -2.192  -6.937   0.302  0.00  0.00    +0.010 C 
ATOM     30  C   UNL     1      -1.190  -7.701   2.459  0.00  0.00    +0.010 C 
ENDBRANCH  27  28
ENDBRANCH  26  27
ENDBRANCH  22  26
ENDBRANCH  17  19
ENDBRANCH   2  17
BRANCH   6  31
ATOM     31  C   UNL     1      -0.605   2.806  -2.187  0.00  0.00    +0.090 C 
BRANCH  31  32
ATOM     32  C   UNL     1      -1.869   2.974  -3.033  0.00  0.00    -0.060 C 
BRANCH  32  33
ATOM     33  N   UNL     1      -1.482   3.071  -4.456  0.00  0.00    +0.380 N 
ATOM     34  H   UNL     1      -0.759   3.793  -4.556  0.00  0.00    -0.082 HD
BRANCH  33  35
ATOM     35  C   UNL     1      -0.935   1.778  -4.920  0.00  0.00    -0.082 C 
ATOM     36  C   UNL     1      -1.954   0.657  -4.706  0.00  0.00    -0.017 C 
ENDBRANCH  33  35
BRANCH  33  37
ATOM     37  C   UNL     1      -2.654   3.446  -5.274  0.00  0.00    -0.082 C 
ATOM     38  C   UNL     1      -2.176   3.811  -6.681  0.00  0.00    -0.017 C 
ENDBRANCH  33  37
ENDBRANCH  32  33
ENDBRANCH  31  32
ENDBRANCH   6  31
TORSDOF 13
