REMARK  Name = ZINC22679702
REMARK  6 active torsions:
REMARK  status: ('A' for Active; 'I' for Inactive)
REMARK    1  A    between atoms: N_9  and  C_11
REMARK    2  A    between atoms: C_11  and  C_13
REMARK    3  A    between atoms: C_11  and  C_26
REMARK    4  A    between atoms: C_13  and  N_14
REMARK    5  A    between atoms: N_17  and  C_18
REMARK    6  A    between atoms: C_18  and  C_19
REMARK                            x       y       z     vdW  Elec       q    Type
REMARK                         _______ _______ _______ _____ _____    ______ ____
ROOT
ATOM      1  C   UNL     1      -1.342   1.992  -5.893  0.00  0.00    +0.105 C 
ENDROOT
BRANCH   1  10
ATOM      2  C   UNL     1      -1.397   8.303  -7.111  0.00  0.00    +0.000 A 
ATOM      3  C   UNL     1      -0.706   8.082  -5.934  0.00  0.00    +0.000 A 
ATOM      4  C   UNL     1      -0.501   6.792  -5.488  0.00  0.00    +0.005 A 
ATOM      5  C   UNL     1      -0.987   5.714  -6.214  0.00  0.00    -0.030 A 
ATOM      6  C   UNL     1      -1.679   5.934  -7.385  0.00  0.00    -0.042 A 
ATOM      7  C   UNL     1      -1.882   7.231  -7.833  0.00  0.00    +0.004 A 
ATOM      8  C   UNL     1      -2.234   4.796  -8.202  0.00  0.00    +0.051 C 
ATOM      9  C   UNL     1      -1.568   3.484  -7.789  0.00  0.00    +0.090 C 
ATOM     10  N   UNL     1      -1.642   3.363  -6.324  0.00  0.00    -0.289 NA
ATOM     11  C   UNL     1      -0.735   4.324  -5.689  0.00  0.00    +0.120 C 
ENDBRANCH   1  10
BRANCH   1  12
ATOM     12  C   UNL     1       0.082   1.652  -6.254  0.00  0.00    -0.022 A 
ATOM     13  C   UNL     1       0.354   0.811  -7.317  0.00  0.00    +0.013 A 
ATOM     14  C   UNL     1       1.645   0.526  -7.615  0.00  0.00    +0.045 A 
ATOM     15  S   UNL     1       2.526   1.459  -6.374  0.00  0.00    -0.105 S 
ATOM     16  C   UNL     1       1.114   2.171  -5.545  0.00  0.00    +0.050 A 
ENDBRANCH   1  12
BRANCH   1  17
ATOM     17  C   UNL     1      -1.523   1.882  -4.378  0.00  0.00    +0.129 C 
BRANCH  17  18
ATOM     18  N   UNL     1      -2.871   2.327  -4.014  0.00  0.00    -0.298 N 
ATOM     19  C   UNL     1      -3.258   2.317  -2.723  0.00  0.00    +0.300 C 
ATOM     20  O   UNL     1      -2.489   1.940  -1.860  0.00  0.00    -0.253 OA
ATOM     21  N   UNL     1      -4.498   2.727  -2.388  0.00  0.00    -0.295 N 
ATOM     22  H   UNL     1      -3.567   2.668  -4.794  0.00  0.00    +0.150 HD
ATOM     23  H   UNL     1      -5.194   3.068  -3.169  0.00  0.00    +0.151 HD
BRANCH  21  24
ATOM     24  C   UNL     1      -4.919   2.716  -0.985  0.00  0.00    +0.141 C 
BRANCH  24  25
ATOM     25  C   UNL     1      -6.337   3.217  -0.882  0.00  0.00    -0.030 A 
ATOM     26  C   UNL     1      -6.582   4.565  -0.700  0.00  0.00    +0.006 A 
ATOM     27  C   UNL     1      -7.883   5.025  -0.612  0.00  0.00    +0.020 A 
ATOM     28  C   UNL     1      -8.938   4.134  -0.694  0.00  0.00    +0.041 A 
ATOM     29  C   UNL     1      -8.692   2.784  -0.871  0.00  0.00    +0.020 A 
ATOM     30  C   UNL     1      -7.391   2.326  -0.965  0.00  0.00    +0.006 A 
ATOM     31 CL   UNL     1     -10.572   4.711  -0.576  0.00  0.00    -0.084 Cl
ENDBRANCH  24  25
ENDBRANCH  21  24
ENDBRANCH  17  18
ENDBRANCH   1  17
TORSDOF 6
