REMARK  Name = ZINC35595016
REMARK  8 active torsions:
REMARK  status: ('A' for Active; 'I' for Inactive)
REMARK    1  A    between atoms: C_1  and  C_2
REMARK    2  A    between atoms: C_4  and  C_27
REMARK    3  A    between atoms: C_6  and  C_19
REMARK    4  A    between atoms: N_9  and  C_11
REMARK    5  A    between atoms: C_22  and  O_25
REMARK    6  A    between atoms: O_25  and  C_26
REMARK    7  A    between atoms: N_29  and  C_30
REMARK    8  A    between atoms: C_36  and  C_38
REMARK                            x       y       z     vdW  Elec       q    Type
REMARK                         _______ _______ _______ _____ _____    ______ ____
ROOT
ATOM      1  C   UNL     1      -0.199   1.498   0.022  0.00  0.00    +0.068 C 
ATOM      2  C   UNL     1      -0.147  -0.008   0.012  0.00  0.00    +0.070 A 
ATOM      3  C   UNL     1      -0.162  -0.824  -1.139  0.00  0.00    +0.054 A 
ATOM      4  C   UNL     1      -0.223  -0.557  -2.526  0.00  0.00    +0.051 A 
ATOM      5  C   UNL     1      -0.218  -1.639  -3.399  0.00  0.00    +0.042 A 
ATOM      6  C   UNL     1      -0.155  -2.936  -2.879  0.00  0.00    +0.074 A 
ATOM      7  N   UNL     1      -0.100  -3.155  -1.576  0.00  0.00    -0.228 NA
ATOM      8  C   UNL     1      -0.100  -2.162  -0.699  0.00  0.00    +0.160 A 
ATOM      9  N   UNL     1      -0.051  -2.116   0.670  0.00  0.00    -0.241 N 
ATOM     10  N   UNL     1      -0.077  -0.773   1.063  0.00  0.00    -0.174 NA
ENDROOT
BRANCH   9  11
ATOM     11  C   UNL     1       0.022  -3.273   1.567  0.00  0.00    +0.132 C 
ATOM     12  C   UNL     1       1.302  -3.182   2.414  0.00  0.00    +0.051 C 
ATOM     13  C   UNL     1       1.200  -4.231   3.558  0.00  0.00    +0.168 C 
ATOM     14  S   UNL     1      -0.570  -4.041   4.034  0.00  0.00    -0.029 S 
ATOM     15  O   UNL     1      -0.666  -3.092   5.087  0.00  0.00    -0.174 OA
ATOM     16  O   UNL     1      -1.145  -5.330   4.199  0.00  0.00    -0.174 OA
ATOM     17  C   UNL     1      -1.221  -3.287   2.489  0.00  0.00    +0.192 C 
ENDBRANCH   9  11
BRANCH   6  18
ATOM     18  C   UNL     1      -0.150  -4.090  -3.809  0.00  0.00    +0.001 A 
ATOM     19  C   UNL     1      -0.203  -3.878  -5.187  0.00  0.00    +0.013 A 
ATOM     20  C   UNL     1      -0.198  -4.954  -6.049  0.00  0.00    +0.046 A 
ATOM     21  C   UNL     1      -0.141  -6.247  -5.547  0.00  0.00    +0.120 A 
ATOM     22  C   UNL     1      -0.089  -6.462  -4.176  0.00  0.00    +0.046 A 
ATOM     23  C   UNL     1      -0.087  -5.391  -3.309  0.00  0.00    +0.013 A 
BRANCH  21  24
ATOM     24  O   UNL     1      -0.136  -7.305  -6.399  0.00  0.00    -0.495 OA
ATOM     25  C   UNL     1      -0.076  -8.608  -5.816  0.00  0.00    +0.277 C 
ENDBRANCH  21  24
ENDBRANCH   6  18
BRANCH   4  26
ATOM     26  C   UNL     1      -0.290   0.831  -3.034  0.00  0.00    +0.245 C 
ATOM     27  O   UNL     1       0.354   1.707  -2.491  0.00  0.00    -0.270 OA
ATOM     28  N   UNL     1      -1.064   1.123  -4.097  0.00  0.00    -0.308 N 
ATOM     29  H   UNL     1      -1.578   0.423  -4.529  0.00  0.00    +0.149 HD
BRANCH  28  30
ATOM     30  C   UNL     1      -1.130   2.498  -4.599  0.00  0.00    +0.076 C 
ATOM     31  C   UNL     1       0.032   2.745  -5.563  0.00  0.00    +0.022 C 
ATOM     32  C   UNL     1      -0.037   4.180  -6.088  0.00  0.00    +0.002 C 
ATOM     33  C   UNL     1      -1.363   4.392  -6.822  0.00  0.00    +0.000 C 
ATOM     34  C   UNL     1      -2.525   4.145  -5.858  0.00  0.00    +0.005 C 
ATOM     35  C   UNL     1      -2.456   2.709  -5.333  0.00  0.00    +0.006 C 
ATOM     36  C   UNL     1      -3.618   2.462  -4.369  0.00  0.00    +0.009 C 
ENDBRANCH  28  30
ENDBRANCH   4  26
TORSDOF 5
