REMARK  Name = ZINC33148387
REMARK  8 active torsions:
REMARK  status: ('A' for Active; 'I' for Inactive)
REMARK    1  A    between atoms: C_1  and  C_2
REMARK    2  A    between atoms: C_2  and  C_3
REMARK    3  A    between atoms: C_9  and  C_10
REMARK    4  A    between atoms: N_12  and  C_19
REMARK    5  A    between atoms: C_19  and  C_20
REMARK    6  A    between atoms: C_20  and  O_21
REMARK    7  A    between atoms: O_21  and  C_22
REMARK    8  A    between atoms: C_25  and  C_28
REMARK                            x       y       z     vdW  Elec       q    Type
REMARK                         _______ _______ _______ _____ _____    ______ ____
ROOT
ATOM      1  C   UNL     1       5.517  -0.773   6.433  0.00  0.00    +0.001 A 
ATOM      2  C   UNL     1       5.573  -2.149   6.550  0.00  0.00    +0.095 A 
ATOM      3  N   UNL     1       6.613  -2.493   7.335  0.00  0.00    -0.343 N 
ATOM      4  C   UNL     1       7.289  -1.371   7.770  0.00  0.00    +0.050 A 
ATOM      5  C   UNL     1       6.646  -0.248   7.228  0.00  0.00    +0.007 A 
ATOM      6  C   UNL     1       7.123   1.031   7.500  0.00  0.00    +0.010 A 
ATOM      7  C   UNL     1       8.232   1.188   8.303  0.00  0.00    +0.001 A 
ATOM      8  C   UNL     1       8.872   0.080   8.837  0.00  0.00    +0.002 A 
ATOM      9  C   UNL     1       8.405  -1.191   8.581  0.00  0.00    +0.026 A 
ENDROOT
BRANCH   1  16
ATOM     10  C   UNL     1      -0.318  -1.340   2.639  0.00  0.00    +0.100 C 
ATOM     11  N   UNL     1       0.602  -0.496   3.008  0.00  0.00    -0.169 NA
ATOM     12  N   UNL     1       1.332  -0.691   4.162  0.00  0.00    -0.152 N 
ATOM     13  C   UNL     1       2.284   0.202   4.697  0.00  0.00    +0.152 C 
ATOM     14  N   UNL     1       2.303   1.481   4.424  0.00  0.00    -0.283 NA
ATOM     15  C   UNL     1       3.264  -0.455   5.604  0.00  0.00    +0.081 C 
ATOM     16  C   UNL     1       4.574  -0.021   5.697  0.00  0.00    +0.026 C 
ATOM     17  C   UNL     1       2.763  -1.597   6.403  0.00  0.00    +0.273 C 
ATOM     18  O   UNL     1       3.292  -1.905   7.459  0.00  0.00    -0.268 OA
ATOM     19  N   UNL     1       1.705  -2.286   5.930  0.00  0.00    -0.152 NA
ATOM     20  C   UNL     1       1.083  -1.851   4.863  0.00  0.00    +0.181 C 
ATOM     21  S   UNL     1      -0.253  -2.564   3.941  0.00  0.00    -0.038 S 
ATOM     22  H   UNL     1       1.639   1.859   3.826  0.00  0.00    +0.188 HD
BRANCH  10  24
ATOM     23  C   UNL     1      -0.893  -0.045   0.604  0.00  0.00    +0.011 C 
ATOM     24  C   UNL     1      -1.213  -1.294   1.428  0.00  0.00    +0.061 C 
ENDBRANCH  10  24
ENDBRANCH   1  16
BRANCH   3  25
ATOM     25  C   UNL     1       6.976  -3.870   7.679  0.00  0.00    +0.163 C 
BRANCH  25  26
ATOM     26  C   UNL     1       6.348  -4.242   9.023  0.00  0.00    +0.250 C 
BRANCH  26  27
ATOM     27  O   UNL     1       6.702  -5.586   9.359  0.00  0.00    -0.490 OA
BRANCH  27  28
ATOM     28  C   UNL     1       6.222  -6.076  10.532  0.00  0.00    +0.121 A 
ATOM     29  C   UNL     1       5.421  -5.282  11.340  0.00  0.00    +0.046 A 
ATOM     30  C   UNL     1       4.934  -5.783  12.532  0.00  0.00    +0.007 A 
ATOM     31  C   UNL     1       5.243  -7.073  12.919  0.00  0.00    -0.044 A 
ATOM     32  C   UNL     1       6.042  -7.866  12.115  0.00  0.00    +0.007 A 
ATOM     33  C   UNL     1       6.527  -7.372  10.920  0.00  0.00    +0.046 A 
BRANCH  31  34
ATOM     34  C   UNL     1       4.711  -7.617  14.220  0.00  0.00    +0.019 C 
ATOM     35  C   UNL     1       5.880  -8.006  15.127  0.00  0.00    +0.008 C 
ATOM     36  C   UNL     1       5.339  -8.558  16.448  0.00  0.00    +0.001 C 
ATOM     37  C   UNL     1       4.476  -9.791  16.170  0.00  0.00    +0.000 C 
ATOM     38  C   UNL     1       3.307  -9.401  15.263  0.00  0.00    +0.001 C 
ATOM     39  C   UNL     1       3.848  -8.850  13.943  0.00  0.00    +0.008 C 
ENDBRANCH  31  34
ENDBRANCH  27  28
ENDBRANCH  26  27
ENDBRANCH  25  26
ENDBRANCH   3  25
TORSDOF 7
