REMARK  Name = ZINC09305464
REMARK  10 active torsions:
REMARK  status: ('A' for Active; 'I' for Inactive)
REMARK    1  A    between atoms: C_1  and  C_2
REMARK    2  A    between atoms: C_5  and  C_8
REMARK    3  A    between atoms: N_10  and  C_11
REMARK    4  A    between atoms: C_11  and  C_12
REMARK    5  A    between atoms: N_14  and  N_15
REMARK    6  A    between atoms: C_16  and  C_17
REMARK    7  A    between atoms: C_20  and  O_24
REMARK    8  A    between atoms: O_24  and  C_25
REMARK    9  A    between atoms: C_25  and  C_26
REMARK   10  A    between atoms: C_31  and  C_32
REMARK                            x       y       z     vdW  Elec       q    Type
REMARK                         _______ _______ _______ _____ _____    ______ ____
ROOT
ATOM      1  N   UNL     1       5.883   2.674  -0.040  0.00  0.00    -0.188 NA
ATOM      2  C   UNL     1       7.112   2.258  -0.054  0.00  0.00    +0.138 C 
ENDROOT
BRANCH   2   3
ATOM      3  C   UNL     1       8.220   3.231  -0.059  0.00  0.00    -0.004 A 
ATOM      4  C   UNL     1       7.948   4.602  -0.055  0.00  0.00    +0.013 A 
ATOM      5  C   UNL     1       8.986   5.508  -0.056  0.00  0.00    +0.047 A 
ATOM      6  C   UNL     1      10.301   5.061  -0.070  0.00  0.00    +0.135 A 
ATOM      7  C   UNL     1      10.576   3.699  -0.080  0.00  0.00    +0.060 A 
ATOM      8  C   UNL     1       9.544   2.785  -0.074  0.00  0.00    +0.028 A 
ATOM      9 BR   UNL     1      12.369   3.099  -0.100  0.00  0.00    -0.046 Br
BRANCH   6  10
ATOM     10  O   UNL     1      11.321   5.959  -0.076  0.00  0.00    -0.486 OA
BRANCH  10  11
ATOM     11  C   UNL     1      10.967   7.343  -0.067  0.00  0.00    +0.265 C 
BRANCH  11  12
ATOM     12  C   UNL     1      12.220   8.182  -0.075  0.00  0.00    +0.007 A 
ATOM     13  C   UNL     1      13.458   7.574  -0.084  0.00  0.00    +0.008 A 
ATOM     14  C   UNL     1      14.609   8.342  -0.096  0.00  0.00    +0.000 A 
ATOM     15  C   UNL     1      14.526   9.724  -0.089  0.00  0.00    +0.001 A 
ATOM     16  C   UNL     1      13.294  10.344  -0.075  0.00  0.00    +0.019 A 
ATOM     17  C   UNL     1      12.129   9.575  -0.068  0.00  0.00    +0.058 A 
BRANCH  17  18
ATOM     18  C   UNL     1      10.846  10.212  -0.052  0.00  0.00    +0.100 C 
ATOM     19  N   UNL     1       9.829  10.717  -0.040  0.00  0.00    -0.191 NA
ENDBRANCH  17  18
ENDBRANCH  11  12
ENDBRANCH  10  11
ENDBRANCH   6  10
ENDBRANCH   2   3
BRANCH   1  22
ATOM     20  C   UNL     1       3.554   2.181  -0.020  0.00  0.00    +0.249 C 
ATOM     21  O   UNL     1       3.316   3.370  -0.011  0.00  0.00    -0.272 OA
ATOM     22  N   UNL     1       4.831   1.749  -0.035  0.00  0.00    -0.206 N 
ATOM     23  H   UNL     1       5.021   0.798  -0.042  0.00  0.00    +0.177 HD
BRANCH  20  24
ATOM     24  C   UNL     1       2.422   1.186  -0.015  0.00  0.00    +0.202 C 
BRANCH  24  27
ATOM     25  C   UNL     1      -0.014   1.211   0.009  0.00  0.00    +0.244 C 
ATOM     26  O   UNL     1       0.002  -0.004   0.002  0.00  0.00    -0.270 OA
ATOM     27  N   UNL     1       1.143   1.901   0.001  0.00  0.00    -0.303 N 
ATOM     28  H   UNL     1       1.130   2.871   0.007  0.00  0.00    +0.150 HD
BRANCH  25  33
ATOM     29  C   UNL     1      -5.037   4.021   0.049  0.00  0.00    +0.044 C 
ATOM     30  C   UNL     1      -3.721   3.285   0.038  0.00  0.00    -0.050 A 
ATOM     31  C   UNL     1      -3.706   1.901   0.030  0.00  0.00    +0.004 A 
ATOM     32  C   UNL     1      -2.506   1.222   0.021  0.00  0.00    +0.013 A 
ATOM     33  C   UNL     1      -1.305   1.933   0.019  0.00  0.00    +0.037 A 
ATOM     34  C   UNL     1      -1.327   3.329   0.032  0.00  0.00    +0.013 A 
ATOM     35  C   UNL     1      -2.534   3.996   0.036  0.00  0.00    +0.004 A 
ENDBRANCH  25  33
ENDBRANCH  24  27
ENDBRANCH  20  24
ENDBRANCH   1  22
TORSDOF 9
