REMARK  Name = ZINC64526077
REMARK  7 active torsions:
REMARK  status: ('A' for Active; 'I' for Inactive)
REMARK    1  A    between atoms: C_1  and  N_2
REMARK    2  A    between atoms: C_6  and  C_7
REMARK    3  A    between atoms: N_9  and  C_10
REMARK    4  A    between atoms: N_9  and  C_11
REMARK    5  A    between atoms: C_11  and  C_12
REMARK    6  A    between atoms: C_12  and  C_13
REMARK    7  A    between atoms: C_16  and  C_19
REMARK                            x       y       z     vdW  Elec       q    Type
REMARK                         _______ _______ _______ _____ _____    ______ ____
ROOT
ATOM      1  C   UNL     1       1.935   1.954   5.567  0.00  0.00    +0.139 C 
ATOM      2  N   UNL     1       1.108   2.265   6.497  0.00  0.00    -0.072 NA
ATOM      3  O   UNL     1       1.791   2.691   7.662  0.00  0.00    -0.367 OA
ATOM      4  C   UNL     1       3.193   2.613   7.359  0.00  0.00    +0.318 C 
ATOM      5  N   UNL     1       3.238   2.119   5.973  0.00  0.00    -0.291 N 
ATOM      6  H   UNL     1       4.034   1.945   5.447  0.00  0.00    +0.151 HD
ENDROOT
BRANCH   4   7
ATOM      7  C   UNL     1       3.890   1.627   8.299  0.00  0.00    +0.165 C 
ATOM      8  C   UNL     1       3.305   0.243   8.130  0.00  0.00    +0.012 C 
ATOM      9  C   UNL     1       2.789  -0.095   9.334  0.00  0.00    -0.002 A 
ATOM     10  C   UNL     1       2.094  -1.295   9.815  0.00  0.00    +0.029 A 
ATOM     11  C   UNL     1       1.685  -1.344  11.104  0.00  0.00    +0.042 A 
ATOM     12  C   UNL     1       1.909  -0.278  11.989  0.00  0.00    +0.022 A 
ATOM     13  C   UNL     1       2.540   0.856  11.620  0.00  0.00    +0.027 A 
ATOM     14  C   UNL     1       3.012   1.014  10.287  0.00  0.00    +0.043 A 
ATOM     15  N   UNL     1       3.644   2.002   9.697  0.00  0.00    -0.373 N 
ATOM     16 CL   UNL     1       0.862  -2.761  11.678  0.00  0.00    -0.084 Cl
ATOM     17  H   UNL     1       3.904   2.838  10.113  0.00  0.00    +0.160 HD
ENDBRANCH   4   7
BRANCH   1  18
ATOM     18  C   UNL     1       1.529   1.462   4.201  0.00  0.00    +0.094 C 
BRANCH  18  19
ATOM     19  C   UNL     1       0.002   1.406   4.113  0.00  0.00    +0.115 C 
BRANCH  19  22
ATOM     20  C   UNL     1      -0.557  -0.391   2.565  0.00  0.00    +0.263 C 
ATOM     21  O   UNL     1      -0.514  -1.173   3.497  0.00  0.00    -0.268 OA
ATOM     22  N   UNL     1      -0.393   0.929   2.785  0.00  0.00    -0.299 N 
ATOM     23  C   UNL     1      -0.610   1.885   1.697  0.00  0.00    +0.132 C 
BRANCH  20  29
ATOM     24  C   UNL     1      -0.678  -3.362   1.696  0.00  0.00    +0.149 C 
ATOM     25  N   UNL     1      -0.842  -2.204   0.814  0.00  0.00    -0.346 N 
ATOM     26  C   UNL     1      -1.078  -2.252  -0.519  0.00  0.00    +0.086 A 
ATOM     27  C   UNL     1      -1.170  -0.988  -0.995  0.00  0.00    +0.020 A 
ATOM     28  C   UNL     1      -0.986  -0.111   0.079  0.00  0.00    +0.032 A 
ATOM     29  C   UNL     1      -0.788  -0.884   1.204  0.00  0.00    +0.104 A 
ENDBRANCH  20  29
ENDBRANCH  19  22
ENDBRANCH  18  19
ENDBRANCH   1  18
TORSDOF 5
