REMARK  Name = ZINC09809562
REMARK  9 active torsions:
REMARK  status: ('A' for Active; 'I' for Inactive)
REMARK    1  A    between atoms: C_1  and  C_2
REMARK    2  A    between atoms: C_2  and  O_3
REMARK    3  A    between atoms: O_3  and  C_4
REMARK    4  A    between atoms: C_4  and  C_6
REMARK    5  A    between atoms: C_6  and  N_7
REMARK    6  A    between atoms: C_11  and  S_27
REMARK    7  A    between atoms: N_16  and  C_17
REMARK    8  A    between atoms: C_17  and  C_19
REMARK    9  A    between atoms: S_27  and  N_30
REMARK                            x       y       z     vdW  Elec       q    Type
REMARK                         _______ _______ _______ _____ _____    ______ ____
ROOT
ATOM      1  N   UNL     1      -1.265   2.505  -0.134  0.00  0.00    -0.310 N 
ATOM      2  C   UNL     1      -0.100   1.941  -0.619  0.00  0.00    +0.058 A 
ATOM      3  C   UNL     1       0.127   0.612  -1.012  0.00  0.00    +0.029 A 
ATOM      4  C   UNL     1       1.357   0.217  -1.480  0.00  0.00    +0.030 A 
ATOM      5  C   UNL     1       2.408   1.113  -1.581  0.00  0.00    +0.106 A 
ATOM      6  C   UNL     1       2.213   2.429  -1.201  0.00  0.00    +0.045 A 
ATOM      7  C   UNL     1       0.983   2.825  -0.731  0.00  0.00    +0.041 A 
ATOM      8  S   UNL     1       0.314   4.364  -0.153  0.00  0.00    -0.052 S 
ATOM      9  C   UNL     1      -1.295   3.823   0.202  0.00  0.00    +0.167 A 
ATOM     10  N   UNL     1      -2.314   4.528   0.681  0.00  0.00    -0.152 NA
ENDROOT
BRANCH   5  11
ATOM     11  S   UNL     1       3.976   0.583  -2.185  0.00  0.00    +0.056 S 
ATOM     12  O   UNL     1       4.939   1.490  -1.665  0.00  0.00    -0.153 OA
ATOM     13  O   UNL     1       4.047  -0.817  -1.956  0.00  0.00    -0.153 OA
BRANCH  11  14
ATOM     14  N   UNL     1       3.965   0.795  -3.827  0.00  0.00    -0.204 NA
ATOM     15  H   UNL     1       3.178   1.154  -4.265  0.00  0.00    +0.144 HD
ATOM     16  H   UNL     1       4.747   0.559  -4.352  0.00  0.00    +0.144 HD
ENDBRANCH  11  14
ENDBRANCH   5  11
BRANCH  10  17
ATOM     17  C   UNL     1      -2.160   5.828   0.951  0.00  0.00    +0.271 C 
ATOM     18  O   UNL     1      -1.084   6.367   0.757  0.00  0.00    -0.268 OA
BRANCH  17  19
ATOM     19  C   UNL     1      -3.296   6.613   1.486  0.00  0.00    +0.058 A 
ATOM     20  C   UNL     1      -4.528   5.999   1.709  0.00  0.00    +0.034 A 
ATOM     21  C   UNL     1      -5.583   6.737   2.207  0.00  0.00    +0.042 A 
ATOM     22  C   UNL     1      -5.420   8.084   2.486  0.00  0.00    +0.021 A 
ATOM     23  C   UNL     1      -4.201   8.698   2.267  0.00  0.00    +0.022 A 
ATOM     24  C   UNL     1      -3.136   7.970   1.774  0.00  0.00    +0.053 A 
ATOM     25 CL   UNL     1      -1.604   8.742   1.506  0.00  0.00    -0.083 Cl
ATOM     26 CL   UNL     1      -7.118   5.974   2.486  0.00  0.00    -0.084 Cl
ENDBRANCH  17  19
ENDBRANCH  10  17
BRANCH   1  27
ATOM     27  C   UNL     1      -2.466   1.682   0.022  0.00  0.00    +0.244 C 
BRANCH  27  28
ATOM     28  C   UNL     1      -3.155   2.038   1.315  0.00  0.00    +0.327 C 
ATOM     29  O   UNL     1      -2.609   2.767   2.109  0.00  0.00    -0.249 OA
BRANCH  28  30
ATOM     30  O   UNL     1      -4.374   1.545   1.584  0.00  0.00    -0.464 OA
BRANCH  30  32
ATOM     31  C   UNL     1      -6.353   1.276   2.977  0.00  0.00    +0.048 C 
ATOM     32  C   UNL     1      -4.976   1.930   2.848  0.00  0.00    +0.229 C 
ENDBRANCH  30  32
ENDBRANCH  28  30
ENDBRANCH  27  28
ENDBRANCH   1  27
TORSDOF 8
