REMARK  Name = ZINC19973312
REMARK  11 active torsions:
REMARK  status: ('A' for Active; 'I' for Inactive)
REMARK    1  A    between atoms: C_1  and  C_2
REMARK    2  A    between atoms: C_2  and  O_3
REMARK    3  A    between atoms: O_3  and  C_4
REMARK    4  A    between atoms: C_11  and  C_16
REMARK    5  A    between atoms: C_16  and  C_18
REMARK    6  A    between atoms: C_16  and  N_27
REMARK    7  A    between atoms: N_22  and  C_23
REMARK    8  A    between atoms: C_23  and  C_24
REMARK    9  A    between atoms: C_24  and  O_25
REMARK   10  A    between atoms: O_25  and  C_26
REMARK   11  A    between atoms: N_30  and  C_33
REMARK                            x       y       z     vdW  Elec       q    Type
REMARK                         _______ _______ _______ _____ _____    ______ ____
ROOT
ATOM      1  C   UNL     1      -0.013   1.086   0.008  0.00  0.00    +0.162 C 
ENDROOT
BRANCH   1   9
ATOM      2  C   UNL     1      -3.177   1.189   5.338  0.00  0.00    +0.121 A 
ATOM      3  C   UNL     1      -3.292   2.575   5.416  0.00  0.00    +0.047 A 
ATOM      4  C   UNL     1      -2.753   3.381   4.438  0.00  0.00    +0.030 A 
ATOM      5  C   UNL     1      -2.085   2.812   3.359  0.00  0.00    +0.049 A 
ATOM      6  C   UNL     1      -1.966   1.412   3.276  0.00  0.00    +0.002 A 
ATOM      7  C   UNL     1      -2.518   0.604   4.275  0.00  0.00    +0.055 A 
ATOM      8  C   UNL     1      -1.260   0.826   2.134  0.00  0.00    +0.021 A 
ATOM      9  C   UNL     1      -0.745   1.657   1.195  0.00  0.00    +0.042 A 
ATOM     10  C   UNL     1      -0.886   3.055   1.328  0.00  0.00    +0.254 A 
ATOM     11  O   UNL     1      -0.410   3.784   0.475  0.00  0.00    -0.268 OA
ATOM     12  N   UNL     1      -1.537   3.602   2.369  0.00  0.00    -0.322 N 
ATOM     13  H   UNL     1      -1.631   4.697   2.425  0.00  0.00    +0.169 HD
BRANCH   2  14
ATOM     14  O   UNL     1      -3.716   0.409   6.312  0.00  0.00    -0.492 OA
BRANCH  14  16
ATOM     15  C   UNL     1      -4.920   0.044   8.375  0.00  0.00    +0.048 C 
ATOM     16  C   UNL     1      -4.383   1.079   7.384  0.00  0.00    +0.225 C 
ENDBRANCH  14  16
ENDBRANCH   2  14
ENDBRANCH   1   9
BRANCH   1  17
ATOM     17  N   UNL     1       1.316   1.705  -0.092  0.00  0.00    -0.292 NA
ATOM     18  C   UNL     1       2.034   1.221  -1.280  0.00  0.00    +0.067 C 
ATOM     19  C   UNL     1       3.377   1.947  -1.391  0.00  0.00    -0.063 C 
ATOM     20  N   UNL     1       4.162   1.710  -0.172  0.00  0.00    +0.383 N 
ATOM     21  C   UNL     1       3.443   2.194   1.016  0.00  0.00    -0.063 C 
ATOM     22  C   UNL     1       2.101   1.468   1.127  0.00  0.00    +0.067 C 
ATOM     23  H   UNL     1       4.303   0.625  -0.065  0.00  0.00    -0.081 HD
BRANCH  20  24
ATOM     24  C   UNL     1       5.490   2.329  -0.272  0.00  0.00    -0.068 C 
ATOM     25  C   UNL     1       5.338   3.848  -0.375  0.00  0.00    -0.015 C 
ATOM     26  C   UNL     1       6.722   4.493  -0.480  0.00  0.00    -0.002 C 
ATOM     27  C   UNL     1       7.437   3.966  -1.725  0.00  0.00    -0.000 C 
ATOM     28  C   UNL     1       7.589   2.447  -1.622  0.00  0.00    -0.002 C 
ATOM     29  C   UNL     1       6.205   1.803  -1.518  0.00  0.00    -0.015 C 
ENDBRANCH  20  24
ENDBRANCH   1  17
BRANCH   1  30
ATOM     30  C   UNL     1      -0.795   1.369  -1.248  0.00  0.00    +0.173 A 
ATOM     31  N   UNL     1      -0.896   2.522  -1.864  0.00  0.00    -0.111 NA
ATOM     32  N   UNL     1      -1.648   2.356  -2.898  0.00  0.00    -0.023 NA
ATOM     33  N   UNL     1      -2.035   1.129  -2.953  0.00  0.00    -0.044 NA
ATOM     34  N   UNL     1      -1.530   0.489  -1.953  0.00  0.00    -0.225 N 
BRANCH  34  35
ATOM     35  C   UNL     1      -1.721  -0.930  -1.643  0.00  0.00    +0.175 C 
BRANCH  35  36
ATOM     36  C   UNL     1      -2.944  -1.095  -0.739  0.00  0.00    +0.183 C 
BRANCH  36  37
ATOM     37  O   UNL     1      -3.130  -2.479  -0.437  0.00  0.00    -0.381 OA
ATOM     38  C   UNL     1      -4.253  -2.744   0.406  0.00  0.00    +0.194 C 
ENDBRANCH  36  37
ENDBRANCH  35  36
ENDBRANCH  34  35
ENDBRANCH   1  30
TORSDOF 9
