REMARK  Name = ZINC33031418
REMARK  5 active torsions:
REMARK  status: ('A' for Active; 'I' for Inactive)
REMARK    1  A    between atoms: C_1  and  C_2
REMARK    2  A    between atoms: C_7  and  S_12
REMARK    3  A    between atoms: C_9  and  C_11
REMARK    4  A    between atoms: S_12  and  C_13
REMARK    5  A    between atoms: C_13  and  C_14
REMARK                            x       y       z     vdW  Elec       q    Type
REMARK                         _______ _______ _______ _____ _____    ______ ____
ROOT
ATOM      1  C   UNL     1       5.212   0.794   1.790  0.00  0.00    +0.143 A 
ATOM      2  N   UNL     1       5.563  -0.480   1.793  0.00  0.00    -0.216 NA
ATOM      3  C   UNL     1       6.705  -0.898   1.271  0.00  0.00    +0.128 A 
ATOM      4  C   UNL     1       7.593   0.054   0.697  0.00  0.00    +0.051 A 
ATOM      5  C   UNL     1       8.898  -0.170   0.073  0.00  0.00    -0.025 A 
ATOM      6  C   UNL     1       9.545   0.916  -0.398  0.00  0.00    -0.004 A 
ATOM      7  S   UNL     1       8.473   2.283  -0.045  0.00  0.00    -0.073 S 
ATOM      8  C   UNL     1       7.153   1.393   0.737  0.00  0.00    +0.114 A 
ATOM      9  N   UNL     1       5.994   1.722   1.273  0.00  0.00    -0.224 NA
ATOM     10  C   UNL     1      10.882   0.953  -1.073  0.00  0.00    +0.043 C 
ATOM     11  C   UNL     1      11.588  -0.388  -0.826  0.00  0.00    +0.005 C 
ATOM     12  C   UNL     1      10.604  -1.524  -1.122  0.00  0.00    +0.005 C 
ATOM     13  C   UNL     1       9.516  -1.560  -0.049  0.00  0.00    +0.037 C 
ATOM     14  N   UNL     1       7.034  -2.241   1.288  0.00  0.00    -0.343 N 
ATOM     15  H   UNL     1       7.985  -2.580   0.853  0.00  0.00    +0.144 HD
ATOM     16  H   UNL     1       6.344  -2.970   1.738  0.00  0.00    +0.144 HD
ENDROOT
BRANCH   1  17
ATOM     17  C   UNL     1       3.893   1.196   2.397  0.00  0.00    +0.153 C 
BRANCH  17  18
ATOM     18  S   UNL     1       2.603   1.152   1.122  0.00  0.00    -0.078 S 
BRANCH  18  25
ATOM     19  C   UNL     1      -4.203   2.383   0.637  0.00  0.00    +0.066 C 
ATOM     20  C   UNL     1      -2.745   2.168   0.952  0.00  0.00    +0.044 A 
ATOM     21  C   UNL     1      -2.293   2.373   2.217  0.00  0.00    +0.071 A 
ATOM     22  C   UNL     1      -0.922   2.165   2.482  0.00  0.00    +0.165 A 
ATOM     23  N   UNL     1      -0.161   2.264   3.550  0.00  0.00    -0.128 NA
ATOM     24  N   UNL     1       1.052   1.955   3.249  0.00  0.00    -0.122 NA
ATOM     25  C   UNL     1       1.142   1.640   1.976  0.00  0.00    +0.198 A 
ATOM     26  N   UNL     1      -0.105   1.761   1.441  0.00  0.00    -0.258 N 
ATOM     27  C   UNL     1      -0.639   1.577   0.202  0.00  0.00    +0.114 A 
ATOM     28  N   UNL     1      -1.907   1.782  -0.018  0.00  0.00    -0.239 NA
ATOM     29  C   UNL     1       0.251   1.138  -0.932  0.00  0.00    +0.086 C 
ENDBRANCH  18  25
ENDBRANCH  17  18
ENDBRANCH   1  17
TORSDOF 3
