REMARK  Name = ZINC38649180
REMARK  9 active torsions:
REMARK  status: ('A' for Active; 'I' for Inactive)
REMARK    1  A    between atoms: C_1  and  C_2
REMARK    2  A    between atoms: C_5  and  C_8
REMARK    3  A    between atoms: C_13  and  O_22
REMARK    4  A    between atoms: C_17  and  N_21
REMARK    5  A    between atoms: C_18  and  C_19
REMARK    6  A    between atoms: O_22  and  C_23
REMARK    7  A    between atoms: C_23  and  C_25
REMARK    8  A    between atoms: C_25  and  O_26
REMARK    9  A    between atoms: O_26  and  C_27
REMARK                            x       y       z     vdW  Elec       q    Type
REMARK                         _______ _______ _______ _____ _____    ______ ____
ROOT
ATOM      1  C   UNL     1       0.096  -4.312   0.017  0.00  0.00    +0.098 C 
ATOM      2  C   UNL     1      -1.137  -4.822   0.714  0.00  0.00    +0.008 A 
ATOM      3  C   UNL     1      -2.369  -4.699   0.095  0.00  0.00    +0.012 A 
ATOM      4  C   UNL     1      -3.511  -5.160   0.719  0.00  0.00    +0.047 A 
ATOM      5  C   UNL     1      -3.425  -5.751   1.973  0.00  0.00    +0.135 A 
ATOM      6  C   UNL     1      -2.194  -5.876   2.595  0.00  0.00    +0.093 A 
ATOM      7  C   UNL     1      -1.047  -5.410   1.966  0.00  0.00    +0.138 A 
ATOM      8  O   UNL     1       0.151  -5.540   2.588  0.00  0.00    -0.441 OA
ATOM      9  C   UNL     1       1.288  -5.467   1.876  0.00  0.00    +0.199 C 
ATOM     10  C   UNL     1       1.327  -4.896   0.652  0.00  0.00    +0.098 C 
ENDROOT
BRANCH   1  15
ATOM     11  C   UNL     1       0.279   1.449   0.423  0.00  0.00    +0.044 C 
ATOM     12  C   UNL     1       0.231  -0.053   0.317  0.00  0.00    -0.050 A 
ATOM     13  C   UNL     1       0.184  -0.657  -0.925  0.00  0.00    +0.003 A 
ATOM     14  C   UNL     1       0.140  -2.036  -1.022  0.00  0.00    +0.005 A 
ATOM     15  C   UNL     1       0.145  -2.810   0.123  0.00  0.00    -0.035 A 
ATOM     16  C   UNL     1       0.193  -2.206   1.365  0.00  0.00    +0.005 A 
ATOM     17  C   UNL     1       0.241  -0.828   1.462  0.00  0.00    +0.003 A 
ENDBRANCH   1  15
BRANCH   9  18
ATOM     18  N   UNL     1       2.442  -5.985   2.408  0.00  0.00    -0.328 N 
ATOM     19  H   UNL     1       2.429  -6.397   3.286  0.00  0.00    +0.145 HD
ATOM     20  H   UNL     1       3.271  -5.939   1.906  0.00  0.00    +0.145 HD
ENDBRANCH   9  18
BRANCH  10  21
ATOM     21  C   UNL     1       2.571  -4.849  -0.055  0.00  0.00    +0.101 C 
ATOM     22  N   UNL     1       3.558  -4.811  -0.616  0.00  0.00    -0.191 NA
ENDBRANCH  10  21
BRANCH   5  23
ATOM     23  O   UNL     1      -4.549  -6.205   2.588  0.00  0.00    -0.423 OA
BRANCH  23  24
ATOM     24  C   UNL     1      -4.979  -5.550   3.679  0.00  0.00    +0.350 C 
ATOM     25  O   UNL     1      -4.434  -4.529   4.024  0.00  0.00    -0.247 OA
BRANCH  24  26
ATOM     26  C   UNL     1      -6.141  -6.089   4.472  0.00  0.00    +0.349 C 
BRANCH  26  27
ATOM     27  O   UNL     1      -6.407  -5.223   5.577  0.00  0.00    -0.479 OA
BRANCH  27  28
ATOM     28  C   UNL     1      -7.433  -5.567   6.399  0.00  0.00    +0.140 A 
ATOM     29  C   UNL     1      -8.165  -6.719   6.151  0.00  0.00    +0.048 A 
ATOM     30  C   UNL     1      -9.207  -7.068   6.987  0.00  0.00    +0.023 A 
ATOM     31  C   UNL     1      -9.522  -6.270   8.073  0.00  0.00    +0.043 A 
ATOM     32  C   UNL     1      -8.794  -5.120   8.323  0.00  0.00    +0.043 A 
ATOM     33  C   UNL     1      -7.746  -4.770   7.492  0.00  0.00    +0.084 A 
ATOM     34 CL   UNL     1      -6.827  -3.332   7.809  0.00  0.00    -0.080 Cl
ATOM     35 CL   UNL     1     -10.833  -6.711   9.122  0.00  0.00    -0.083 Cl
ENDBRANCH  27  28
ENDBRANCH  26  27
ENDBRANCH  24  26
ENDBRANCH  23  24
ENDBRANCH   5  23
TORSDOF 8
