REMARK  Name = ZINC22620185
REMARK  6 active torsions:
REMARK  status: ('A' for Active; 'I' for Inactive)
REMARK    1  A    between atoms: C_1  and  C_2
REMARK    2  A    between atoms: C_2  and  C_4
REMARK    3  A    between atoms: C_2  and  S_16
REMARK    4  A    between atoms: N_9  and  C_10
REMARK    5  A    between atoms: S_16  and  C_17
REMARK    6  A    between atoms: N_29  and  C_30
REMARK                            x       y       z     vdW  Elec       q    Type
REMARK                         _______ _______ _______ _____ _____    ______ ____
ROOT
ATOM      1  C   UNL     1       2.856   5.473   1.315  0.00  0.00    +0.029 C 
ATOM      2  C   UNL     1       2.298   6.059   0.016  0.00  0.00    +0.137 C 
ENDROOT
BRANCH   2   3
ATOM      3  C   UNL     1       2.712   7.503  -0.103  0.00  0.00    +0.233 C 
ATOM      4  O   UNL     1       1.965   8.380   0.274  0.00  0.00    -0.274 OA
ATOM      5  N   UNL     1       3.912   7.819  -0.628  0.00  0.00    -0.239 N 
ATOM      6  C   UNL     1       4.283   9.110  -0.734  0.00  0.00    +0.306 C 
ATOM      7  O   UNL     1       3.534   9.990  -0.356  0.00  0.00    -0.252 OA
ATOM      8  N   UNL     1       5.483   9.426  -1.259  0.00  0.00    -0.296 N 
ATOM      9  H   UNL     1       4.590   7.022  -0.970  0.00  0.00    +0.159 HD
ATOM     10  H   UNL     1       6.161   8.630  -1.601  0.00  0.00    +0.151 HD
BRANCH   8  11
ATOM     11  C   UNL     1       5.886  10.830  -1.375  0.00  0.00    +0.074 C 
ATOM     12  C   UNL     1       5.328  11.415  -2.673  0.00  0.00    +0.022 C 
ATOM     13  C   UNL     1       5.748  12.881  -2.794  0.00  0.00    +0.002 C 
ATOM     14  C   UNL     1       7.275  12.974  -2.807  0.00  0.00    +0.000 C 
ATOM     15  C   UNL     1       7.833  12.389  -1.508  0.00  0.00    +0.002 C 
ATOM     16  C   UNL     1       7.413  10.923  -1.388  0.00  0.00    +0.022 C 
ENDBRANCH   8  11
ENDBRANCH   2   3
BRANCH   2  17
ATOM     17  S   UNL     1       0.491   5.949   0.032  0.00  0.00    -0.075 S 
BRANCH  17  18
ATOM     18  C   UNL     1       0.291   4.198   0.023  0.00  0.00    +0.173 A 
ATOM     19  N   UNL     1       1.357   3.423   0.008  0.00  0.00    -0.216 NA
ATOM     20  C   UNL     1       1.234   2.100   0.002  0.00  0.00    +0.117 A 
ATOM     21  C   UNL     1      -0.018   1.468   0.010  0.00  0.00    +0.076 A 
ATOM     22  C   UNL     1       0.002  -0.004   0.002  0.00  0.00    -0.023 A 
ATOM     23  C   UNL     1       1.208  -0.595  -0.015  0.00  0.00    -0.004 A 
ATOM     24  S   UNL     1       2.377   0.745  -0.018  0.00  0.00    -0.073 S 
ATOM     25  C   UNL     1       1.104  -2.097  -0.026  0.00  0.00    +0.043 C 
ATOM     26  C   UNL     1      -0.354  -2.382  -0.448  0.00  0.00    +0.010 C 
ATOM     27  C   UNL     1      -1.070  -1.097   0.013  0.00  0.00    +0.037 C 
ATOM     28  C   UNL     1      -1.158   2.332   0.020  0.00  0.00    +0.263 A 
ATOM     29  O   UNL     1      -2.285   1.869   0.023  0.00  0.00    -0.267 OA
ATOM     30  N   UNL     1      -0.965   3.664   0.031  0.00  0.00    -0.290 N 
ATOM     31  C   UNL     1      -2.126   4.559   0.047  0.00  0.00    +0.154 C 
ENDBRANCH  17  18
ENDBRANCH   2  17
TORSDOF 4
