REMARK  Name = ZINC12553910
REMARK  9 active torsions:
REMARK  status: ('A' for Active; 'I' for Inactive)
REMARK    1  A    between atoms: C_1  and  C_2
REMARK    2  A    between atoms: C_2  and  C_3
REMARK    3  A    between atoms: C_2  and  C_4
REMARK    4  A    between atoms: C_2  and  C_5
REMARK    5  A    between atoms: C_13  and  S_15
REMARK    6  A    between atoms: S_15  and  C_16
REMARK    7  A    between atoms: C_16  and  C_17
REMARK    8  A    between atoms: N_19  and  C_20
REMARK    9  A    between atoms: C_23  and  N_26
REMARK                            x       y       z     vdW  Elec       q    Type
REMARK                         _______ _______ _______ _____ _____    ______ ____
ROOT
ATOM      1  C   UNL     1      -0.314  -3.001   0.182  0.00  0.00    +0.172 C 
ENDROOT
BRANCH   1   2
ATOM      2  C   UNL     1      -0.359  -4.507   0.176  0.00  0.00    +0.227 C 
ATOM      3  O   UNL     1       0.659  -5.145   0.339  0.00  0.00    -0.275 OA
ATOM      4  N   UNL     1      -1.532  -5.145  -0.011  0.00  0.00    -0.285 N 
ATOM      5  H   UNL     1      -2.356  -4.638  -0.067  0.00  0.00    +0.155 HD
BRANCH   4   6
ATOM      6  C   UNL     1      -1.559  -6.542  -0.124  0.00  0.00    +0.034 A 
ATOM      7  C   UNL     1      -2.470  -7.151  -0.976  0.00  0.00    +0.025 A 
ATOM      8  C   UNL     1      -2.494  -8.527  -1.092  0.00  0.00    +0.025 A 
ATOM      9  C   UNL     1      -1.613  -9.302  -0.348  0.00  0.00    +0.030 A 
ATOM     10  C   UNL     1      -0.706  -8.692   0.509  0.00  0.00    +0.025 A 
ATOM     11  C   UNL     1      -0.679  -7.316   0.621  0.00  0.00    +0.025 A 
BRANCH   9  12
ATOM     12  N   UNL     1      -1.641 -10.696  -0.460  0.00  0.00    -0.330 N 
ATOM     13  C   UNL     1      -0.352 -11.213  -0.986  0.00  0.00    +0.105 C 
ATOM     14  C   UNL     1      -0.363 -12.700  -0.554  0.00  0.00    +0.020 C 
ATOM     15  C   UNL     1      -1.024 -12.649   0.843  0.00  0.00    +0.020 C 
ATOM     16  C   UNL     1      -1.820 -11.331   0.863  0.00  0.00    +0.105 C 
ENDBRANCH   9  12
ENDBRANCH   4   6
ENDBRANCH   1   2
BRANCH   1  17
ATOM     17  S   UNL     1       1.389  -2.450   0.454  0.00  0.00    -0.088 S 
BRANCH  17  26
ATOM     18  C   UNL     1      -0.802   3.587   0.101  0.00  0.00    +0.135 A 
ATOM     19  C   UNL     1      -1.015   2.205   0.072  0.00  0.00    +0.297 A 
ATOM     20  O   UNL     1      -2.138   1.755  -0.102  0.00  0.00    -0.264 OA
ATOM     21  N   UNL     1       0.050   1.365   0.237  0.00  0.00    -0.167 N 
ATOM     22  C   UNL     1       1.258   1.975   0.429  0.00  0.00    +0.220 A 
ATOM     23  N   UNL     1       1.408   3.276   0.453  0.00  0.00    -0.121 NA
ATOM     24  N   UNL     1       0.406   4.073   0.294  0.00  0.00    -0.146 NA
ATOM     25  S   UNL     1       2.365   0.596   0.607  0.00  0.00    -0.020 S 
ATOM     26  C   UNL     1       1.155  -0.704   0.415  0.00  0.00    +0.159 A 
ATOM     27  N   UNL     1       0.050  -0.025   0.238  0.00  0.00    -0.148 NA
BRANCH  18  29
ATOM     28  C   UNL     1      -1.470   5.973  -0.004  0.00  0.00    +0.017 C 
ATOM     29  C   UNL     1      -1.965   4.527  -0.084  0.00  0.00    +0.012 C 
ATOM     30  C   UNL     1      -2.607   4.282  -1.451  0.00  0.00    +0.017 C 
ATOM     31  C   UNL     1      -2.999   4.282   1.017  0.00  0.00    +0.017 C 
ENDBRANCH  18  29
ENDBRANCH  17  26
ENDBRANCH   1  17
TORSDOF 6
