REMARK  Name = ZINC47374415
REMARK  3 active torsions:
REMARK  status: ('A' for Active; 'I' for Inactive)
REMARK    1  A    between atoms: C_1  and  C_2
REMARK    2  A    between atoms: C_2  and  C_23
REMARK    3  A    between atoms: C_10  and  C_12
REMARK                            x       y       z     vdW  Elec       q    Type
REMARK                         _______ _______ _______ _____ _____    ______ ____
ROOT
ATOM      1  C   UNL     1      -0.019   1.526   0.010  0.00  0.00    +0.011 C 
ATOM      2  C   UNL     1       0.002  -0.004   0.002  0.00  0.00    -0.022 C 
ATOM      3  C   UNL     1       0.685  -0.490  -1.279  0.00  0.00    +0.063 C 
ATOM      4  C   UNL     1       2.128  -0.008  -1.259  0.00  0.00    +0.062 A 
ATOM      5  C   UNL     1       2.754   0.211  -0.025  0.00  0.00    +0.079 A 
ATOM      6  S   UNL     1       4.364   0.752  -0.510  0.00  0.00    -0.049 S 
ATOM      7  C   UNL     1       4.135   0.660  -2.178  0.00  0.00    +0.166 A 
ATOM      8  N   UNL     1       2.886   0.238  -2.299  0.00  0.00    -0.229 NA
ATOM      9  N   UNL     1       5.037   0.955  -3.181  0.00  0.00    -0.259 N 
ATOM     10  C   UNL     1       6.279   1.376  -2.869  0.00  0.00    +0.270 C 
ATOM     11  O   UNL     1       6.604   1.495  -1.704  0.00  0.00    -0.268 OA
ATOM     12  C   UNL     1       2.169   0.016   1.222  0.00  0.00    +0.172 C 
ATOM     13  O   UNL     1       2.773   0.252   2.249  0.00  0.00    -0.291 OA
ATOM     14  C   UNL     1       0.743  -0.503   1.243  0.00  0.00    +0.087 C 
ATOM     15  C   UNL     1      -1.436  -0.526   0.032  0.00  0.00    +0.011 C 
ATOM     16  H   UNL     1       4.777   0.860  -4.111  0.00  0.00    +0.157 HD
ENDROOT
BRANCH  10  17
ATOM     17  C   UNL     1       7.246   1.692  -3.943  0.00  0.00    +0.146 A 
ATOM     18  C   UNL     1       8.531   2.122  -3.613  0.00  0.00    +0.072 A 
ATOM     19  C   UNL     1       9.426   2.414  -4.633  0.00  0.00    +0.025 A 
ATOM     20  C   UNL     1       9.006   2.267  -5.944  0.00  0.00    +0.041 A 
ATOM     21  C   UNL     1       7.712   1.835  -6.200  0.00  0.00    +0.130 A 
ATOM     22  N   UNL     1       6.885   1.560  -5.215  0.00  0.00    -0.229 NA
ATOM     23 CL   UNL     1       7.181   1.649  -7.842  0.00  0.00    -0.062 Cl
ATOM     24 CL   UNL     1       9.004   2.288  -1.951  0.00  0.00    -0.081 Cl
ENDBRANCH  10  17
TORSDOF 1
