REMARK  Name = ZINC36504462
REMARK  9 active torsions:
REMARK  status: ('A' for Active; 'I' for Inactive)
REMARK    1  A    between atoms: C_4  and  C_7
REMARK    2  A    between atoms: N_9  and  C_10
REMARK    3  A    between atoms: C_10  and  C_11
REMARK    4  A    between atoms: N_13  and  C_14
REMARK    5  A    between atoms: N_13  and  C_20
REMARK    6  A    between atoms: C_14  and  C_15
REMARK    7  A    between atoms: C_20  and  C_22
REMARK    8  A    between atoms: C_20  and  C_31
REMARK    9  A    between atoms: N_33  and  C_34
REMARK                            x       y       z     vdW  Elec       q    Type
REMARK                         _______ _______ _______ _____ _____    ______ ____
ROOT
ATOM      1  C   UNL     1       3.947  -3.691  -0.004  0.00  0.00    +0.234 C 
ATOM      2  O   UNL     1       3.720  -3.611   1.185  0.00  0.00    -0.274 OA
ATOM      3  N   UNL     1       4.637  -4.742  -0.489  0.00  0.00    -0.277 N 
ENDROOT
BRANCH   1   4
ATOM      4  C   UNL     1       3.458  -2.615  -0.938  0.00  0.00    +0.200 C 
BRANCH   4   7
ATOM      5  C   UNL     1       2.213  -0.525  -0.804  0.00  0.00    +0.244 C 
ATOM      6  O   UNL     1       2.329  -0.412  -2.008  0.00  0.00    -0.270 OA
ATOM      7  N   UNL     1       2.742  -1.591  -0.172  0.00  0.00    -0.303 N 
ATOM      8  H   UNL     1       2.649  -1.681   0.789  0.00  0.00    +0.150 HD
BRANCH   5  12
ATOM      9  C   UNL     1       0.136   2.442   1.416  0.00  0.00    +0.000 A 
ATOM     10  C   UNL     1       0.267   2.574   0.045  0.00  0.00    +0.001 A 
ATOM     11  C   UNL     1       0.941   1.614  -0.682  0.00  0.00    +0.013 A 
ATOM     12  C   UNL     1       1.490   0.508  -0.031  0.00  0.00    +0.037 A 
ATOM     13  C   UNL     1       1.354   0.382   1.352  0.00  0.00    +0.013 A 
ATOM     14  C   UNL     1       0.679   1.349   2.067  0.00  0.00    +0.001 A 
ENDBRANCH   5  12
ENDBRANCH   4   7
ENDBRANCH   1   4
BRANCH   3  15
ATOM     15  C   UNL     1       4.912  -4.839  -1.924  0.00  0.00    +0.183 C 
BRANCH  15  16
ATOM     16  C   UNL     1       6.123  -4.008  -2.262  0.00  0.00    +0.122 A 
ATOM     17  C   UNL     1       7.280  -4.473  -2.766  0.00  0.00    +0.046 A 
ATOM     18  C   UNL     1       8.134  -3.357  -2.927  0.00  0.00    +0.041 A 
ATOM     19  C   UNL     1       7.448  -2.278  -2.511  0.00  0.00    +0.195 A 
ATOM     20  O   UNL     1       6.228  -2.677  -2.114  0.00  0.00    -0.466 OA
ENDBRANCH  15  16
ENDBRANCH   3  15
BRANCH   3  21
ATOM     21  C   UNL     1       5.113  -5.788   0.420  0.00  0.00    +0.193 C 
BRANCH  21  22
ATOM     22  C   UNL     1       6.194  -5.229   1.308  0.00  0.00    -0.015 A 
ATOM     23  C   UNL     1       7.223  -4.486   0.759  0.00  0.00    +0.010 A 
ATOM     24  C   UNL     1       8.216  -3.970   1.570  0.00  0.00    +0.050 A 
ATOM     25  C   UNL     1       8.184  -4.197   2.936  0.00  0.00    +0.166 A 
ATOM     26  C   UNL     1       7.147  -4.945   3.490  0.00  0.00    +0.167 A 
ATOM     27  C   UNL     1       6.152  -5.454   2.672  0.00  0.00    +0.055 A 
ATOM     28  O   UNL     1       7.340  -5.025   4.839  0.00  0.00    -0.453 OA
ATOM     29  C   UNL     1       8.718  -4.667   5.053  0.00  0.00    +0.466 C 
ATOM     30  O   UNL     1       9.025  -3.808   3.938  0.00  0.00    -0.453 OA
ENDBRANCH  21  22
BRANCH  21  31
ATOM     31  C   UNL     1       5.667  -6.937  -0.383  0.00  0.00    +0.238 C 
ATOM     32  O   UNL     1       6.455  -6.725  -1.280  0.00  0.00    -0.273 OA
ATOM     33  N   UNL     1       5.287  -8.200  -0.103  0.00  0.00    -0.311 N 
ATOM     34  H   UNL     1       4.657  -8.369   0.614  0.00  0.00    +0.149 HD
BRANCH  33  35
ATOM     35  C   UNL     1       5.825  -9.316  -0.884  0.00  0.00    +0.073 C 
ATOM     36  C   UNL     1       4.990  -9.501  -2.152  0.00  0.00    +0.022 C 
ATOM     37  C   UNL     1       5.553 -10.668  -2.968  0.00  0.00    +0.002 C 
ATOM     38  C   UNL     1       5.500 -11.947  -2.131  0.00  0.00    +0.000 C 
ATOM     39  C   UNL     1       6.335 -11.762  -0.862  0.00  0.00    +0.002 C 
ATOM     40  C   UNL     1       5.772 -10.596  -0.047  0.00  0.00    +0.022 C 
ENDBRANCH  33  35
ENDBRANCH  21  31
ENDBRANCH   3  21
TORSDOF 9
