REMARK  Name = ZINC40172999
REMARK  9 active torsions:
REMARK  status: ('A' for Active; 'I' for Inactive)
REMARK    1  A    between atoms: C_1  and  C_2
REMARK    2  A    between atoms: C_2  and  C_3
REMARK    3  A    between atoms: C_3  and  C_5
REMARK    4  A    between atoms: C_3  and  N_19
REMARK    5  A    between atoms: N_7  and  C_8
REMARK    6  A    between atoms: C_9  and  C_17
REMARK    7  A    between atoms: C_23  and  S_24
REMARK    8  A    between atoms: S_24  and  C_25
REMARK    9  A    between atoms: C_25  and  C_26
REMARK                            x       y       z     vdW  Elec       q    Type
REMARK                         _______ _______ _______ _____ _____    ______ ____
ROOT
ATOM      1  C   UNL     1       0.683  -0.621   1.226  0.00  0.00    +0.178 C 
ENDROOT
BRANCH   1   2
ATOM      2  N   UNL     1       0.833  -2.067   1.049  0.00  0.00    -0.279 N 
ATOM      3  C   UNL     1      -0.182  -2.963   0.866  0.00  0.00    +0.216 A 
ATOM      4  N   UNL     1       0.346  -4.156   0.746  0.00  0.00    -0.113 NA
ATOM      5  N   UNL     1       1.737  -4.026   0.855  0.00  0.00    -0.121 NA
ATOM      6  C   UNL     1       2.013  -2.757   1.032  0.00  0.00    +0.194 A 
ATOM      7  N   UNL     1      -1.537  -2.662   0.816  0.00  0.00    -0.328 N 
ATOM      8  H   UNL     1      -1.834  -1.744   0.915  0.00  0.00    +0.145 HD
ATOM      9  H   UNL     1      -2.187  -3.370   0.681  0.00  0.00    +0.145 HD
BRANCH   6  10
ATOM     10  S   UNL     1       3.621  -2.062   1.221  0.00  0.00    -0.081 S 
BRANCH  10  11
ATOM     11  C   UNL     1       4.732  -3.491   1.105  0.00  0.00    +0.112 C 
BRANCH  11  12
ATOM     12  C   UNL     1       6.160  -3.031   1.251  0.00  0.00    -0.037 A 
ATOM     13  C   UNL     1       6.885  -2.662   0.134  0.00  0.00    +0.004 A 
ATOM     14  C   UNL     1       8.195  -2.239   0.269  0.00  0.00    +0.000 A 
ATOM     15  C   UNL     1       8.778  -2.186   1.521  0.00  0.00    +0.000 A 
ATOM     16  C   UNL     1       8.053  -2.554   2.638  0.00  0.00    +0.000 A 
ATOM     17  C   UNL     1       6.742  -2.973   2.504  0.00  0.00    +0.004 A 
ENDBRANCH  11  12
ENDBRANCH  10  11
ENDBRANCH   6  10
ENDBRANCH   1   2
BRANCH   1  18
ATOM     18  C   UNL     1      -0.148  -0.348   2.453  0.00  0.00    +0.241 C 
ATOM     19  O   UNL     1      -0.513  -1.267   3.155  0.00  0.00    -0.273 OA
ATOM     20  N   UNL     1      -0.486   0.917   2.771  0.00  0.00    -0.277 N 
ATOM     21  H   UNL     1      -0.135   1.658   2.251  0.00  0.00    +0.155 HD
BRANCH  20  22
ATOM     22  C   UNL     1      -1.336   1.161   3.840  0.00  0.00    +0.090 A 
ATOM     23  C   UNL     1      -1.792   2.384   4.304  0.00  0.00    +0.084 A 
ATOM     24  C   UNL     1      -2.683   2.370   5.451  0.00  0.00    -0.018 A 
ATOM     25  C   UNL     1      -2.954   1.134   5.924  0.00  0.00    -0.004 A 
ATOM     26  S   UNL     1      -2.054   0.041   4.865  0.00  0.00    -0.077 S 
ATOM     27  C   UNL     1      -3.830   0.789   7.089  0.00  0.00    +0.043 C 
ATOM     28  C   UNL     1      -4.078   2.068   7.901  0.00  0.00    +0.005 C 
ATOM     29  C   UNL     1      -4.483   3.193   6.944  0.00  0.00    +0.005 C 
ATOM     30  C   UNL     1      -3.282   3.612   6.094  0.00  0.00    +0.037 C 
BRANCH  23  31
ATOM     31  C   UNL     1      -1.401   3.612   3.679  0.00  0.00    +0.102 C 
ATOM     32  N   UNL     1      -1.091   4.585   3.183  0.00  0.00    -0.191 NA
ENDBRANCH  23  31
ENDBRANCH  20  22
ENDBRANCH   1  18
BRANCH   1  34
ATOM     33  C   UNL     1       0.898  -0.179  -1.224  0.00  0.00    +0.006 C 
ATOM     34  C   UNL     1      -0.009  -0.026  -0.002  0.00  0.00    +0.031 C 
ENDBRANCH   1  34
TORSDOF 8
