REMARK  Name = ZINC67027817
REMARK  9 active torsions:
REMARK  status: ('A' for Active; 'I' for Inactive)
REMARK    1  A    between atoms: C_1  and  C_2
REMARK    2  A    between atoms: C_3  and  C_19
REMARK    3  A    between atoms: C_4  and  C_11
REMARK    4  A    between atoms: N_9  and  C_10
REMARK    5  A    between atoms: C_14  and  C_16
REMARK    6  A    between atoms: C_16  and  C_17
REMARK    7  A    between atoms: C_16  and  C_18
REMARK    8  A    between atoms: C_19  and  O_21
REMARK    9  A    between atoms: O_21  and  C_22
REMARK                            x       y       z     vdW  Elec       q    Type
REMARK                         _______ _______ _______ _____ _____    ______ ____
ROOT
ATOM      1  C   UNL     1       0.047   1.467   0.454  0.00  0.00    +0.061 C 
ATOM      2  C   UNL     1       0.034  -0.022   0.218  0.00  0.00    +0.024 C 
ATOM      3  C   UNL     1      -1.127  -0.702   0.334  0.00  0.00    +0.080 C 
ATOM      4  C   UNL     1      -1.095  -2.197   0.088  0.00  0.00    +0.162 C 
ATOM      5  N   UNL     1       0.208  -2.789  -0.260  0.00  0.00    -0.286 N 
ATOM      6  C   UNL     1       1.280  -1.977  -0.339  0.00  0.00    +0.307 C 
ATOM      7  O   UNL     1       2.360  -2.455  -0.626  0.00  0.00    -0.252 OA
ATOM      8  N   UNL     1       1.194  -0.659  -0.117  0.00  0.00    -0.262 N 
ATOM      9  C   UNL     1       2.415   0.143  -0.232  0.00  0.00    +0.139 C 
ATOM     10  H   UNL     1       0.292  -3.740  -0.429  0.00  0.00    +0.151 HD
ENDROOT
BRANCH   4  11
ATOM     11  C   UNL     1      -2.058  -2.505  -1.029  0.00  0.00    +0.074 A 
ATOM     12  C   UNL     1      -1.686  -2.413  -2.332  0.00  0.00    +0.072 A 
ATOM     13  S   UNL     1      -3.206  -2.884  -3.142  0.00  0.00    -0.080 S 
ATOM     14  C   UNL     1      -4.133  -3.142  -1.761  0.00  0.00    +0.081 A 
ATOM     15  N   UNL     1      -3.298  -2.880  -0.787  0.00  0.00    -0.246 NA
BRANCH  14  16
ATOM     16  C   UNL     1      -5.574  -3.575  -1.668  0.00  0.00    +0.038 C 
ATOM     17  C   UNL     1      -6.462  -2.550  -2.375  0.00  0.00    +0.014 C 
ATOM     18  C   UNL     1      -5.740  -4.941  -2.337  0.00  0.00    +0.014 C 
ENDBRANCH  14  16
ENDBRANCH   4  11
BRANCH   3  19
ATOM     19  C   UNL     1      -2.330  -0.043   0.675  0.00  0.00    +0.339 C 
ATOM     20  O   UNL     1      -2.332   1.159   0.869  0.00  0.00    -0.245 OA
BRANCH  19  21
ATOM     21  O   UNL     1      -3.477  -0.745   0.786  0.00  0.00    -0.465 OA
ATOM     22  C   UNL     1      -4.655  -0.015   1.133  0.00  0.00    +0.280 C 
ENDBRANCH  19  21
ENDBRANCH   3  19
TORSDOF 4
