REMARK  Name = ZINC35636557
REMARK  11 active torsions:
REMARK  status: ('A' for Active; 'I' for Inactive)
REMARK    1  A    between atoms: C_1  and  C_2
REMARK    2  A    between atoms: C_2  and  C_3
REMARK    3  A    between atoms: C_2  and  C_4
REMARK    4  A    between atoms: C_4  and  N_5
REMARK    5  A    between atoms: C_6  and  C_8
REMARK    6  A    between atoms: C_8  and  C_10
REMARK    7  A    between atoms: C_8  and  N_17
REMARK    8  A    between atoms: C_10  and  C_11
REMARK    9  A    between atoms: C_23  and  C_30
REMARK   10  A    between atoms: N_28  and  C_29
REMARK   11  A    between atoms: C_35  and  C_36
REMARK                            x       y       z     vdW  Elec       q    Type
REMARK                         _______ _______ _______ _____ _____    ______ ____
ROOT
ATOM      1  N   UNL     1      -4.070  -4.404  -0.203  0.00  0.00    -0.280 N 
ATOM      2  C   UNL     1      -4.643  -5.219  -1.285  0.00  0.00    +0.160 C 
ATOM      3  C   UNL     1      -6.015  -5.615  -0.790  0.00  0.00    +0.042 C 
ATOM      4  C   UNL     1      -6.151  -5.062   0.433  0.00  0.00    +0.058 C 
ATOM      5  C   UNL     1      -4.987  -4.346   0.779  0.00  0.00    +0.247 C 
ATOM      6  O   UNL     1      -4.833  -3.750   1.830  0.00  0.00    -0.270 OA
ATOM      7  C   UNL     1      -7.452  -5.300   1.173  0.00  0.00    +0.142 C 
ATOM      8  N   UNL     1      -8.466  -6.121   0.491  0.00  0.00    -0.288 N 
ATOM      9  C   UNL     1      -8.183  -6.606  -0.734  0.00  0.00    +0.307 C 
ATOM     10  O   UNL     1      -9.014  -7.285  -1.306  0.00  0.00    -0.252 OA
ATOM     11  N   UNL     1      -7.014  -6.364  -1.343  0.00  0.00    -0.260 N 
ATOM     12  C   UNL     1      -6.797  -6.933  -2.675  0.00  0.00    +0.139 C 
ATOM     13  H   UNL     1      -9.319  -6.309   0.914  0.00  0.00    +0.151 HD
ENDROOT
BRANCH   7  14
ATOM     14  C   UNL     1      -7.125  -5.963   2.486  0.00  0.00    -0.011 A 
ATOM     15  C   UNL     1      -6.685  -7.274   2.508  0.00  0.00    +0.006 A 
ATOM     16  C   UNL     1      -6.385  -7.882   3.712  0.00  0.00    +0.000 A 
ATOM     17  C   UNL     1      -6.524  -7.179   4.895  0.00  0.00    +0.001 A 
ATOM     18  C   UNL     1      -6.962  -5.869   4.873  0.00  0.00    +0.013 A 
ATOM     19  C   UNL     1      -7.258  -5.259   3.668  0.00  0.00    +0.060 A 
BRANCH  19  20
ATOM     20  C   UNL     1      -7.731  -3.829   3.643  0.00  0.00    +0.418 C 
ATOM     21  F   UNL     1      -7.723  -3.312   4.944  0.00  0.00    -0.166 F 
ATOM     22  F   UNL     1      -6.878  -3.069   2.835  0.00  0.00    -0.166 F 
ATOM     23  F   UNL     1      -9.031  -3.776   3.129  0.00  0.00    -0.166 F 
ENDBRANCH  19  20
ENDBRANCH   7  14
BRANCH   1  24
ATOM     24  C   UNL     1      -2.746  -3.778  -0.195  0.00  0.00    +0.167 C 
BRANCH  24  26
ATOM     25  N   UNL     1      -1.805  -1.497  -0.018  0.00  0.00    -0.314 N 
ATOM     26  C   UNL     1      -2.897  -2.285  -0.050  0.00  0.00    +0.234 C 
ATOM     27  O   UNL     1      -4.003  -1.794   0.037  0.00  0.00    -0.274 OA
ATOM     28  H   UNL     1      -0.921  -1.890  -0.087  0.00  0.00    +0.149 HD
BRANCH  25  29
ATOM     29  C   UNL     1      -1.952  -0.046   0.123  0.00  0.00    +0.107 C 
BRANCH  29  31
ATOM     30  C   UNL     1      -0.725   2.130   0.154  0.00  0.00    +0.009 C 
ATOM     31  C   UNL     1      -0.569   0.608   0.132  0.00  0.00    -0.000 C 
ATOM     32  C   UNL     1       0.201   0.157   1.375  0.00  0.00    +0.009 C 
ENDBRANCH  29  31
ENDBRANCH  25  29
ENDBRANCH  24  26
BRANCH  24  33
ATOM     33  C   UNL     1      -1.931  -4.324   0.979  0.00  0.00    +0.067 C 
BRANCH  33  34
ATOM     34  C   UNL     1      -1.675  -5.794   0.772  0.00  0.00    -0.045 A 
ATOM     35  C   UNL     1      -2.574  -6.727   1.255  0.00  0.00    +0.004 A 
ATOM     36  C   UNL     1      -2.339  -8.076   1.065  0.00  0.00    +0.000 A 
ATOM     37  C   UNL     1      -1.205  -8.492   0.391  0.00  0.00    +0.000 A 
ATOM     38  C   UNL     1      -0.307  -7.559  -0.092  0.00  0.00    +0.000 A 
ATOM     39  C   UNL     1      -0.544  -6.210   0.094  0.00  0.00    +0.004 A 
ENDBRANCH  33  34
ENDBRANCH  24  33
ENDBRANCH   1  24
TORSDOF 8
