REMARK  Name = ZINC03358729
REMARK  10 active torsions:
REMARK  status: ('A' for Active; 'I' for Inactive)
REMARK    1  A    between atoms: C_4  and  C_7
REMARK    2  A    between atoms: C_8  and  C_38
REMARK    3  A    between atoms: C_9  and  N_18
REMARK    4  A    between atoms: C_11  and  C_12
REMARK    5  A    between atoms: C_19  and  C_21
REMARK    6  A    between atoms: C_21  and  O_22
REMARK    7  A    between atoms: O_22  and  C_23
REMARK    8  A    between atoms: C_23  and  C_25
REMARK    9  A    between atoms: C_25  and  C_36
REMARK   10  A    between atoms: C_26  and  C_27
REMARK                            x       y       z     vdW  Elec       q    Type
REMARK                         _______ _______ _______ _____ _____    ______ ____
ROOT
ATOM      1  N   UNL     1      -0.383   1.681   1.263  0.00  0.00    -0.252 N 
ATOM      2  C   UNL     1       0.883   1.246   1.109  0.00  0.00    +0.257 C 
ATOM      3  O   UNL     1       1.758   2.026   0.798  0.00  0.00    -0.272 OA
ATOM      4  H   UNL     1      -1.084   1.057   1.507  0.00  0.00    +0.158 HD
ENDROOT
BRANCH   1   7
ATOM      5  C   UNL     1      -1.749   5.023   0.900  0.00  0.00    +0.047 A 
ATOM      6  C   UNL     1      -1.938   3.591   1.198  0.00  0.00    +0.121 A 
ATOM      7  C   UNL     1      -0.683   3.017   1.072  0.00  0.00    +0.211 A 
ATOM      8  O   UNL     1       0.192   3.976   0.739  0.00  0.00    -0.439 OA
ATOM      9  C   UNL     1      -0.417   5.172   0.626  0.00  0.00    +0.146 A 
BRANCH   5  13
ATOM     10  C   UNL     1      -4.725   8.056   0.891  0.00  0.00    +0.000 A 
ATOM     11  C   UNL     1      -4.411   7.403   2.069  0.00  0.00    +0.001 A 
ATOM     12  C   UNL     1      -3.446   6.417   2.079  0.00  0.00    +0.008 A 
ATOM     13  C   UNL     1      -2.786   6.080   0.897  0.00  0.00    -0.013 A 
ATOM     14  C   UNL     1      -3.103   6.746  -0.287  0.00  0.00    +0.008 A 
ATOM     15  C   UNL     1      -4.074   7.726  -0.284  0.00  0.00    +0.001 A 
ENDBRANCH   5  13
BRANCH   9  16
ATOM     16  C   UNL     1       0.247   6.440   0.270  0.00  0.00    +0.018 A 
ATOM     17  C   UNL     1       1.081   6.505  -0.849  0.00  0.00    +0.011 A 
ATOM     18  C   UNL     1       1.694   7.696  -1.179  0.00  0.00    +0.001 A 
ATOM     19  C   UNL     1       1.494   8.821  -0.398  0.00  0.00    +0.000 A 
ATOM     20  C   UNL     1       0.674   8.762   0.715  0.00  0.00    +0.001 A 
ATOM     21  C   UNL     1       0.050   7.580   1.054  0.00  0.00    +0.011 A 
ENDBRANCH   9  16
BRANCH   6  22
ATOM     22  C   UNL     1      -3.162   2.932   1.546  0.00  0.00    +0.105 C 
ATOM     23  N   UNL     1      -4.132   2.409   1.821  0.00  0.00    -0.191 NA
ENDBRANCH   6  22
ENDBRANCH   1   7
BRANCH   2  24
ATOM     24  C   UNL     1       1.210  -0.210   1.317  0.00  0.00    +0.328 C 
BRANCH  24  25
ATOM     25  O   UNL     1       2.627  -0.425   1.087  0.00  0.00    -0.451 OA
BRANCH  25  26
ATOM     26  C   UNL     1       3.087  -1.685   1.234  0.00  0.00    +0.350 C 
ATOM     27  O   UNL     1       2.323  -2.578   1.545  0.00  0.00    -0.244 OA
BRANCH  26  28
ATOM     28  C   UNL     1       4.511  -1.977   1.018  0.00  0.00    +0.136 C 
ATOM     29  C   UNL     1       4.981  -3.265   1.167  0.00  0.00    +0.034 C 
BRANCH  29  30
ATOM     30  C   UNL     1       6.419  -3.530   1.114  0.00  0.00    -0.020 A 
ATOM     31  C   UNL     1       6.894  -4.730   0.565  0.00  0.00    +0.012 A 
ATOM     32  C   UNL     1       8.248  -4.973   0.513  0.00  0.00    +0.050 A 
ATOM     33  C   UNL     1       9.148  -4.038   1.012  0.00  0.00    +0.166 A 
ATOM     34  C   UNL     1       8.682  -2.843   1.565  0.00  0.00    +0.167 A 
ATOM     35  C   UNL     1       7.328  -2.587   1.617  0.00  0.00    +0.057 A 
ATOM     36  O   UNL     1       9.757  -2.107   1.977  0.00  0.00    -0.453 OA
ATOM     37  C   UNL     1      10.893  -2.677   1.301  0.00  0.00    +0.466 C 
ATOM     38  O   UNL     1      10.509  -4.047   1.079  0.00  0.00    -0.453 OA
ENDBRANCH  29  30
BRANCH  28  39
ATOM     39  C   UNL     1       5.410  -0.925   0.652  0.00  0.00    +0.106 C 
ATOM     40  N   UNL     1       6.124  -0.090   0.361  0.00  0.00    -0.191 NA
ENDBRANCH  28  39
ENDBRANCH  26  28
ENDBRANCH  25  26
ENDBRANCH  24  25
ENDBRANCH   2  24
TORSDOF 10
