REMARK  Name = ZINC59809324
REMARK  7 active torsions:
REMARK  status: ('A' for Active; 'I' for Inactive)
REMARK    1  A    between atoms: C_1  and  C_2
REMARK    2  A    between atoms: N_5  and  S_8
REMARK    3  A    between atoms: S_8  and  C_11
REMARK    4  A    between atoms: C_14  and  C_17
REMARK    5  A    between atoms: N_19  and  C_20
REMARK    6  A    between atoms: C_22  and  N_27
REMARK    7  A    between atoms: C_28  and  C_30
REMARK                            x       y       z     vdW  Elec       q    Type
REMARK                         _______ _______ _______ _____ _____    ______ ____
ROOT
ATOM      1  C   UNL     1      -0.679  -5.223   1.468  0.00  0.00    +0.106 A 
ATOM      2  C   UNL     1      -1.574  -5.836   0.610  0.00  0.00    +0.029 A 
ATOM      3  C   UNL     1      -1.306  -7.095   0.113  0.00  0.00    +0.015 A 
ATOM      4  C   UNL     1      -0.130  -7.751   0.479  0.00  0.00    +0.037 A 
ATOM      5  C   UNL     1       0.769  -7.127   1.346  0.00  0.00    +0.015 A 
ATOM      6  C   UNL     1       0.492  -5.865   1.831  0.00  0.00    +0.029 A 
ENDROOT
BRANCH   4   7
ATOM      7  C   UNL     1       0.163  -9.100  -0.048  0.00  0.00    +0.248 C 
ATOM      8  O   UNL     1      -0.622  -9.641  -0.803  0.00  0.00    -0.270 OA
ATOM      9  N   UNL     1       1.300  -9.731   0.307  0.00  0.00    -0.280 N 
ATOM     10  H   UNL     1       1.958  -9.273   0.854  0.00  0.00    +0.155 HD
BRANCH   9  11
ATOM     11  C   UNL     1       1.532 -11.045  -0.113  0.00  0.00    +0.054 A 
ATOM     12  C   UNL     1       1.088 -11.464  -1.359  0.00  0.00    +0.048 A 
ATOM     13  C   UNL     1       1.320 -12.768  -1.772  0.00  0.00    +0.035 A 
ATOM     14  C   UNL     1       1.995 -13.650  -0.938  0.00  0.00    +0.025 A 
ATOM     15  C   UNL     1       2.437 -13.230   0.302  0.00  0.00    +0.023 A 
ATOM     16  C   UNL     1       2.213 -11.930   0.715  0.00  0.00    +0.062 A 
ATOM     17 CL   UNL     1       2.776 -11.404   2.271  0.00  0.00    -0.082 Cl
BRANCH  13  18
ATOM     18  N   UNL     1       0.873 -13.195  -3.027  0.00  0.00    -0.286 N 
ATOM     19  C   UNL     1       1.498 -14.210  -3.656  0.00  0.00    +0.214 C 
ATOM     20  O   UNL     1       2.511 -14.683  -3.186  0.00  0.00    -0.276 OA
ATOM     21  C   UNL     1       0.939 -14.757  -4.945  0.00  0.00    +0.109 C 
ATOM     22  H   UNL     1       0.112 -12.761  -3.445  0.00  0.00    +0.155 HD
ENDBRANCH  13  18
ENDBRANCH   9  11
ENDBRANCH   4   7
BRANCH   1  23
ATOM     23  S   UNL     1      -1.028  -3.615   2.098  0.00  0.00    +0.061 S 
ATOM     24  O   UNL     1      -0.292  -3.483   3.306  0.00  0.00    -0.153 OA
ATOM     25  O   UNL     1      -2.439  -3.455   2.044  0.00  0.00    -0.153 OA
BRANCH  23  30
ATOM     26  C   UNL     1       0.293   1.541  -0.036  0.00  0.00    +0.007 C 
ATOM     27  C   UNL     1       0.275   0.011  -0.040  0.00  0.00    -0.012 C 
ATOM     28  C   UNL     1      -1.173  -0.482  -0.053  0.00  0.00    +0.020 C 
ATOM     29  C   UNL     1      -1.187  -2.014  -0.091  0.00  0.00    +0.110 C 
ATOM     30  N   UNL     1      -0.387  -2.522   1.032  0.00  0.00    -0.177 NA
ATOM     31  C   UNL     1       0.993  -2.042   1.191  0.00  0.00    +0.110 C 
ATOM     32  C   UNL     1       0.982  -0.510   1.214  0.00  0.00    +0.020 C 
ENDBRANCH  23  30
ENDBRANCH   1  23
TORSDOF 5
