REMARK  Name = ZINC04264725
REMARK  10 active torsions:
REMARK  status: ('A' for Active; 'I' for Inactive)
REMARK    1  A    between atoms: CG1_1  and  CB_2
REMARK    2  A    between atoms: CB_2  and  CG2_3
REMARK    3  A    between atoms: CB_2  and  CA_4
REMARK    4  A    between atoms: CA_4  and  C_6
REMARK    5  A    between atoms: CA_4  and  N_8
REMARK    6  A    between atoms: C_9  and  C_11
REMARK    7  A    between atoms: C_23  and  C_25
REMARK    8  A    between atoms: C_23  and  C_26
REMARK    9  A    between atoms: C_28  and  C_30
REMARK   10  A    between atoms: C_28  and  C_31
REMARK                            x       y       z     vdW  Elec       q    Type
REMARK                         _______ _______ _______ _____ _____    ______ ____
ROOT
ATOM      1  C   UNK A   0       4.758   4.072   1.141  0.00  0.00    +0.238 C 
ATOM      2  C   UNK A   0       4.855   5.457   0.547  0.00  0.00    +0.191 C 
ATOM      3  C   UNK A   0       4.024   6.448   1.421  0.00  0.00    +0.187 C 
ATOM      4  C   UNK A   0       4.741   6.486   2.742  0.00  0.00    +0.209 C 
ATOM      5  C   UNK A   0       4.587   5.042   3.311  0.00  0.00    +0.286 C 
ATOM      6  O   UNK A   0       5.264   4.120   2.499  0.00  0.00    -0.333 OA
ATOM      7  O   UNK A   0       4.955   5.210   4.668  0.00  0.00    -0.318 OA
ATOM      8  C   UNK A   0       4.617   6.577   4.998  0.00  0.00    +0.168 C 
ATOM      9  O   UNK A   0       4.132   7.232   3.799  0.00  0.00    -0.338 OA
ATOM     10  C   UNK A   0       5.858   7.304   5.517  0.00  0.00    +0.074 C 
ATOM     11  C   UNK A   0       3.525   6.591   6.070  0.00  0.00    +0.074 C 
ATOM     12  O   UNK A   0       4.025   7.609   0.604  0.00  0.00    -0.341 OA
ATOM     13  C   UNK A   0       4.104   7.130  -0.759  0.00  0.00    +0.166 C 
ATOM     14  O   UNK A   0       4.269   5.688  -0.731  0.00  0.00    -0.340 OA
ATOM     15  C   UNK A   0       5.302   7.772  -1.462  0.00  0.00    +0.074 C 
ATOM     16  C   UNK A   0       2.817   7.487  -1.505  0.00  0.00    +0.074 C 
ENDROOT
BRANCH   1  18
ATOM     17  N   VAL A   1       2.640   3.508  -0.006  0.00  0.00    -0.300 N 
ATOM     18  C   UNK A   0       3.319   3.625   1.153  0.00  0.00    +0.245 C 
ATOM     19  O   UNK A   0       2.771   3.371   2.204  0.00  0.00    -0.273 OA
ATOM     20  H   VAL A   1       3.079   3.712  -0.847  0.00  0.00    +0.150 HD
BRANCH  17  21
ATOM     21  CA  VAL A   1       1.241   3.074   0.005  0.00  0.00    +0.189 C 
BRANCH  21  23
ATOM     22  CG1 VAL A   1       1.151   2.946  -2.489  0.00  0.00    +0.009 C 
ATOM     23  CB  VAL A   1       0.535   3.596  -1.248  0.00  0.00    +0.014 C 
ATOM     24  CG2 VAL A   1      -0.953   3.249  -1.176  0.00  0.00    +0.009 C 
ENDBRANCH  21  23
BRANCH  21  25
ATOM     25  C   VAL A   1       1.183   1.568   0.024  0.00  0.00    +0.376 C 
ATOM     26  O   VAL A   1       2.205   0.924   0.028  0.00  0.00    -0.244 OA
ATOM     27  OXT VAL A   1      -0.004   0.942   0.036  0.00  0.00    -0.244 OA
ENDBRANCH  21  25
ENDBRANCH  17  21
ENDBRANCH   1  18
TORSDOF 4
