REMARK  Name = ZINC02387962
REMARK  4 active torsions:
REMARK  status: ('A' for Active; 'I' for Inactive)
REMARK    1  A    between atoms: N_10  and  C_11
REMARK    2  A    between atoms: C_11  and  C_12
REMARK    3  A    between atoms: C_13  and  C_23
REMARK    4  A    between atoms: N_25  and  N_26
REMARK                            x       y       z     vdW  Elec       q    Type
REMARK                         _______ _______ _______ _____ _____    ______ ____
ROOT
ATOM      1  C   UNL     1       5.479   0.497   0.954  0.00  0.00    +0.096 A 
ATOM      2  C   UNL     1       5.225   1.640   1.659  0.00  0.00    +0.174 A 
ATOM      3  N   UNL     1       5.948   1.611   2.792  0.00  0.00    -0.124 NA
ATOM      4  N   UNL     1       6.636   0.523   2.838  0.00  0.00    -0.058 NA
ATOM      5  N   UNL     1       6.361  -0.223   1.683  0.00  0.00    -0.190 N 
ATOM      6  C   UNL     1       6.899  -1.470   1.348  0.00  0.00    +0.240 A 
ATOM      7  C   UNL     1       7.851  -2.239   2.155  0.00  0.00    +0.206 A 
ATOM      8  N   UNL     1       8.124  -3.347   1.523  0.00  0.00    -0.032 NA
ATOM      9  O   UNL     1       7.386  -3.350   0.314  0.00  0.00    -0.239 OA
ATOM     10  N   UNL     1       6.635  -2.150   0.268  0.00  0.00    -0.027 NA
ATOM     11  N   UNL     1       8.374  -1.853   3.384  0.00  0.00    -0.337 N 
ATOM     12  H   UNL     1       8.112  -1.006   3.778  0.00  0.00    +0.144 HD
ATOM     13  H   UNL     1       9.001  -2.430   3.847  0.00  0.00    +0.144 HD
ENDROOT
BRANCH   2  14
ATOM     14  C   UNL     1       4.313   2.722   1.246  0.00  0.00    +0.285 C 
ATOM     15  O   UNL     1       3.633   2.595   0.246  0.00  0.00    -0.267 OA
ATOM     16  N   UNL     1       4.233   3.851   1.976  0.00  0.00    -0.201 N 
ATOM     17  H   UNL     1       4.776   3.953   2.774  0.00  0.00    +0.178 HD
BRANCH  16  18
ATOM     18  N   UNL     1       3.367   4.880   1.584  0.00  0.00    -0.174 NA
ATOM     19  C   UNL     1       3.233   5.947   2.334  0.00  0.00    +0.153 C 
ATOM     20  C   UNL     1       4.024   6.311   3.533  0.00  0.00    +0.030 A 
ATOM     21  C   UNL     1       5.076   5.697   4.202  0.00  0.00    +0.032 A 
ATOM     22  C   UNL     1       5.620   6.297   5.322  0.00  0.00    +0.042 A 
ATOM     23  C   UNL     1       5.117   7.506   5.774  0.00  0.00    +0.022 A 
ATOM     24  C   UNL     1       4.072   8.123   5.116  0.00  0.00    +0.025 A 
ATOM     25  C   UNL     1       3.513   7.534   3.987  0.00  0.00    +0.043 A 
ATOM     26  N   UNL     1       2.473   7.936   3.154  0.00  0.00    -0.280 N 
ATOM     27  C   UNL     1       2.267   7.050   2.165  0.00  0.00    +0.269 C 
ATOM     28  O   UNL     1       1.429   7.140   1.287  0.00  0.00    -0.268 OA
ATOM     29 CL   UNL     1       6.934   5.535   6.163  0.00  0.00    -0.084 Cl
ATOM     30  H   UNL     1       1.964   8.753   3.271  0.00  0.00    +0.155 HD
ENDBRANCH  16  18
ENDBRANCH   2  14
BRANCH   1  31
ATOM     31  C   UNL     1       4.886   0.110  -0.376  0.00  0.00    +0.163 C 
BRANCH  31  41
ATOM     32  C   UNL     1       4.097   3.925  -3.600  0.00  0.00    +0.000 A 
ATOM     33  C   UNL     1       3.277   3.166  -2.785  0.00  0.00    +0.002 A 
ATOM     34  C   UNL     1       3.802   2.104  -2.077  0.00  0.00    +0.023 A 
ATOM     35  C   UNL     1       5.154   1.797  -2.184  0.00  0.00    +0.033 A 
ATOM     36  C   UNL     1       5.975   2.556  -3.004  0.00  0.00    -0.026 A 
ATOM     37  C   UNL     1       5.440   3.622  -3.709  0.00  0.00    +0.005 A 
ATOM     38  C   UNL     1       7.441   2.247  -3.153  0.00  0.00    +0.038 C 
ATOM     39  C   UNL     1       7.936   1.414  -1.970  0.00  0.00    +0.024 C 
ATOM     40  C   UNL     1       7.005   0.208  -1.788  0.00  0.00    +0.106 C 
ATOM     41  N   UNL     1       5.668   0.719  -1.455  0.00  0.00    -0.324 N 
ENDBRANCH  31  41
ENDBRANCH   1  31
TORSDOF 4
