REMARK  Name = ZINC09909735
REMARK  9 active torsions:
REMARK  status: ('A' for Active; 'I' for Inactive)
REMARK    1  A    between atoms: C_1  and  C_2
REMARK    2  A    between atoms: C_10  and  C_12
REMARK    3  A    between atoms: C_12  and  N_46
REMARK    4  A    between atoms: C_13  and  N_46
REMARK    5  A    between atoms: C_14  and  C_16
REMARK    6  A    between atoms: C_14  and  C_17
REMARK    7  A    between atoms: C_14  and  N_46
REMARK    8  A    between atoms: C_20  and  S_23
REMARK    9  A    between atoms: S_23  and  N_26
REMARK                            x       y       z     vdW  Elec       q    Type
REMARK                         _______ _______ _______ _____ _____    ______ ____
ROOT
ATOM      1  C   UNL     1      -1.781   5.018   5.409  0.00  0.00    -0.095 C 
ATOM      2  N   UNL     1      -2.199   3.681   5.879  0.00  0.00    +0.386 N 
ATOM      3  H   UNL     1      -1.366   3.089   5.984  0.00  0.00    -0.081 HD
ENDROOT
BRANCH   2   4
ATOM      4  C   UNL     1      -3.107   3.059   4.892  0.00  0.00    -0.041 C 
ATOM      5  C   UNL     1      -4.234   4.024   4.519  0.00  0.00    -0.008 C 
BRANCH   4   6
ATOM      6  C   UNL     1      -2.316   2.709   3.658  0.00  0.00    -0.061 A 
ATOM      7  C   UNL     1      -2.932   2.705   2.421  0.00  0.00    +0.004 A 
ATOM      8  C   UNL     1      -2.207   2.384   1.288  0.00  0.00    +0.029 A 
ATOM      9  C   UNL     1      -0.866   2.066   1.394  0.00  0.00    +0.105 A 
ATOM     10  C   UNL     1      -0.251   2.064   2.632  0.00  0.00    +0.029 A 
ATOM     11  C   UNL     1      -0.975   2.391   3.764  0.00  0.00    +0.004 A 
BRANCH   9  12
ATOM     12  S   UNL     1       0.058   1.656  -0.049  0.00  0.00    +0.056 S 
ATOM     13  O   UNL     1      -0.878   1.194  -1.013  0.00  0.00    -0.153 OA
ATOM     14  O   UNL     1       1.158   0.867   0.384  0.00  0.00    -0.153 OA
BRANCH  12  15
ATOM     15  N   UNL     1       0.692   3.066  -0.642  0.00  0.00    -0.204 NA
ATOM     16  H   UNL     1       0.516   3.905  -0.189  0.00  0.00    +0.144 HD
ATOM     17  H   UNL     1       1.239   3.053  -1.443  0.00  0.00    +0.144 HD
ENDBRANCH  12  15
ENDBRANCH   9  12
ENDBRANCH   4   6
ENDBRANCH   2   4
BRANCH   2  18
ATOM     18  C   UNL     1      -2.876   3.794   7.188  0.00  0.00    -0.022 C 
BRANCH  18  28
ATOM     19  C   UNL     1       1.007   6.498  11.809  0.00  0.00    +0.064 C 
ATOM     20  C   UNL     1       0.999   5.212  11.024  0.00  0.00    +0.033 A 
ATOM     21  C   UNL     1       1.965   4.316  11.224  0.00  0.00    +0.070 A 
ATOM     22  S   UNL     1       1.504   3.020  10.085  0.00  0.00    -0.057 S 
ATOM     23  C   UNL     1       0.041   3.796   9.431  0.00  0.00    +0.180 A 
ATOM     24  N   UNL     1      -0.005   4.982  10.114  0.00  0.00    -0.259 N 
ATOM     25  C   UNL     1      -1.046   5.815   9.817  0.00  0.00    +0.259 A 
ATOM     26  O   UNL     1      -1.151   6.890  10.387  0.00  0.00    -0.267 OA
ATOM     27  C   UNL     1      -1.990   5.437   8.862  0.00  0.00    +0.092 A 
ATOM     28  C   UNL     1      -1.867   4.222   8.222  0.00  0.00    +0.033 A 
ATOM     29  N   UNL     1      -0.844   3.432   8.537  0.00  0.00    -0.229 NA
ENDBRANCH  18  28
ENDBRANCH   2  18
TORSDOF 6
