REMARK  Name = ZINC36718340
REMARK  14 active torsions:
REMARK  status: ('A' for Active; 'I' for Inactive)
REMARK    1  A    between atoms: C_1  and  C_2
REMARK    2  A    between atoms: N_11  and  C_12
REMARK    3  A    between atoms: C_12  and  C_13
REMARK    4  A    between atoms: C_13  and  C_14
REMARK    5  A    between atoms: C_14  and  N_15
REMARK    6  A    between atoms: N_15  and  C_16
REMARK    7  A    between atoms: N_15  and  C_17
REMARK    8  A    between atoms: C_18  and  C_20
REMARK    9  A    between atoms: C_20  and  C_21
REMARK   10  A    between atoms: C_21  and  C_22
REMARK   11  A    between atoms: C_22  and  S_23
REMARK   12  A    between atoms: S_23  and  C_26
REMARK   13  A    between atoms: C_29  and  O_32
REMARK   14  A    between atoms: O_32  and  C_33
REMARK                            x       y       z     vdW  Elec       q    Type
REMARK                         _______ _______ _______ _____ _____    ______ ____
ROOT
ATOM      1  C   UNL     1      -0.018   1.503   0.010  0.00  0.00    +0.046 C 
ATOM      2  C   UNL     1       0.002  -0.004   0.002  0.00  0.00    -0.024 A 
ATOM      3  C   UNL     1       0.006  -0.675  -1.193  0.00  0.00    +0.007 A 
ATOM      4  C   UNL     1       0.024  -2.061  -1.246  0.00  0.00    +0.021 A 
ATOM      5  C   UNL     1       0.040  -2.784  -0.067  0.00  0.00    +0.057 A 
ATOM      6  C   UNL     1       0.037  -2.120   1.135  0.00  0.00    +0.059 A 
ATOM      7  C   UNL     1       0.023  -0.710   1.227  0.00  0.00    +0.085 A 
ATOM      8  N   UNL     1       0.028  -0.205   2.480  0.00  0.00    -0.224 NA
ATOM      9  C   UNL     1       0.048  -0.968   3.548  0.00  0.00    +0.168 A 
ATOM     10  S   UNL     1       0.052  -2.610   2.843  0.00  0.00    -0.050 S 
ATOM     11  N   UNL     1       0.054  -0.595   4.882  0.00  0.00    -0.250 N 
ATOM     12  C   UNL     1       0.039   0.710   5.217  0.00  0.00    +0.221 C 
ATOM     13  O   UNL     1       0.045   1.036   6.385  0.00  0.00    -0.275 OA
ATOM     14 CL   UNL     1       0.063  -4.520  -0.106  0.00  0.00    -0.082 Cl
ENDROOT
BRANCH  11  15
ATOM     15  C   UNL     1       0.078  -1.620   5.929  0.00  0.00    +0.114 C 
BRANCH  15  16
ATOM     16  C   UNL     1       1.528  -1.956   6.281  0.00  0.00    +0.001 C 
BRANCH  16  17
ATOM     17  C   UNL     1       1.553  -3.027   7.374  0.00  0.00    -0.078 C 
BRANCH  17  18
ATOM     18  N   UNL     1       2.946  -3.350   7.711  0.00  0.00    +0.376 N 
ATOM     19  C   UNL     1       3.592  -2.172   8.306  0.00  0.00    -0.097 C 
ATOM     20  C   UNL     1       2.972  -4.460   8.673  0.00  0.00    -0.097 C 
ATOM     21  H   UNL     1       3.441  -3.618   6.874  0.00  0.00    -0.083 HD
ENDBRANCH  17  18
ENDBRANCH  16  17
ENDBRANCH  15  16
ENDBRANCH  11  15
BRANCH  12  22
ATOM     22  C   UNL     1       0.015   1.764   4.141  0.00  0.00    +0.098 C 
BRANCH  22  23
ATOM     23  C   UNL     1       0.001   3.152   4.785  0.00  0.00    +0.032 C 
BRANCH  23  24
ATOM     24  C   UNL     1      -0.023   4.222   3.692  0.00  0.00    +0.172 C 
BRANCH  24  25
ATOM     25  S   UNL     1      -0.039   5.867   4.457  0.00  0.00    -0.003 S 
ATOM     26  O   UNL     1      -1.271   6.081   5.132  0.00  0.00    -0.169 OA
ATOM     27  O   UNL     1       1.198   6.115   5.110  0.00  0.00    -0.169 OA
BRANCH  25  28
ATOM     28  C   UNL     1      -0.067   6.995   3.103  0.00  0.00    +0.088 A 
ATOM     29  C   UNL     1       1.120   7.449   2.559  0.00  0.00    +0.030 A 
ATOM     30  C   UNL     1       1.101   8.334   1.498  0.00  0.00    +0.047 A 
ATOM     31  C   UNL     1      -0.111   8.766   0.979  0.00  0.00    +0.120 A 
ATOM     32  C   UNL     1      -1.300   8.309   1.526  0.00  0.00    +0.047 A 
ATOM     33  C   UNL     1      -1.276   7.420   2.584  0.00  0.00    +0.030 A 
BRANCH  31  34
ATOM     34  O   UNL     1      -0.132   9.637  -0.065  0.00  0.00    -0.495 OA
ATOM     35  C   UNL     1      -1.416  10.039  -0.548  0.00  0.00    +0.277 C 
ENDBRANCH  31  34
ENDBRANCH  25  28
ENDBRANCH  24  25
ENDBRANCH  23  24
ENDBRANCH  22  23
ENDBRANCH  12  22
TORSDOF 10
