REMARK  Name = ZINC59410998
REMARK  10 active torsions:
REMARK  status: ('A' for Active; 'I' for Inactive)
REMARK    1  A    between atoms: C_1  and  C_2
REMARK    2  A    between atoms: C_5  and  C_33
REMARK    3  A    between atoms: N_8  and  C_10
REMARK    4  A    between atoms: C_10  and  C_11
REMARK    5  A    between atoms: C_14  and  C_17
REMARK    6  A    between atoms: C_17  and  N_18
REMARK    7  A    between atoms: C_19  and  C_21
REMARK    8  A    between atoms: C_21  and  C_22
REMARK    9  A    between atoms: C_22  and  C_24
REMARK   10  A    between atoms: C_22  and  N_29
REMARK                            x       y       z     vdW  Elec       q    Type
REMARK                         _______ _______ _______ _____ _____    ______ ____
ROOT
ATOM      1  N   UNL     1       7.205  -0.064   0.580  0.00  0.00    -0.311 N 
ATOM      2  C   UNL     1       8.415   0.422   0.237  0.00  0.00    +0.215 C 
ATOM      3  O   UNL     1       9.372   0.229   0.956  0.00  0.00    -0.276 OA
ATOM      4  H   UNL     1       6.440   0.090   0.004  0.00  0.00    +0.149 HD
ENDROOT
BRANCH   1   5
ATOM      5  C   UNL     1       7.047  -0.825   1.821  0.00  0.00    +0.139 C 
BRANCH   5   9
ATOM      6  C   UNL     1       2.971  -2.034   2.241  0.00  0.00    -0.064 A 
ATOM      7  C   UNL     1       3.870  -2.852   1.582  0.00  0.00    +0.002 A 
ATOM      8  C   UNL     1       5.189  -2.460   1.446  0.00  0.00    +0.005 A 
ATOM      9  C   UNL     1       5.609  -1.252   1.969  0.00  0.00    -0.030 A 
ATOM     10  C   UNL     1       4.710  -0.434   2.628  0.00  0.00    +0.005 A 
ATOM     11  C   UNL     1       3.390  -0.823   2.760  0.00  0.00    +0.002 A 
BRANCH   6  12
ATOM     12  C   UNL     1       1.534  -2.461   2.390  0.00  0.00    -0.043 C 
BRANCH  12  18
ATOM     13  C   UNL     1      -0.019   1.526   0.010  0.00  0.00    +0.005 C 
ATOM     14  C   UNL     1       0.002  -0.004   0.002  0.00  0.00    -0.031 C 
ATOM     15  C   UNL     1      -1.434  -0.535   0.015  0.00  0.00    +0.003 C 
ATOM     16  C   UNL     1      -1.402  -2.064   0.086  0.00  0.00    -0.031 C 
ATOM     17  C   UNL     1      -0.613  -2.496   1.324  0.00  0.00    -0.075 C 
ATOM     18  N   UNL     1       0.758  -1.980   1.239  0.00  0.00    +0.383 N 
ATOM     19  C   UNL     1       0.740  -0.512   1.242  0.00  0.00    -0.075 C 
ATOM     20  C   UNL     1      -2.832  -2.602   0.177  0.00  0.00    +0.005 C 
ATOM     21  H   UNL     1       1.188  -2.307   0.386  0.00  0.00    -0.081 HD
ENDBRANCH  12  18
ENDBRANCH   6  12
ENDBRANCH   5   9
ENDBRANCH   1   5
BRANCH   2  22
ATOM     22  C   UNL     1       8.578   1.205  -1.040  0.00  0.00    +0.123 C 
BRANCH  22  23
ATOM     23  C   UNL     1      10.038   1.638  -1.190  0.00  0.00    +0.120 C 
BRANCH  23  24
ATOM     24  N   UNL     1      10.383   2.572  -0.116  0.00  0.00    -0.292 N 
ATOM     25  C   UNL     1      11.665   2.702   0.278  0.00  0.00    +0.298 C 
ATOM     26  O   UNL     1      12.536   2.045  -0.259  0.00  0.00    -0.253 OA
ATOM     27  N   UNL     1      11.983   3.562   1.266  0.00  0.00    -0.313 N 
ATOM     28  H   UNL     1       9.689   3.097   0.312  0.00  0.00    +0.151 HD
ATOM     29  H   UNL     1      11.289   4.087   1.694  0.00  0.00    +0.146 HD
ATOM     30  H   UNL     1      12.906   3.656   1.549  0.00  0.00    +0.146 HD
ENDBRANCH  23  24
BRANCH  23  31
ATOM     31  C   UNL     1      10.227   2.314  -2.524  0.00  0.00    +0.010 A 
ATOM     32  C   UNL     1      10.733   1.806  -3.674  0.00  0.00    +0.013 A 
ATOM     33  C   UNL     1      10.812   2.620  -4.789  0.00  0.00    +0.008 A 
ATOM     34  C   UNL     1      10.381   3.902  -4.698  0.00  0.00    +0.045 A 
ATOM     35  S   UNL     1       9.836   3.989  -3.001  0.00  0.00    -0.100 S 
ENDBRANCH  23  31
ENDBRANCH  22  23
ENDBRANCH   2  22
TORSDOF 8
