REMARK  Name = ZINC13347156
REMARK  5 active torsions:
REMARK  status: ('A' for Active; 'I' for Inactive)
REMARK    1  A    between atoms: C_1  and  N_2
REMARK    2  A    between atoms: C_3  and  N_11
REMARK    3  A    between atoms: N_7  and  C_10
REMARK    4  A    between atoms: C_15  and  C_18
REMARK    5  A    between atoms: C_23  and  N_65
REMARK                            x       y       z     vdW  Elec       q    Type
REMARK                         _______ _______ _______ _____ _____    ______ ____
ROOT
ATOM      1  N   UNL     1       4.901   4.575   2.253  0.00  0.00    -0.316 N 
ATOM      2  C   UNL     1       5.762   3.395   2.402  0.00  0.00    +0.106 C 
ATOM      3  C   UNL     1       5.588   2.478   1.189  0.00  0.00    +0.020 C 
ATOM      4  C   UNL     1       4.121   2.052   1.084  0.00  0.00    +0.016 C 
ATOM      5  C   UNL     1       3.241   3.301   0.979  0.00  0.00    +0.092 C 
ATOM      6  C   UNL     1       3.484   4.194   2.198  0.00  0.00    +0.119 C 
ENDROOT
BRANCH   1   9
ATOM      7  C   UNL     1       7.104   6.282   2.042  0.00  0.00    +0.155 C 
ATOM      8  N   UNL     1       6.199   6.335   3.193  0.00  0.00    -0.285 N 
ATOM      9  C   UNL     1       5.127   5.479   3.260  0.00  0.00    +0.110 A 
ATOM     10  C   UNL     1       4.292   5.532   4.340  0.00  0.00    +0.112 A 
ATOM     11  C   UNL     1       4.549   6.467   5.355  0.00  0.00    +0.258 A 
ATOM     12  O   UNL     1       3.817   6.533   6.328  0.00  0.00    -0.267 OA
ATOM     13  N   UNL     1       5.609   7.292   5.247  0.00  0.00    -0.264 N 
ATOM     14  C   UNL     1       6.421   7.226   4.177  0.00  0.00    +0.333 A 
ATOM     15  O   UNL     1       7.372   7.980   4.100  0.00  0.00    -0.246 OA
ATOM     16  C   UNL     1       5.879   8.269   6.305  0.00  0.00    +0.157 C 
ENDBRANCH   1   9
BRANCH   5  17
ATOM     17  C   UNL     1       1.792   2.892   0.934  0.00  0.00    +0.220 C 
ATOM     18  O   UNL     1       1.123   2.918   1.946  0.00  0.00    -0.275 OA
ATOM     19  N   UNL     1       1.238   2.498  -0.230  0.00  0.00    -0.301 N 
ATOM     20  C   UNL     1       2.007   2.553  -1.480  0.00  0.00    +0.106 C 
ATOM     21  C   UNL     1       1.206   3.348  -2.517  0.00  0.00    +0.004 C 
ATOM     22  C   UNL     1      -0.187   2.732  -2.662  0.00  0.00    -0.066 C 
ATOM     23  C   UNL     1      -0.922   2.809  -1.322  0.00  0.00    +0.004 C 
ATOM     24  C   UNL     1      -0.146   2.007  -0.272  0.00  0.00    +0.106 C 
BRANCH  22  30
ATOM     25  C   UNL     1      -1.107   4.880  -3.294  0.00  0.00    -0.078 C 
ATOM     26  C   UNL     1      -1.772   5.650  -4.438  0.00  0.00    -0.019 C 
ATOM     27  C   UNL     1      -3.136   5.025  -4.743  0.00  0.00    -0.004 C 
ATOM     28  C   UNL     1      -2.944   3.546  -5.093  0.00  0.00    -0.019 C 
ATOM     29  C   UNL     1      -2.246   2.838  -3.931  0.00  0.00    -0.078 C 
ATOM     30  N   UNL     1      -0.929   3.471  -3.704  0.00  0.00    +0.382 N 
ATOM     31  H   UNL     1      -0.392   3.444  -4.579  0.00  0.00    -0.081 HD
ENDBRANCH  22  30
ENDBRANCH   5  17
TORSDOF 3
