REMARK  Name = ZINC32918704
REMARK  5 active torsions:
REMARK  status: ('A' for Active; 'I' for Inactive)
REMARK    1  A    between atoms: C_1  and  C_2
REMARK    2  A    between atoms: C_2  and  C_3
REMARK    3  A    between atoms: C_3  and  N_4
REMARK    4  A    between atoms: N_18  and  C_24
REMARK    5  A    between atoms: C_27  and  C_30
REMARK                            x       y       z     vdW  Elec       q    Type
REMARK                         _______ _______ _______ _____ _____    ______ ____
ROOT
ATOM      1  N   UNL     1      -8.772   1.569   2.760  0.00  0.00    +0.382 N 
ATOM      2  C   UNL     1      -8.269   0.274   2.281  0.00  0.00    -0.060 C 
ATOM      3  C   UNL     1      -6.739   0.295   2.272  0.00  0.00    +0.089 C 
ATOM      4  N   UNL     1      -6.272   1.390   1.410  0.00  0.00    -0.303 N 
ATOM      5  C   UNL     1      -6.775   2.685   1.889  0.00  0.00    +0.089 C 
ATOM      6  C   UNL     1      -8.305   2.663   1.898  0.00  0.00    -0.060 C 
ATOM      7  C   UNL     1      -4.891   1.396   1.321  0.00  0.00    +0.218 A 
ATOM      8  N   UNL     1      -4.198   0.477   1.978  0.00  0.00    -0.222 NA
ATOM      9  C   UNL     1      -2.872   0.465   1.950  0.00  0.00    +0.120 A 
ATOM     10  C   UNL     1      -2.212   1.429   1.221  0.00  0.00    -0.002 A 
ATOM     11  C   UNL     1      -2.975   2.352   0.484  0.00  0.00    +0.084 A 
ATOM     12  N   UNL     1      -4.296   2.321   0.580  0.00  0.00    -0.214 NA
ATOM     13  C   UNL     1      -2.264   3.313  -0.384  0.00  0.00    +0.060 A 
ATOM     14  C   UNL     1      -2.454   4.633  -0.603  0.00  0.00    +0.126 A 
ATOM     15  N   UNL     1      -1.565   5.017  -1.547  0.00  0.00    -0.237 N 
ATOM     16  N   UNL     1      -0.796   3.901  -1.914  0.00  0.00    -0.151 NA
ATOM     17  C   UNL     1      -1.191   2.879  -1.212  0.00  0.00    +0.150 A 
ATOM     18  N   UNL     1      -0.716   1.568  -1.184  0.00  0.00    -0.327 N 
ATOM     19  C   UNL     1      -0.013   1.086   0.008  0.00  0.00    +0.108 C 
ATOM     20  C   UNL     1      -0.724   1.577   1.274  0.00  0.00    +0.057 C 
ATOM     21  H   UNL     1      -0.863   0.899  -2.044  0.00  0.00    +0.148 HD
ATOM     22  H   UNL     1      -8.370   1.737   3.770  0.00  0.00    -0.082 HD
ENDROOT
BRANCH  15  23
ATOM     23  C   UNL     1      -1.433   6.310  -2.070  0.00  0.00    +0.065 A 
ATOM     24  C   UNL     1      -2.263   7.329  -1.623  0.00  0.00    +0.028 A 
ATOM     25  C   UNL     1      -2.127   8.604  -2.137  0.00  0.00    +0.005 A 
ATOM     26  C   UNL     1      -1.172   8.863  -3.103  0.00  0.00    -0.050 A 
ATOM     27  C   UNL     1      -0.347   7.849  -3.554  0.00  0.00    +0.005 A 
ATOM     28  C   UNL     1      -0.475   6.573  -3.040  0.00  0.00    +0.028 A 
ATOM     29  C   UNL     1      -1.030  10.254  -3.665  0.00  0.00    +0.044 C 
ENDBRANCH  15  23
BRANCH   1  30
ATOM     30  C   UNL     1     -10.238   1.562   2.855  0.00  0.00    -0.079 C 
BRANCH  30  32
ATOM     31  C   UNL     1     -12.266   2.978   3.211  0.00  0.00    +0.002 C 
ATOM     32  C   UNL     1     -10.739   2.985   3.112  0.00  0.00    -0.022 C 
ENDBRANCH  30  32
ENDBRANCH   1  30
TORSDOF 3
