REMARK  Name = ZINC35848572
REMARK  13 active torsions:
REMARK  status: ('A' for Active; 'I' for Inactive)
REMARK    1  A    between atoms: C_1  and  C_2
REMARK    2  A    between atoms: C_2  and  O_3
REMARK    3  A    between atoms: O_3  and  N_4
REMARK    4  A    between atoms: C_5  and  C_7
REMARK    5  A    between atoms: C_7  and  N_8
REMARK    6  A    between atoms: C_11  and  C_22
REMARK    7  A    between atoms: N_13  and  C_14
REMARK    8  A    between atoms: C_17  and  C_21
REMARK    9  A    between atoms: C_19  and  C_20
REMARK   10  A    between atoms: C_22  and  C_23
REMARK   11  A    between atoms: C_22  and  C_24
REMARK   12  A    between atoms: C_22  and  C_25
REMARK   13  A    between atoms: C_26  and  C_32
REMARK                            x       y       z     vdW  Elec       q    Type
REMARK                         _______ _______ _______ _____ _____    ______ ____
ROOT
ATOM      1  N   UNL     1       5.297  -7.308  -5.887  0.00  0.00    -0.246 N 
ATOM      2  C   UNL     1       3.939  -6.963  -5.954  0.00  0.00    +0.136 A 
ATOM      3  C   UNL     1       3.132  -7.277  -6.994  0.00  0.00    +0.034 A 
ATOM      4  C   UNL     1       1.861  -6.770  -6.719  0.00  0.00    +0.075 A 
ATOM      5  N   UNL     1       1.901  -6.173  -5.551  0.00  0.00    -0.169 NA
ATOM      6  N   UNL     1       3.205  -6.282  -5.043  0.00  0.00    -0.217 N 
ATOM      7  C   UNL     1       3.563  -8.046  -8.216  0.00  0.00    +0.112 C 
ATOM      8  S   UNL     1       4.600  -6.956  -9.256  0.00  0.00    -0.138 S 
ATOM      9  C   UNL     1       5.614  -6.098  -8.006  0.00  0.00    +0.166 C 
ATOM     10  C   UNL     1       6.073  -7.049  -6.944  0.00  0.00    +0.231 C 
ATOM     11  O   UNL     1       7.154  -7.590  -7.047  0.00  0.00    -0.274 OA
ENDROOT
BRANCH   6  12
ATOM     12  C   UNL     1       3.662  -5.778  -3.817  0.00  0.00    +0.070 A 
ATOM     13  C   UNL     1       3.757  -6.615  -2.713  0.00  0.00    +0.028 A 
ATOM     14  C   UNL     1       4.208  -6.117  -1.507  0.00  0.00    +0.005 A 
ATOM     15  C   UNL     1       4.565  -4.785  -1.398  0.00  0.00    -0.050 A 
ATOM     16  C   UNL     1       4.471  -3.949  -2.495  0.00  0.00    +0.008 A 
ATOM     17  C   UNL     1       4.027  -4.444  -3.706  0.00  0.00    -0.025 A 
ATOM     18  C   UNL     1       3.932  -3.533  -4.903  0.00  0.00    +0.046 C 
ATOM     19  C   UNL     1       5.056  -4.243  -0.080  0.00  0.00    +0.044 C 
ENDBRANCH   6  12
BRANCH   7  20
ATOM     20  C   UNL     1       2.348  -8.486  -8.992  0.00  0.00    -0.023 A 
ATOM     21  C   UNL     1       1.801  -9.739  -8.788  0.00  0.00    +0.012 A 
ATOM     22  C   UNL     1       0.708 -10.103  -9.503  0.00  0.00    +0.045 A 
ATOM     23  S   UNL     1       0.420  -8.652 -10.502  0.00  0.00    -0.105 S 
ATOM     24  C   UNL     1       1.772  -7.656  -9.896  0.00  0.00    +0.050 A 
ENDBRANCH   7  20
BRANCH   4  25
ATOM     25  C   UNL     1       0.651  -6.887  -7.610  0.00  0.00    +0.007 C 
ATOM     26  C   UNL     1       0.235  -8.355  -7.714  0.00  0.00    +0.017 C 
ATOM     27  C   UNL     1      -0.499  -6.071  -7.017  0.00  0.00    +0.017 C 
ATOM     28  C   UNL     1       0.991  -6.352  -9.003  0.00  0.00    +0.017 C 
ENDBRANCH   4  25
BRANCH   1  29
ATOM     29  C   UNL     1       5.853  -7.933  -4.684  0.00  0.00    +0.212 C 
BRANCH  29  31
ATOM     30  N   UNL     1       7.750  -7.560  -3.142  0.00  0.00    -0.193 N 
ATOM     31  C   UNL     1       7.062  -7.157  -4.228  0.00  0.00    +0.253 C 
ATOM     32  O   UNL     1       7.415  -6.171  -4.839  0.00  0.00    -0.272 OA
ATOM     33  H   UNL     1       7.420  -8.297  -2.604  0.00  0.00    +0.182 HD
BRANCH  30  34
ATOM     34  O   UNL     1       8.955  -6.907  -2.785  0.00  0.00    -0.280 OA
BRANCH  34  36
ATOM     35  C   UNL     1      10.863  -6.659  -1.323  0.00  0.00    +0.036 C 
ATOM     36  C   UNL     1       9.578  -7.436  -1.613  0.00  0.00    +0.187 C 
ENDBRANCH  34  36
ENDBRANCH  30  34
ENDBRANCH  29  31
ENDBRANCH   1  29
TORSDOF 7
