REMARK  Name = ZINC39560648
REMARK  4 active torsions:
REMARK  status: ('A' for Active; 'I' for Inactive)
REMARK    1  A    between atoms: C_3  and  S_6
REMARK    2  A    between atoms: S_6  and  N_9
REMARK    3  A    between atoms: C_20  and  N_25
REMARK    4  A    between atoms: N_28  and  C_29
REMARK                            x       y       z     vdW  Elec       q    Type
REMARK                         _______ _______ _______ _____ _____    ______ ____
ROOT
ATOM      1  N   UNL     1       4.660   1.683   1.351  0.00  0.00    -0.175 NA
ATOM      2  C   UNL     1       4.457   2.970   2.026  0.00  0.00    +0.114 C 
ATOM      3  C   UNL     1       3.770   2.759   3.368  0.00  0.00    +0.025 C 
ATOM      4  C   UNL     1       4.482   1.682   4.187  0.00  0.00    +0.017 C 
ATOM      5  C   UNL     1       4.467   0.377   3.386  0.00  0.00    +0.052 C 
ATOM      6  C   UNL     1       5.285   0.585   2.106  0.00  0.00    +0.119 C 
ATOM      7  C   UNL     1       3.048   0.039   2.991  0.00  0.00    +0.026 A 
ATOM      8  C   UNL     1       2.749  -1.273   2.798  0.00  0.00    +0.024 A 
ATOM      9  C   UNL     1       1.476  -1.659   2.366  0.00  0.00    +0.030 A 
ATOM     10  C   UNL     1       0.542  -0.691   2.116  0.00  0.00    +0.100 A 
ATOM     11  C   UNL     1       0.885   0.659   2.323  0.00  0.00    +0.273 A 
ATOM     12  O   UNL     1       0.084   1.537   2.045  0.00  0.00    -0.266 OA
ATOM     13  N   UNL     1       2.098   0.992   2.829  0.00  0.00    -0.310 N 
ATOM     14  C   UNL     1       2.308   2.384   3.207  0.00  0.00    +0.130 C 
ENDROOT
BRANCH  10  15
ATOM     15  N   UNL     1      -0.738  -1.038   1.659  0.00  0.00    -0.265 N 
ATOM     16  C   UNL     1      -1.827  -0.675   2.366  0.00  0.00    +0.304 C 
ATOM     17  O   UNL     1      -1.697  -0.130   3.445  0.00  0.00    -0.252 OA
ATOM     18  N   UNL     1      -3.059  -0.918   1.877  0.00  0.00    -0.296 N 
ATOM     19  H   UNL     1      -0.840  -1.538   0.835  0.00  0.00    +0.157 HD
ATOM     20  H   UNL     1      -3.163  -1.353   1.017  0.00  0.00    +0.151 HD
BRANCH  18  21
ATOM     21  C   UNL     1      -4.242  -0.524   2.646  0.00  0.00    +0.074 C 
ATOM     22  C   UNL     1      -4.586  -1.623   3.653  0.00  0.00    +0.022 C 
ATOM     23  C   UNL     1      -5.822  -1.212   4.456  0.00  0.00    +0.002 C 
ATOM     24  C   UNL     1      -7.002  -1.005   3.505  0.00  0.00    +0.000 C 
ATOM     25  C   UNL     1      -6.659   0.094   2.497  0.00  0.00    +0.002 C 
ATOM     26  C   UNL     1      -5.423  -0.317   1.695  0.00  0.00    +0.022 C 
ENDBRANCH  18  21
ENDBRANCH  10  15
BRANCH   1  27
ATOM     27  S   UNL     1       4.191   1.468  -0.222  0.00  0.00    +0.067 S 
ATOM     28  O   UNL     1       3.104   2.357  -0.446  0.00  0.00    -0.152 OA
ATOM     29  O   UNL     1       4.083   0.066  -0.426  0.00  0.00    -0.152 OA
BRANCH  27  32
ATOM     30  C   UNL     1       7.538   2.000  -2.456  0.00  0.00    +0.010 A 
ATOM     31  C   UNL     1       6.620   1.354  -1.648  0.00  0.00    +0.036 A 
ATOM     32  C   UNL     1       5.515   2.026  -1.242  0.00  0.00    +0.143 A 
ATOM     33  S   UNL     1       5.750   3.621  -2.008  0.00  0.00    -0.077 S 
ATOM     34  C   UNL     1       7.305   3.285  -2.818  0.00  0.00    +0.047 A 
ENDBRANCH  27  32
ENDBRANCH   1  27
TORSDOF 4
