REMARK  Name = ZINC13054854
REMARK  7 active torsions:
REMARK  status: ('A' for Active; 'I' for Inactive)
REMARK    1  A    between atoms: C_3  and  O_12
REMARK    2  A    between atoms: C_4  and  N_9
REMARK    3  A    between atoms: C_6  and  C_7
REMARK    4  A    between atoms: O_12  and  C_13
REMARK    5  A    between atoms: C_13  and  C_14
REMARK    6  A    between atoms: C_23  and  S_25
REMARK    7  A    between atoms: S_25  and  N_28
REMARK                            x       y       z     vdW  Elec       q    Type
REMARK                         _______ _______ _______ _____ _____    ______ ____
ROOT
ATOM      1  C   UNL     1      -8.371   1.058  -0.663  0.00  0.00    +0.257 C 
ATOM      2  O   UNL     1      -8.097   1.243  -1.830  0.00  0.00    -0.272 OA
ATOM      3  N   UNL     1      -7.569   1.548   0.303  0.00  0.00    -0.268 N 
ATOM      4  C   UNL     1      -7.795   1.391   1.743  0.00  0.00    +0.118 C 
ATOM      5  C   UNL     1      -6.620   2.117   2.417  0.00  0.00    +0.056 C 
ATOM      6  C   UNL     1      -5.791   2.648   1.270  0.00  0.00    -0.023 A 
ATOM      7  C   UNL     1      -6.400   2.282   0.080  0.00  0.00    +0.040 A 
ATOM      8  C   UNL     1      -5.812   2.663  -1.128  0.00  0.00    +0.026 A 
ATOM      9  C   UNL     1      -4.646   3.398  -1.132  0.00  0.00    +0.030 A 
ATOM     10  C   UNL     1      -4.043   3.754   0.061  0.00  0.00    +0.106 A 
ATOM     11  C   UNL     1      -4.620   3.380   1.261  0.00  0.00    +0.034 A 
ENDROOT
BRANCH  10  12
ATOM     12  S   UNL     1      -2.550   4.688   0.052  0.00  0.00    +0.061 S 
ATOM     13  O   UNL     1      -2.485   5.364   1.300  0.00  0.00    -0.153 OA
ATOM     14  O   UNL     1      -2.509   5.377  -1.190  0.00  0.00    -0.153 OA
BRANCH  12  15
ATOM     15  N   UNL     1      -1.296   3.606   0.034  0.00  0.00    -0.177 NA
ATOM     16  C   UNL     1      -0.741   3.124  -1.238  0.00  0.00    +0.109 C 
ATOM     17  C   UNL     1      -0.752   1.593  -1.232  0.00  0.00    +0.017 C 
ATOM     18  C   UNL     1      -0.013   1.086   0.008  0.00  0.00    +0.003 C 
ATOM     19  C   UNL     1      -0.729   1.579   1.268  0.00  0.00    +0.017 C 
ATOM     20  C   UNL     1      -0.717   3.111   1.290  0.00  0.00    +0.109 C 
ENDBRANCH  12  15
ENDBRANCH  10  12
BRANCH   1  21
ATOM     21  C   UNL     1      -9.608   0.281  -0.293  0.00  0.00    +0.325 C 
BRANCH  21  22
ATOM     22  O   UNL     1     -10.286  -0.129  -1.483  0.00  0.00    -0.480 OA
BRANCH  22  25
ATOM     23  C   UNL     1     -13.046  -1.871   0.116  0.00  0.00    +0.019 A 
ATOM     24  C   UNL     1     -11.887  -1.145  -0.048  0.00  0.00    +0.049 A 
ATOM     25  C   UNL     1     -11.428  -0.844  -1.325  0.00  0.00    +0.151 A 
ATOM     26  C   UNL     1     -12.139  -1.269  -2.442  0.00  0.00    +0.168 A 
ATOM     27  C   UNL     1     -13.296  -2.000  -2.287  0.00  0.00    +0.051 A 
ATOM     28  C   UNL     1     -13.761  -2.305  -1.004  0.00  0.00    +0.066 A 
BRANCH  28  29
ATOM     29  C   UNL     1     -15.002  -3.083  -0.833  0.00  0.00    +0.387 C 
ATOM     30  O   UNL     1     -15.622  -3.459  -1.807  0.00  0.00    -0.241 OA
ATOM     31  O   UNL     1     -15.448  -3.376   0.405  0.00  0.00    -0.241 OA
ENDBRANCH  28  29
BRANCH  26  32
ATOM     32  N   UNL     1     -11.650  -0.940  -3.799  0.00  0.00    +0.060 N 
ATOM     33  O   UNL     1     -12.272  -1.312  -4.778  0.00  0.00    -0.126 OA
ATOM     34  O   UNL     1     -10.624  -0.297  -3.938  0.00  0.00    -0.126 OA
ENDBRANCH  26  32
ENDBRANCH  22  25
ENDBRANCH  21  22
ENDBRANCH   1  21
TORSDOF 7
