REMARK  Name = ZINC36357233
REMARK  5 active torsions:
REMARK  status: ('A' for Active; 'I' for Inactive)
REMARK    1  A    between atoms: C_1  and  C_2
REMARK    2  A    between atoms: C_18  and  C_20
REMARK    3  A    between atoms: C_23  and  C_25
REMARK    4  A    between atoms: C_28  and  C_31
REMARK    5  A    between atoms: C_31  and  C_33
REMARK                            x       y       z     vdW  Elec       q    Type
REMARK                         _______ _______ _______ _____ _____    ______ ____
ROOT
ATOM      1  C   UNL     1      -0.025   1.524  -0.003  0.00  0.00    +0.068 C 
ATOM      2  C   UNL     1      -0.007   0.017   0.000  0.00  0.00    +0.066 A 
ATOM      3  C   UNL     1       0.002  -0.798  -1.123  0.00  0.00    +0.026 A 
ATOM      4  C   UNL     1       0.024  -2.100  -0.700  0.00  0.00    +0.134 A 
ATOM      5  N   UNL     1       0.019  -2.090   0.650  0.00  0.00    -0.198 N 
ATOM      6  N   UNL     1       0.010  -0.749   1.066  0.00  0.00    -0.168 NA
ATOM      7  C   UNL     1       0.028  -3.213   1.484  0.00  0.00    +0.178 A 
ATOM      8  C   UNL     1       0.527  -3.117   2.781  0.00  0.00    +0.053 A 
ATOM      9  C   UNL     1       0.513  -4.258   3.568  0.00  0.00    +0.045 A 
ATOM     10  C   UNL     1       0.003  -5.425   3.016  0.00  0.00    +0.152 A 
ATOM     11  N   UNL     1      -0.450  -5.425   1.776  0.00  0.00    -0.136 NA
ATOM     12  N   UNL     1      -0.443  -4.370   1.045  0.00  0.00    -0.128 NA
ATOM     13 CL   UNL     1      -0.039  -6.885   3.955  0.00  0.00    -0.060 Cl
ATOM     14  N   UNL     1       0.057  -3.166  -1.597  0.00  0.00    -0.270 N 
ATOM     15  C   UNL     1       0.272  -2.893  -2.901  0.00  0.00    +0.219 C 
ATOM     16  O   UNL     1       0.118  -3.775  -3.720  0.00  0.00    -0.275 OA
ATOM     17  C   UNL     1       0.695  -1.530  -3.371  0.00  0.00    +0.112 C 
ATOM     18  C   UNL     1      -0.015  -0.424  -2.583  0.00  0.00    +0.099 C 
ATOM     19  H   UNL     1      -0.070  -4.079  -1.293  0.00  0.00    +0.156 HD
ENDROOT
BRANCH  18  20
ATOM     20  C   UNL     1      -1.439  -0.296  -3.058  0.00  0.00    +0.114 A 
ATOM     21  C   UNL     1      -1.997   0.816  -3.578  0.00  0.00    +0.046 A 
ATOM     22  C   UNL     1      -3.333   0.501  -3.889  0.00  0.00    +0.050 A 
ATOM     23  C   UNL     1      -3.521  -0.801  -3.537  0.00  0.00    +0.135 A 
ATOM     24  O   UNL     1      -2.361  -1.272  -3.040  0.00  0.00    -0.459 OA
BRANCH  23  25
ATOM     25  C   UNL     1      -4.774  -1.564  -3.680  0.00  0.00    +0.017 A 
ATOM     26  C   UNL     1      -5.908  -0.951  -4.225  0.00  0.00    +0.012 A 
ATOM     27  C   UNL     1      -7.069  -1.656  -4.358  0.00  0.00    +0.012 A 
ATOM     28  C   UNL     1      -7.125  -2.995  -3.949  0.00  0.00    +0.017 A 
ATOM     29  C   UNL     1      -5.989  -3.609  -3.404  0.00  0.00    +0.012 A 
ATOM     30  C   UNL     1      -4.828  -2.903  -3.277  0.00  0.00    +0.012 A 
BRANCH  28  31
ATOM     31  C   UNL     1      -8.373  -3.755  -4.090  0.00  0.00    +0.160 C 
ATOM     32  O   UNL     1      -9.383  -3.198  -4.468  0.00  0.00    -0.292 OA
ATOM     33  C   UNL     1      -8.400  -5.227  -3.767  0.00  0.00    +0.091 C 
ENDBRANCH  28  31
ENDBRANCH  23  25
ENDBRANCH  18  20
TORSDOF 3
