REMARK  Name = ZINC17519726
REMARK  7 active torsions:
REMARK  status: ('A' for Active; 'I' for Inactive)
REMARK    1  A    between atoms: C_1  and  C_2
REMARK    2  A    between atoms: C_3  and  S_8
REMARK    3  A    between atoms: C_4  and  C_7
REMARK    4  A    between atoms: S_8  and  N_11
REMARK    5  A    between atoms: C_17  and  N_18
REMARK    6  A    between atoms: C_17  and  N_50
REMARK    7  A    between atoms: C_22  and  C_24
REMARK                            x       y       z     vdW  Elec       q    Type
REMARK                         _______ _______ _______ _____ _____    ______ ____
ROOT
ATOM      1  N   UNL     1       1.893  -4.098  -3.712  0.00  0.00    -0.178 NA
ATOM      2  C   UNL     1       1.128  -3.057  -4.425  0.00  0.00    +0.107 C 
ATOM      3  C   UNL     1       0.977  -1.788  -3.568  0.00  0.00    -0.001 C 
ATOM      4  C   UNL     1       0.714  -2.175  -2.130  0.00  0.00    -0.075 C 
ATOM      5  C   UNL     1       2.670  -3.484  -1.471  0.00  0.00    -0.059 C 
ATOM      6  C   UNL     1       3.076  -3.798  -2.931  0.00  0.00    +0.091 C 
ATOM      7  N   UNL     1       2.027  -2.194  -1.425  0.00  0.00    +0.394 N 
ATOM      8  H   UNL     1       2.645  -1.514  -1.882  0.00  0.00    -0.079 HD
ENDROOT
BRANCH   1   9
ATOM      9  S   UNL     1       1.381  -5.670  -3.809  0.00  0.00    +0.066 S 
ATOM     10  O   UNL     1       0.621  -5.776  -5.005  0.00  0.00    -0.153 OA
ATOM     11  O   UNL     1       2.517  -6.484  -3.554  0.00  0.00    -0.153 OA
BRANCH   9  14
ATOM     12  C   UNL     1      -1.997  -5.277  -3.612  0.00  0.00    +0.071 C 
ATOM     13  C   UNL     1      -1.141  -5.751  -2.466  0.00  0.00    +0.107 A 
ATOM     14  C   UNL     1       0.260  -5.936  -2.475  0.00  0.00    +0.170 A 
ATOM     15  C   UNL     1       0.542  -6.371  -1.224  0.00  0.00    +0.161 A 
ATOM     16  O   UNL     1      -0.625  -6.414  -0.566  0.00  0.00    -0.358 OA
ATOM     17  N   UNL     1      -1.546  -6.070  -1.271  0.00  0.00    -0.081 NA
ATOM     18  C   UNL     1       1.899  -6.732  -0.678  0.00  0.00    +0.091 C 
ENDBRANCH   9  14
ENDBRANCH   1   9
BRANCH   7  19
ATOM     19  C   UNL     1       1.835  -1.793  -0.025  0.00  0.00    +0.073 C 
BRANCH  19  20
ATOM     20  N   UNL     1       1.344  -0.413  -0.013  0.00  0.00    -0.240 N 
ATOM     21  C   UNL     1       2.095   0.708  -0.014  0.00  0.00    +0.265 A 
ATOM     22  S   UNL     1       3.806   0.780  -0.030  0.00  0.00    +0.011 S 
ATOM     23  O   UNL     1       1.256   1.758  -0.001  0.00  0.00    -0.411 OA
ATOM     24  C   UNL     1      -0.016   1.300   0.009  0.00  0.00    +0.254 A 
ATOM     25  N   UNL     1       0.002  -0.004   0.002  0.00  0.00    -0.130 NA
BRANCH  24  26
ATOM     26  C   UNL     1      -1.225   2.138   0.020  0.00  0.00    +0.076 A 
ATOM     27  C   UNL     1      -1.329   3.506   0.033  0.00  0.00    +0.021 A 
ATOM     28  C   UNL     1      -2.583   4.073   0.037  0.00  0.00    +0.008 A 
ATOM     29  C   UNL     1      -3.676   3.266   0.039  0.00  0.00    +0.046 A 
ATOM     30  S   UNL     1      -2.940   1.639   0.026  0.00  0.00    -0.092 S 
ENDBRANCH  24  26
ENDBRANCH  19  20
ENDBRANCH   7  19
TORSDOF 5
