REMARK  Name = ZINC06194620
REMARK  12 active torsions:
REMARK  status: ('A' for Active; 'I' for Inactive)
REMARK    1  A    between atoms: C_1  and  C_2
REMARK    2  A    between atoms: C_2  and  O_3
REMARK    3  A    between atoms: O_3  and  C_4
REMARK    4  A    between atoms: C_4  and  C_6
REMARK    5  A    between atoms: C_11  and  C_13
REMARK    6  A    between atoms: C_11  and  C_29
REMARK    7  A    between atoms: C_11  and  N_71
REMARK    8  A    between atoms: C_17  and  O_27
REMARK    9  A    between atoms: C_18  and  O_25
REMARK   10  A    between atoms: O_25  and  C_26
REMARK   11  A    between atoms: O_27  and  C_28
REMARK   12  A    between atoms: N_33  and  C_34
REMARK                            x       y       z     vdW  Elec       q    Type
REMARK                         _______ _______ _______ _____ _____    ______ ____
ROOT
ATOM      1  C   UNL     1      -4.997   3.819   0.045  0.00  0.00    +0.039 C 
ENDROOT
BRANCH   1   2
ATOM      2  C   UNL     1      -3.611   3.236   0.131  0.00  0.00    +0.011 A 
ATOM      3  C   UNL     1      -2.534   4.059   0.203  0.00  0.00    +0.017 A 
ATOM      4  C   UNL     1      -1.201   3.462   0.281  0.00  0.00    +0.002 A 
ATOM      5  C   UNL     1      -0.054   4.263   0.341  0.00  0.00    +0.059 A 
ATOM      6  C   UNL     1       1.188   3.671   0.413  0.00  0.00    +0.162 A 
ATOM      7  C   UNL     1       1.304   2.277   0.426  0.00  0.00    +0.163 A 
ATOM      8  C   UNL     1       0.178   1.478   0.367  0.00  0.00    +0.075 A 
ATOM      9  C   UNL     1      -1.081   2.059   0.289  0.00  0.00    +0.053 A 
ATOM     10  N   UNL     1      -2.217   1.278   0.223  0.00  0.00    -0.322 N 
ATOM     11  H   UNL     1      -2.131   0.281   0.232  0.00  0.00    +0.169 HD
ATOM     12  C   UNL     1      -3.438   1.837   0.147  0.00  0.00    +0.251 A 
ATOM     13  O   UNL     1      -4.419   1.116   0.090  0.00  0.00    -0.268 OA
BRANCH   7  14
ATOM     14  O   UNL     1       2.534   1.705   0.497  0.00  0.00    -0.491 OA
ATOM     15  C   UNL     1       2.586   0.277   0.506  0.00  0.00    +0.277 C 
ENDBRANCH   7  14
BRANCH   6  16
ATOM     16  O   UNL     1       2.305   4.445   0.471  0.00  0.00    -0.491 OA
ATOM     17  C   UNL     1       2.115   5.861   0.454  0.00  0.00    +0.277 C 
ENDBRANCH   6  16
ENDBRANCH   1   2
BRANCH   1  23
ATOM     18  C   UNL     1      -7.537   3.268   3.440  0.00  0.00    +0.094 C 
ATOM     19  C   UNL     1      -6.083   2.792   3.501  0.00  0.00    -0.004 C 
ATOM     20  C   UNL     1      -5.267   3.522   2.433  0.00  0.00    -0.077 C 
ATOM     21  C   UNL     1      -7.217   3.739   1.009  0.00  0.00    -0.077 C 
ATOM     22  C   UNL     1      -8.091   3.014   2.035  0.00  0.00    -0.004 C 
ATOM     23  N   UNL     1      -5.836   3.218   1.102  0.00  0.00    +0.389 N 
ATOM     24  H   UNL     1      -5.855   2.199   0.974  0.00  0.00    -0.080 HD
BRANCH  18  25
ATOM     25  C   UNL     1      -8.358   2.510   4.451  0.00  0.00    +0.310 C 
ATOM     26  O   UNL     1      -7.836   1.674   5.149  0.00  0.00    -0.251 OA
BRANCH  25  27
ATOM     27  O   UNL     1      -9.671   2.763   4.576  0.00  0.00    -0.465 OA
BRANCH  27  29
ATOM     28  C   UNL     1     -11.869   2.420   5.566  0.00  0.00    +0.048 C 
ATOM     29  C   UNL     1     -10.399   1.995   5.570  0.00  0.00    +0.229 C 
ENDBRANCH  27  29
ENDBRANCH  25  27
ENDBRANCH  18  25
ENDBRANCH   1  23
BRANCH   1  30
ATOM     30  C   UNL     1      -5.597   3.494  -1.299  0.00  0.00    +0.143 A 
ATOM     31  N   UNL     1      -6.061   2.331  -1.688  0.00  0.00    -0.115 NA
ATOM     32  N   UNL     1      -6.489   2.458  -2.896  0.00  0.00    -0.023 NA
ATOM     33  N   UNL     1      -6.302   3.668  -3.291  0.00  0.00    -0.044 NA
ATOM     34  N   UNL     1      -5.755   4.338  -2.334  0.00  0.00    -0.227 N 
BRANCH  34  35
ATOM     35  C   UNL     1      -5.375   5.753  -2.369  0.00  0.00    +0.111 C 
ATOM     36  C   UNL     1      -6.609   6.624  -2.684  0.00  0.00    +0.027 C 
ATOM     37  C   UNL     1      -6.055   7.753  -3.589  0.00  0.00    +0.002 C 
ATOM     38  C   UNL     1      -5.014   7.011  -4.464  0.00  0.00    +0.002 C 
ATOM     39  C   UNL     1      -4.361   5.999  -3.500  0.00  0.00    +0.027 C 
ENDBRANCH  34  35
ENDBRANCH   1  30
TORSDOF 9
