REMARK  Name = ZINC01410784
REMARK  6 active torsions:
REMARK  status: ('A' for Active; 'I' for Inactive)
REMARK    1  A    between atoms: C_3  and  O_15
REMARK    2  A    between atoms: C_6  and  C_7
REMARK    3  A    between atoms: C_8  and  C_9
REMARK    4  A    between atoms: C_8  and  C_11
REMARK    5  A    between atoms: O_15  and  C_16
REMARK    6  A    between atoms: C_16  and  C_17
REMARK                            x       y       z     vdW  Elec       q    Type
REMARK                         _______ _______ _______ _____ _____    ______ ____
ROOT
ATOM      1  C   UNL     1      -5.697  -1.592   0.188  0.00  0.00    +0.011 A 
ATOM      2  C   UNL     1      -4.623  -0.733   0.227  0.00  0.00    +0.047 A 
ATOM      3  C   UNL     1      -3.328  -1.228   0.115  0.00  0.00    +0.135 A 
ATOM      4  C   UNL     1      -3.109  -2.595  -0.027  0.00  0.00    +0.060 A 
ATOM      5  C   UNL     1      -4.175  -3.465  -0.061  0.00  0.00    +0.027 A 
ATOM      6  C   UNL     1      -5.483  -2.971   0.046  0.00  0.00    -0.022 A 
ATOM      7 BR   UNL     1      -1.345  -3.259  -0.172  0.00  0.00    -0.046 Br
ENDROOT
BRANCH   6   8
ATOM      8  C   UNL     1      -6.622  -3.891   0.010  0.00  0.00    +0.032 C 
ATOM      9  C   UNL     1      -7.835  -3.466  -0.486  0.00  0.00    +0.114 C 
BRANCH   9  10
ATOM     10  C   UNL     1      -9.017  -4.338  -0.386  0.00  0.00    +0.252 C 
ATOM     11  O   UNL     1      -8.922  -5.433   0.135  0.00  0.00    -0.270 OA
ATOM     12  N   UNL     1     -10.203  -3.922  -0.871  0.00  0.00    -0.325 N 
ATOM     13  H   UNL     1     -11.087  -4.574  -0.796  0.00  0.00    +0.145 HD
ATOM     14  H   UNL     1     -10.289  -2.932  -1.343  0.00  0.00    +0.145 HD
ENDBRANCH   9  10
BRANCH   9  15
ATOM     15  C   UNL     1      -7.947  -2.177  -1.100  0.00  0.00    +0.104 C 
ATOM     16  N   UNL     1      -8.035  -1.155  -1.587  0.00  0.00    -0.191 NA
ENDBRANCH   9  15
ENDBRANCH   6   8
BRANCH   3  17
ATOM     17  O   UNL     1      -2.273  -0.375   0.148  0.00  0.00    -0.486 OA
BRANCH  17  18
ATOM     18  C   UNL     1      -2.568   1.016   0.295  0.00  0.00    +0.266 C 
BRANCH  18  19
ATOM     19  C   UNL     1      -1.282   1.802   0.312  0.00  0.00    +0.008 A 
ATOM     20  C   UNL     1      -0.070   1.148   0.194  0.00  0.00    +0.010 A 
ATOM     21  C   UNL     1       1.108   1.870   0.203  0.00  0.00    +0.020 A 
ATOM     22  C   UNL     1       1.076   3.247   0.337  0.00  0.00    +0.042 A 
ATOM     23  C   UNL     1      -0.136   3.901   0.460  0.00  0.00    +0.040 A 
ATOM     24  C   UNL     1      -1.316   3.178   0.451  0.00  0.00    +0.049 A 
ATOM     25 CL   UNL     1      -2.838   3.999   0.606  0.00  0.00    -0.083 Cl
ATOM     26 CL   UNL     1       2.557   4.153   0.349  0.00  0.00    -0.083 Cl
ENDBRANCH  18  19
ENDBRANCH  17  18
ENDBRANCH   3  17
TORSDOF 6
