REMARK  Name = ZINC04678383
REMARK  3 active torsions:
REMARK  status: ('A' for Active; 'I' for Inactive)
REMARK    1  A    between atoms: C_1  and  N_2
REMARK    2  A    between atoms: C_3  and  C_17
REMARK    3  A    between atoms: C_8  and  C_10
REMARK                            x       y       z     vdW  Elec       q    Type
REMARK                         _______ _______ _______ _____ _____    ______ ____
ROOT
ATOM      1  C   UNL     1       2.573  -3.691   0.566  0.00  0.00    +0.152 C 
ATOM      2  N   UNL     1       1.194  -3.316   0.244  0.00  0.00    -0.312 N 
ATOM      3  C   UNL     1       0.102  -4.174   0.191  0.00  0.00    +0.068 A 
ATOM      4  C   UNL     1      -0.981  -3.451  -0.137  0.00  0.00    +0.120 A 
ATOM      5  N   UNL     1      -0.595  -2.133  -0.294  0.00  0.00    -0.290 N 
ATOM      6  C   UNL     1       0.745  -2.050  -0.059  0.00  0.00    +0.216 A 
ATOM      7  N   UNL     1       1.119  -0.797  -0.208  0.00  0.00    -0.212 NA
ATOM      8  C   UNL     1       0.046  -0.049  -0.538  0.00  0.00    +0.091 A 
ATOM      9  C   UNL     1      -1.037  -0.867  -0.591  0.00  0.00    +0.122 A 
ENDROOT
BRANCH   8  10
ATOM     10  C   UNL     1       0.048   1.412  -0.793  0.00  0.00    +0.002 A 
ATOM     11  C   UNL     1      -1.137   2.064  -1.132  0.00  0.00    +0.011 A 
ATOM     12  C   UNL     1      -1.131   3.425  -1.363  0.00  0.00    +0.016 A 
ATOM     13  C   UNL     1       0.050   4.140  -1.268  0.00  0.00    +0.018 A 
ATOM     14  C   UNL     1       1.230   3.497  -0.937  0.00  0.00    +0.016 A 
ATOM     15  C   UNL     1       1.234   2.137  -0.699  0.00  0.00    +0.011 A 
ATOM     16 BR   UNL     1       0.052   6.003  -1.592  0.00  0.00    -0.050 Br
ENDBRANCH   8  10
BRANCH   3  17
ATOM     17  C   UNL     1       0.128  -5.631   0.450  0.00  0.00    +0.000 A 
ATOM     18  C   UNL     1       1.175  -6.193   1.181  0.00  0.00    +0.011 A 
ATOM     19  C   UNL     1       1.192  -7.551   1.423  0.00  0.00    +0.020 A 
ATOM     20  C   UNL     1       0.178  -8.357   0.934  0.00  0.00    +0.041 A 
ATOM     21  C   UNL     1      -0.861  -7.805   0.204  0.00  0.00    +0.020 A 
ATOM     22  C   UNL     1      -0.891  -6.448  -0.041  0.00  0.00    +0.011 A 
ATOM     23 CL   UNL     1       0.209 -10.066   1.237  0.00  0.00    -0.084 Cl
ENDBRANCH   3  17
TORSDOF 2
