REMARK  Name = ZINC14584779
REMARK  7 active torsions:
REMARK  status: ('A' for Active; 'I' for Inactive)
REMARK    1  A    between atoms: C_1  and  C_2
REMARK    2  A    between atoms: C_2  and  N_3
REMARK    3  A    between atoms: N_3  and  C_4
REMARK    4  A    between atoms: C_5  and  N_20
REMARK    5  A    between atoms: N_6  and  C_13
REMARK    6  A    between atoms: C_13  and  C_14
REMARK    7  A    between atoms: C_21  and  C_23
REMARK                            x       y       z     vdW  Elec       q    Type
REMARK                         _______ _______ _______ _____ _____    ______ ____
ROOT
ATOM      1  C   UNL     1       1.746   0.438  -0.095  0.00  0.00    +0.140 A 
ATOM      2  C   UNL     1       1.295  -0.849   0.117  0.00  0.00    +0.128 A 
ATOM      3  N   UNL     1       2.194  -1.889   0.081  0.00  0.00    -0.276 N 
ATOM      4  C   UNL     1       3.498  -1.655  -0.148  0.00  0.00    +0.331 A 
ATOM      5  O   UNL     1       4.278  -2.588  -0.171  0.00  0.00    -0.246 OA
ATOM      6  N   UNL     1       3.957  -0.407  -0.351  0.00  0.00    -0.273 N 
ATOM      7  H   UNL     1       4.932  -0.260  -0.519  0.00  0.00    +0.173 HD
ATOM      8  C   UNL     1       3.118   0.647  -0.331  0.00  0.00    +0.277 A 
ATOM      9  O   UNL     1       3.544   1.774  -0.517  0.00  0.00    -0.266 OA
ENDROOT
BRANCH   1  10
ATOM     10  N   UNL     1       0.849   1.526  -0.069  0.00  0.00    -0.260 N 
ATOM     11  C   UNL     1       0.252   1.880   1.086  0.00  0.00    +0.252 C 
ATOM     12  O   UNL     1      -0.443   2.877   1.131  0.00  0.00    -0.270 OA
BRANCH  11  13
ATOM     13  C   UNL     1       0.446   1.060   2.299  0.00  0.00    +0.056 A 
ATOM     14  C   UNL     1       1.627   0.336   2.475  0.00  0.00    +0.016 A 
ATOM     15  C   UNL     1       1.803  -0.428   3.609  0.00  0.00    +0.021 A 
ATOM     16  C   UNL     1       0.810  -0.479   4.574  0.00  0.00    +0.042 A 
ATOM     17  C   UNL     1      -0.364   0.235   4.407  0.00  0.00    +0.040 A 
ATOM     18  C   UNL     1      -0.549   1.009   3.279  0.00  0.00    +0.054 A 
ATOM     19 CL   UNL     1      -2.018   1.911   3.074  0.00  0.00    -0.083 Cl
ATOM     20 CL   UNL     1       1.039  -1.444   5.999  0.00  0.00    -0.083 Cl
ENDBRANCH  11  13
BRANCH  10  22
ATOM     21  C   UNL     1       1.454   3.516  -1.355  0.00  0.00    +0.025 C 
ATOM     22  C   UNL     1       0.566   2.272  -1.298  0.00  0.00    +0.111 C 
ENDBRANCH  10  22
ENDBRANCH   1  10
BRANCH   2  23
ATOM     23  N   UNL     1      -0.037  -1.088   0.356  0.00  0.00    -0.343 N 
ATOM     24  H   UNL     1      -0.677  -0.361   0.307  0.00  0.00    +0.144 HD
ATOM     25  H   UNL     1      -0.337  -1.984   0.574  0.00  0.00    +0.144 HD
ENDBRANCH   2  23
BRANCH   3  26
ATOM     26  C   UNL     1       1.728  -3.261   0.300  0.00  0.00    +0.163 C 
BRANCH  26  27
ATOM     27  C   UNL     1       1.787  -3.583   1.771  0.00  0.00    -0.028 A 
ATOM     28  C   UNL     1       2.932  -4.137   2.312  0.00  0.00    +0.005 A 
ATOM     29  C   UNL     1       2.988  -4.428   3.662  0.00  0.00    +0.000 A 
ATOM     30  C   UNL     1       1.895  -4.175   4.470  0.00  0.00    +0.000 A 
ATOM     31  C   UNL     1       0.748  -3.625   3.928  0.00  0.00    +0.000 A 
ATOM     32  C   UNL     1       0.694  -3.329   2.579  0.00  0.00    +0.005 A 
ENDBRANCH  26  27
ENDBRANCH   3  26
TORSDOF 6
