REMARK  Name = ZINC20710641
REMARK  8 active torsions:
REMARK  status: ('A' for Active; 'I' for Inactive)
REMARK    1  A    between atoms: C_4  and  C_7
REMARK    2  A    between atoms: C_7  and  C_8
REMARK    3  A    between atoms: C_8  and  N_9
REMARK    4  A    between atoms: C_10  and  C_12
REMARK    5  A    between atoms: C_19  and  C_28
REMARK    6  A    between atoms: C_33  and  O_34
REMARK    7  A    between atoms: O_34  and  C_35
REMARK    8  A    between atoms: C_35  and  C_36
REMARK                            x       y       z     vdW  Elec       q    Type
REMARK                         _______ _______ _______ _____ _____    ______ ____
ROOT
ATOM      1  C   UNL     1       2.208   0.957   0.893  0.00  0.00    +0.058 A 
ATOM      2  C   UNL     1       3.514   1.441   0.947  0.00  0.00    +0.015 A 
ATOM      3  C   UNL     1       3.901   2.475   0.124  0.00  0.00    +0.001 A 
ATOM      4  C   UNL     1       2.992   3.027  -0.764  0.00  0.00    +0.006 A 
ATOM      5  C   UNL     1       1.700   2.555  -0.838  0.00  0.00    -0.019 A 
ATOM      6  C   UNL     1       1.274   1.519  -0.002  0.00  0.00    +0.044 A 
ATOM      7  N   UNL     1      -0.012   1.005   0.008  0.00  0.00    -0.336 N 
ATOM      8  C   UNL     1      -0.944   1.525  -1.005  0.00  0.00    +0.108 C 
ATOM      9  C   UNL     1      -0.678   3.011  -1.135  0.00  0.00    +0.029 C 
ATOM     10  C   UNL     1       0.727   3.101  -1.809  0.00  0.00    +0.049 C 
ATOM     11  C   UNL     1       0.778   4.501  -2.296  0.00  0.00    -0.023 C 
ATOM     12  C   UNL     1      -0.463   4.905  -2.547  0.00  0.00    -0.030 C 
ATOM     13  C   UNL     1      -1.455   3.791  -2.201  0.00  0.00    +0.033 C 
ATOM     14  H   UNL     1      -0.349   0.243   0.726  0.00  0.00    +0.147 HD
ENDROOT
BRANCH   8  15
ATOM     15  C   UNL     1      -0.700   0.843  -2.326  0.00  0.00    +0.015 A 
ATOM     16  C   UNL     1       0.508   0.217  -2.569  0.00  0.00    +0.009 A 
ATOM     17  C   UNL     1       0.731  -0.413  -3.779  0.00  0.00    +0.001 A 
ATOM     18  C   UNL     1      -0.251  -0.410  -4.754  0.00  0.00    +0.004 A 
ATOM     19  C   UNL     1      -1.458   0.218  -4.518  0.00  0.00    +0.046 A 
ATOM     20  C   UNL     1      -1.686   0.847  -3.302  0.00  0.00    +0.126 A 
BRANCH  20  21
ATOM     21  O   UNL     1      -2.873   1.466  -3.068  0.00  0.00    -0.487 OA
BRANCH  21  22
ATOM     22  C   UNL     1      -3.841   1.430  -4.118  0.00  0.00    +0.264 C 
BRANCH  22  23
ATOM     23  C   UNL     1      -5.084   2.162  -3.680  0.00  0.00    -0.010 A 
ATOM     24  C   UNL     1      -6.100   1.478  -3.040  0.00  0.00    +0.007 A 
ATOM     25  C   UNL     1      -7.238   2.150  -2.635  0.00  0.00    +0.000 A 
ATOM     26  C   UNL     1      -7.363   3.505  -2.878  0.00  0.00    +0.000 A 
ATOM     27  C   UNL     1      -6.349   4.189  -3.523  0.00  0.00    +0.000 A 
ATOM     28  C   UNL     1      -5.210   3.517  -3.924  0.00  0.00    +0.007 A 
ENDBRANCH  22  23
ENDBRANCH  21  22
ENDBRANCH  20  21
ENDBRANCH   8  15
BRANCH   1  30
ATOM     29  N   UNL     1       2.688  -0.688   2.637  0.00  0.00    -0.311 N 
ATOM     30  C   UNL     1       1.799  -0.148   1.780  0.00  0.00    +0.246 C 
ATOM     31  O   UNL     1       0.661  -0.573   1.737  0.00  0.00    -0.270 OA
ATOM     32  H   UNL     1       3.718  -0.304   2.676  0.00  0.00    +0.149 HD
BRANCH  29  33
ATOM     33  C   UNL     1       2.282  -1.786   3.518  0.00  0.00    +0.109 C 
BRANCH  33  34
ATOM     34  C   UNL     1       3.470  -2.211   4.383  0.00  0.00    +0.054 C 
BRANCH  34  38
ATOM     35  C   UNL     1       2.287  -5.414   6.951  0.00  0.00    +0.000 A 
ATOM     36  C   UNL     1       2.805  -5.687   5.699  0.00  0.00    +0.000 A 
ATOM     37  C   UNL     1       3.188  -4.651   4.868  0.00  0.00    +0.004 A 
ATOM     38  C   UNL     1       3.052  -3.341   5.289  0.00  0.00    -0.046 A 
ATOM     39  C   UNL     1       2.539  -3.068   6.543  0.00  0.00    +0.004 A 
ATOM     40  C   UNL     1       2.152  -4.104   7.372  0.00  0.00    +0.000 A 
ENDBRANCH  34  38
ENDBRANCH  33  34
ENDBRANCH  29  33
ENDBRANCH   1  30
TORSDOF 8
