REMARK  Name = ZINC35379255
REMARK  7 active torsions:
REMARK  status: ('A' for Active; 'I' for Inactive)
REMARK    1  A    between atoms: C_1  and  C_2
REMARK    2  A    between atoms: C_2  and  C_3
REMARK    3  A    between atoms: C_10  and  C_34
REMARK    4  A    between atoms: C_11  and  S_15
REMARK    5  A    between atoms: S_15  and  N_18
REMARK    6  A    between atoms: C_22  and  C_25
REMARK    7  A    between atoms: N_27  and  C_28
REMARK                            x       y       z     vdW  Elec       q    Type
REMARK                         _______ _______ _______ _____ _____    ______ ____
ROOT
ATOM      1  S   UNL     1      -1.703  -0.595   6.457  0.00  0.00    +0.061 S 
ATOM      2  O   UNL     1      -0.562  -0.812   7.277  0.00  0.00    -0.153 OA
ATOM      3  O   UNL     1      -2.211   0.705   6.188  0.00  0.00    -0.153 OA
ENDROOT
BRANCH   1  11
ATOM      4  C   UNL     1       1.314  -4.299   2.349  0.00  0.00    +0.259 C 
ATOM      5  C   UNL     1       0.539  -3.925   1.111  0.00  0.00    +0.258 C 
ATOM      6  O   UNL     1       0.865  -4.370   0.031  0.00  0.00    -0.271 OA
ATOM      7  N   UNL     1      -0.518  -3.092   1.209  0.00  0.00    -0.280 N 
ATOM      8  C   UNL     1      -0.801  -2.489   2.442  0.00  0.00    +0.076 A 
ATOM      9  C   UNL     1      -1.997  -1.816   2.640  0.00  0.00    +0.032 A 
ATOM     10  C   UNL     1      -2.267  -1.238   3.866  0.00  0.00    -0.022 A 
ATOM     11  C   UNL     1      -1.348  -1.329   4.895  0.00  0.00    +0.112 A 
ATOM     12  C   UNL     1      -0.151  -1.995   4.703  0.00  0.00    +0.076 A 
ATOM     13  C   UNL     1       0.129  -2.571   3.476  0.00  0.00    +0.145 A 
ATOM     14  O   UNL     1       1.315  -3.201   3.265  0.00  0.00    -0.478 OA
ATOM     15  C   UNL     1      -3.566  -0.505   4.082  0.00  0.00    +0.046 C 
ATOM     16  H   UNL     1      -1.076  -2.913   0.436  0.00  0.00    +0.155 HD
BRANCH   4  18
ATOM     17  C   UNL     1       1.516  -5.972   4.194  0.00  0.00    +0.008 C 
ATOM     18  C   UNL     1       0.661  -5.514   3.011  0.00  0.00    +0.051 C 
ENDBRANCH   4  18
ENDBRANCH   1  11
BRANCH   1  19
ATOM     19  N   UNL     1      -2.943  -1.458   7.133  0.00  0.00    -0.176 NA
ATOM     20  C   UNL     1      -4.338  -1.032   6.951  0.00  0.00    +0.109 C 
ATOM     21  C   UNL     1      -5.144  -2.210   6.396  0.00  0.00    +0.018 C 
ATOM     22  C   UNL     1      -4.972  -3.421   7.317  0.00  0.00    +0.015 C 
ATOM     23  C   UNL     1      -3.496  -3.824   7.361  0.00  0.00    +0.091 C 
ATOM     24  C   UNL     1      -2.671  -2.667   7.922  0.00  0.00    +0.122 C 
BRANCH  23  25
ATOM     25  C   UNL     1      -3.332  -5.035   8.242  0.00  0.00    +0.218 C 
ATOM     26  O   UNL     1      -2.623  -4.980   9.224  0.00  0.00    -0.275 OA
ATOM     27  N   UNL     1      -3.973  -6.181   7.937  0.00  0.00    -0.312 N 
ATOM     28  H   UNL     1      -4.540  -6.226   7.152  0.00  0.00    +0.149 HD
BRANCH  27  29
ATOM     29  C   UNL     1      -3.813  -7.359   8.793  0.00  0.00    +0.073 C 
ATOM     30  C   UNL     1      -2.555  -8.125   8.378  0.00  0.00    +0.022 C 
ATOM     31  C   UNL     1      -2.389  -9.355   9.272  0.00  0.00    +0.002 C 
ATOM     32  C   UNL     1      -3.611 -10.264   9.123  0.00  0.00    +0.000 C 
ATOM     33  C   UNL     1      -4.869  -9.498   9.538  0.00  0.00    +0.002 C 
ATOM     34  C   UNL     1      -5.035  -8.268   8.644  0.00  0.00    +0.022 C 
ENDBRANCH  27  29
ENDBRANCH  23  25
ENDBRANCH   1  19
TORSDOF 5
