REMARK  Name = ZINC63372598
REMARK  8 active torsions:
REMARK  status: ('A' for Active; 'I' for Inactive)
REMARK    1  A    between atoms: C_1  and  C_2
REMARK    2  A    between atoms: C_2  and  C_3
REMARK    3  A    between atoms: C_2  and  C_4
REMARK    4  A    between atoms: C_4  and  C_6
REMARK    5  A    between atoms: C_4  and  N_16
REMARK    6  A    between atoms: N_8  and  C_9
REMARK    7  A    between atoms: C_9  and  C_10
REMARK    8  A    between atoms: C_19  and  C_35
REMARK                            x       y       z     vdW  Elec       q    Type
REMARK                         _______ _______ _______ _____ _____    ______ ____
ROOT
ATOM      1  N   UNL     1      -1.753  -0.433   1.484  0.00  0.00    -0.212 N 
ATOM      2  C   UNL     1      -2.796   0.325   1.881  0.00  0.00    +0.249 C 
ATOM      3  O   UNL     1      -3.561   0.945   1.174  0.00  0.00    -0.273 OA
ATOM      4  C   UNL     1      -2.816   0.238   3.392  0.00  0.00    +0.136 C 
ATOM      5  C   UNL     1      -2.604   1.629   4.001  0.00  0.00    +0.139 C 
ATOM      6  C   UNL     1      -2.095   1.406   5.420  0.00  0.00    -0.034 C 
ATOM      7  C   UNL     1      -2.950   2.029   6.226  0.00  0.00    -0.001 A 
ATOM      8  C   UNL     1      -2.957   2.216   7.686  0.00  0.00    +0.010 A 
ATOM      9  C   UNL     1      -4.009   2.910   8.195  0.00  0.00    +0.001 A 
ATOM     10  C   UNL     1      -5.042   3.428   7.409  0.00  0.00    +0.002 A 
ATOM     11  C   UNL     1      -5.114   3.307   6.059  0.00  0.00    +0.026 A 
ATOM     12  C   UNL     1      -4.062   2.600   5.407  0.00  0.00    +0.043 A 
ATOM     13  N   UNL     1      -3.872   2.353   4.133  0.00  0.00    -0.375 N 
ATOM     14  C   UNL     1      -0.884   0.565   5.742  0.00  0.00    +0.052 C 
ATOM     15  C   UNL     1      -1.078  -0.797   5.046  0.00  0.00    +0.115 C 
ATOM     16  N   UNL     1      -1.603  -0.553   3.700  0.00  0.00    -0.269 N 
ATOM     17  C   UNL     1      -1.097  -0.957   2.527  0.00  0.00    +0.313 C 
ATOM     18  O   UNL     1      -0.148  -1.709   2.422  0.00  0.00    -0.252 OA
ATOM     19  C   UNL     1      -4.088  -0.435   3.910  0.00  0.00    +0.044 C 
ATOM     20  H   UNL     1      -4.462   2.599   3.403  0.00  0.00    +0.160 HD
ENDROOT
BRANCH   1  21
ATOM     21  C   UNL     1      -1.387  -0.660   0.084  0.00  0.00    +0.174 C 
BRANCH  21  22
ATOM     22  C   UNL     1      -0.940   0.639  -0.536  0.00  0.00    +0.235 C 
ATOM     23  O   UNL     1      -1.242   1.694  -0.018  0.00  0.00    -0.274 OA
ATOM     24  N   UNL     1      -0.205   0.630  -1.665  0.00  0.00    -0.310 N 
ATOM     25  H   UNL     1      -0.028  -0.208  -2.122  0.00  0.00    +0.149 HD
BRANCH  24  26
ATOM     26  C   UNL     1       0.328   1.884  -2.203  0.00  0.00    +0.139 C 
BRANCH  26  27
ATOM     27  C   UNL     1       1.108   1.600  -3.461  0.00  0.00    -0.030 A 
ATOM     28  C   UNL     1       2.459   1.320  -3.388  0.00  0.00    +0.005 A 
ATOM     29  C   UNL     1       3.175   1.059  -4.542  0.00  0.00    +0.000 A 
ATOM     30  C   UNL     1       2.538   1.078  -5.769  0.00  0.00    +0.000 A 
ATOM     31  C   UNL     1       1.186   1.357  -5.842  0.00  0.00    +0.000 A 
ATOM     32  C   UNL     1       0.470   1.614  -4.687  0.00  0.00    +0.005 A 
ENDBRANCH  26  27
ENDBRANCH  24  26
ENDBRANCH  21  22
BRANCH  21  34
ATOM     33  C   UNL     1      -2.189  -1.538  -2.114  0.00  0.00    +0.009 C 
ATOM     34  C   UNL     1      -2.599  -1.198  -0.680  0.00  0.00    +0.013 C 
ATOM     35  C   UNL     1      -3.119  -2.459   0.014  0.00  0.00    +0.009 C 
ENDBRANCH  21  34
ENDBRANCH   1  21
TORSDOF 5
