REMARK  Name = ZINC39972140
REMARK  12 active torsions:
REMARK  status: ('A' for Active; 'I' for Inactive)
REMARK    1  A    between atoms: C_1  and  C_2
REMARK    2  A    between atoms: C_2  and  O_3
REMARK    3  A    between atoms: O_3  and  C_4
REMARK    4  A    between atoms: C_4  and  C_6
REMARK    5  A    between atoms: C_10  and  N_11
REMARK    6  A    between atoms: C_12  and  C_14
REMARK    7  A    between atoms: C_14  and  N_15
REMARK    8  A    between atoms: N_18  and  C_21
REMARK    9  A    between atoms: C_21  and  C_22
REMARK   10  A    between atoms: C_25  and  S_28
REMARK   11  A    between atoms: S_28  and  C_29
REMARK   12  A    between atoms: C_31  and  C_35
REMARK                            x       y       z     vdW  Elec       q    Type
REMARK                         _______ _______ _______ _____ _____    ______ ____
ROOT
ATOM      1  N   UNL     1       3.744  -2.425   1.392  0.00  0.00    -0.278 N 
ATOM      2  C   UNL     1       5.047  -2.735   1.540  0.00  0.00    +0.232 C 
ATOM      3  O   UNL     1       5.445  -3.193   2.591  0.00  0.00    -0.274 OA
ATOM      4  H   UNL     1       3.425  -2.059   0.552  0.00  0.00    +0.155 HD
ENDROOT
BRANCH   1   9
ATOM      5  C   UNL     1       1.496  -2.371   2.467  0.00  0.00    +0.091 A 
ATOM      6  C   UNL     1       0.787  -2.682   3.696  0.00  0.00    -0.021 A 
ATOM      7  C   UNL     1       1.570  -3.189   4.673  0.00  0.00    -0.004 A 
ATOM      8  S   UNL     1       3.191  -3.243   3.966  0.00  0.00    -0.077 S 
ATOM      9  C   UNL     1       2.859  -2.629   2.439  0.00  0.00    +0.086 A 
ATOM     10  C   UNL     1       1.139  -3.607   6.045  0.00  0.00    +0.046 C 
ATOM     11  C   UNL     1      -0.392  -3.728   6.053  0.00  0.00    -0.009 C 
ATOM     12  C   UNL     1      -0.992  -2.474   5.412  0.00  0.00    +0.008 C 
ATOM     13  C   UNL     1      -0.705  -2.471   3.908  0.00  0.00    +0.037 C 
ATOM     14  C   UNL     1      -0.887  -3.856   7.495  0.00  0.00    +0.008 C 
BRANCH   5  15
ATOM     15  C   UNL     1       0.801  -1.814   1.305  0.00  0.00    +0.342 C 
ATOM     16  O   UNL     1       0.321  -2.557   0.470  0.00  0.00    -0.245 OA
BRANCH  15  17
ATOM     17  O   UNL     1       0.693  -0.477   1.160  0.00  0.00    -0.461 OA
BRANCH  17  19
ATOM     18  C   UNL     1      -0.019   1.526   0.010  0.00  0.00    +0.048 C 
ATOM     19  C   UNL     1       0.002  -0.004   0.002  0.00  0.00    +0.229 C 
ENDBRANCH  17  19
ENDBRANCH  15  17
ENDBRANCH   5  15
ENDBRANCH   1   9
BRANCH   2  20
ATOM     20  C   UNL     1       6.009  -2.513   0.402  0.00  0.00    +0.180 C 
BRANCH  20  21
ATOM     21  N   UNL     1       7.357  -2.927   0.812  0.00  0.00    -0.298 NA
ATOM     22  C   UNL     1       7.875  -2.055   1.876  0.00  0.00    +0.066 C 
ATOM     23  C   UNL     1       9.253  -2.554   2.315  0.00  0.00    -0.063 C 
ATOM     24  N   UNL     1      10.166  -2.548   1.165  0.00  0.00    +0.384 N 
ATOM     25  C   UNL     1       9.649  -3.442   0.121  0.00  0.00    -0.063 C 
ATOM     26  C   UNL     1       8.274  -2.950  -0.336  0.00  0.00    +0.066 C 
ATOM     27  H   UNL     1      10.239  -1.610   0.798  0.00  0.00    -0.081 HD
BRANCH  24  28
ATOM     28  C   UNL     1      11.494  -3.010   1.591  0.00  0.00    -0.043 C 
BRANCH  28  29
ATOM     29  C   UNL     1      12.461  -2.888   0.443  0.00  0.00    -0.064 A 
ATOM     30  C   UNL     1      12.625  -3.942  -0.437  0.00  0.00    +0.003 A 
ATOM     31  C   UNL     1      13.511  -3.834  -1.490  0.00  0.00    +0.015 A 
ATOM     32  C   UNL     1      14.239  -2.663  -1.667  0.00  0.00    +0.008 A 
ATOM     33  C   UNL     1      14.071  -1.605  -0.781  0.00  0.00    +0.015 A 
ATOM     34  C   UNL     1      13.179  -1.718   0.267  0.00  0.00    +0.003 A 
BRANCH  32  35
ATOM     35  S   UNL     1      15.371  -2.520  -3.009  0.00  0.00    -0.129 S 
ATOM     36  C   UNL     1      16.062  -0.853  -2.825  0.00  0.00    +0.090 C 
ENDBRANCH  32  35
ENDBRANCH  28  29
ENDBRANCH  24  28
ENDBRANCH  20  21
ENDBRANCH   2  20
TORSDOF 9
