REMARK  Name = ZINC67102169
REMARK  5 active torsions:
REMARK  status: ('A' for Active; 'I' for Inactive)
REMARK    1  A    between atoms: C_1  and  C_2
REMARK    2  A    between atoms: C_6  and  C_7
REMARK    3  A    between atoms: N_9  and  N_10
REMARK    4  A    between atoms: C_21  and  C_24
REMARK    5  A    between atoms: C_21  and  C_25
REMARK                            x       y       z     vdW  Elec       q    Type
REMARK                         _______ _______ _______ _____ _____    ______ ____
ROOT
ATOM      1  N   UNL     1       0.090  -1.198   7.187  0.00  0.00    -0.218 N 
ATOM      2  C   UNL     1      -0.021  -1.627   5.915  0.00  0.00    +0.319 C 
ATOM      3  O   UNL     1      -0.045  -0.824   5.002  0.00  0.00    -0.251 OA
ATOM      4  N   UNL     1      -0.108  -2.947   5.654  0.00  0.00    -0.284 N 
ATOM      5  C   UNL     1      -0.110  -3.438   4.269  0.00  0.00    +0.114 C 
ATOM      6  C   UNL     1       0.992  -4.492   4.118  0.00  0.00    +0.084 C 
ATOM      7  C   UNL     1       0.796  -5.583   5.172  0.00  0.00    +0.173 C 
ATOM      8  C   UNL     1       0.901  -4.971   6.570  0.00  0.00    +0.084 C 
ATOM      9  C   UNL     1      -0.195  -3.922   6.749  0.00  0.00    +0.114 C 
ATOM     10  O   UNL     1       1.807  -6.583   5.015  0.00  0.00    -0.348 OA
ATOM     11  C   UNL     1       1.775  -7.241   3.745  0.00  0.00    +0.172 C 
ATOM     12  C   UNL     1       0.397  -7.884   3.553  0.00  0.00    +0.012 C 
ATOM     13  C   UNL     1      -0.680  -6.810   3.738  0.00  0.00    +0.172 C 
ATOM     14  O   UNL     1      -0.493  -6.179   5.008  0.00  0.00    -0.348 OA
ATOM     15  C   UNL     1       0.200  -8.993   4.588  0.00  0.00    +0.015 C 
ATOM     16  C   UNL     1       0.298  -8.472   2.143  0.00  0.00    +0.015 C 
ATOM     17  H   UNL     1       0.184  -1.839   7.909  0.00  0.00    +0.174 HD
ENDROOT
BRANCH   1  20
ATOM     18  C   UNL     1       0.082   0.602   8.746  0.00  0.00    +0.267 C 
ATOM     19  O   UNL     1       0.107  -0.205   9.656  0.00  0.00    -0.268 OA
ATOM     20  N   UNL     1       0.072   0.175   7.467  0.00  0.00    -0.229 N 
ATOM     21  H   UNL     1       0.052   0.818   6.741  0.00  0.00    +0.173 HD
BRANCH  18  27
ATOM     22  C   UNL     1       0.098   1.918  11.569  0.00  0.00    +0.045 C 
ATOM     23  C   UNL     1       0.068   2.679  10.268  0.00  0.00    -0.031 A 
ATOM     24  C   UNL     1       0.051   4.053  10.226  0.00  0.00    +0.011 A 
ATOM     25  C   UNL     1       0.025   4.674   9.021  0.00  0.00    +0.046 A 
ATOM     26  S   UNL     1       0.023   3.415   7.908  0.00  0.00    -0.092 S 
ATOM     27  C   UNL     1       0.062   2.038   9.039  0.00  0.00    +0.078 A 
ENDBRANCH  18  27
ENDBRANCH   1  20
TORSDOF 2
