REMARK  Name = ZINC00066984
REMARK  1 active torsions:
REMARK  status: ('A' for Active; 'I' for Inactive)
REMARK    1  A    between atoms: C_3  and  C_9
REMARK                            x       y       z     vdW  Elec       q    Type
REMARK                         _______ _______ _______ _____ _____    ______ ____
ROOT
ATOM      1  C   UNL     1       3.671   2.185  -0.023  0.00  0.00    +0.177 C 
ATOM      2  C   UNL     1       3.752   3.045   1.220  0.00  0.00    +0.041 C 
ATOM      3  C   UNL     1       3.585   4.384   1.178  0.00  0.00    +0.020 C 
ATOM      4  C   UNL     1       3.672   5.217   2.436  0.00  0.00    +0.052 C 
ATOM      5  C   UNL     1       3.201   4.391   3.634  0.00  0.00    +0.014 C 
ATOM      6  C   UNL     1       4.083   3.141   3.735  0.00  0.00    +0.080 C 
ATOM      7  C   UNL     1       4.009   2.387   2.436  0.00  0.00    +0.163 C 
ATOM      8  O   UNL     1       4.175   1.183   2.438  0.00  0.00    -0.292 OA
ATOM      9  N   UNL     1       3.338   5.047  -0.000  0.00  0.00    -0.287 N 
ATOM     10  C   UNL     1       3.562   4.369  -1.187  0.00  0.00    +0.218 A 
ATOM     11  N   UNL     1       3.725   3.025  -1.212  0.00  0.00    -0.221 N 
ATOM     12  N   UNL     1       3.935   2.680  -2.546  0.00  0.00    -0.156 NA
ATOM     13  C   UNL     1       3.884   3.792  -3.237  0.00  0.00    +0.247 A 
ATOM     14  N   UNL     1       3.658   4.811  -2.411  0.00  0.00    -0.201 NA
ATOM     15  H   UNL     1       3.016   5.962  -0.000  0.00  0.00    +0.155 HD
ENDROOT
BRANCH   1  18
ATOM     16  C   UNL     1      -0.017   1.379   0.010  0.00  0.00    +0.020 A 
ATOM     17  C   UNL     1       1.171   2.087   0.002  0.00  0.00    +0.009 A 
ATOM     18  C   UNL     1       2.377   1.413  -0.013  0.00  0.00    -0.000 A 
ATOM     19  C   UNL     1       2.397   0.029  -0.021  0.00  0.00    +0.048 A 
ATOM     20  C   UNL     1       1.210  -0.679  -0.013  0.00  0.00    +0.040 A 
ATOM     21  C   UNL     1       0.002  -0.004   0.002  0.00  0.00    +0.042 A 
ATOM     22 CL   UNL     1      -1.489  -0.893   0.012  0.00  0.00    -0.083 Cl
ATOM     23 CL   UNL     1       3.913  -0.817  -0.041  0.00  0.00    -0.083 Cl
ENDBRANCH   1  18
TORSDOF 1
