REMARK  Name = ZINC00351104
REMARK  5 active torsions:
REMARK  status: ('A' for Active; 'I' for Inactive)
REMARK    1  A    between atoms: C_1  and  C_2
REMARK    2  A    between atoms: C_2  and  C_3
REMARK    3  A    between atoms: C_3  and  N_4
REMARK    4  A    between atoms: N_15  and  C_22
REMARK    5  A    between atoms: N_18  and  C_21
REMARK                            x       y       z     vdW  Elec       q    Type
REMARK                         _______ _______ _______ _____ _____    ______ ____
ROOT
ATOM      1  N   UNL     1      -1.883   4.559   3.022  0.00  0.00    -0.306 N 
ATOM      2  C   UNL     1      -1.501   3.297   2.586  0.00  0.00    +0.153 A 
ATOM      3  C   UNL     1      -1.909   2.403   3.569  0.00  0.00    +0.170 A 
ATOM      4  N   UNL     1      -2.502   3.108   4.534  0.00  0.00    -0.196 NA
ATOM      5  C   UNL     1      -2.495   4.389   4.224  0.00  0.00    +0.201 A 
ATOM      6  N   UNL     1      -3.023   5.397   4.997  0.00  0.00    -0.301 N 
ATOM      7  C   UNL     1      -2.324   5.495   6.284  0.00  0.00    +0.108 C 
ATOM      8  C   UNL     1      -2.838   6.714   7.054  0.00  0.00    +0.019 C 
ATOM      9  C   UNL     1      -4.346   6.569   7.281  0.00  0.00    +0.003 C 
ATOM     10  C   UNL     1      -5.045   6.420   5.928  0.00  0.00    +0.019 C 
ATOM     11  C   UNL     1      -4.467   5.210   5.190  0.00  0.00    +0.108 C 
ATOM     12  N   UNL     1      -1.652   1.053   3.392  0.00  0.00    -0.280 N 
ATOM     13  C   UNL     1      -1.018   0.627   2.284  0.00  0.00    +0.333 A 
ATOM     14  O   UNL     1      -0.800  -0.561   2.144  0.00  0.00    -0.246 OA
ATOM     15  N   UNL     1      -0.618   1.483   1.327  0.00  0.00    -0.262 N 
ATOM     16  C   UNL     1      -0.836   2.809   1.447  0.00  0.00    +0.282 A 
ATOM     17  O   UNL     1      -0.465   3.575   0.575  0.00  0.00    -0.265 OA
ATOM     18  C   UNL     1       0.069   0.970   0.140  0.00  0.00    +0.157 C 
ATOM     19  C   UNL     1      -2.071   0.088   4.412  0.00  0.00    +0.155 C 
ENDROOT
BRANCH   1  20
ATOM     20  C   UNL     1      -1.670   5.828   2.322  0.00  0.00    +0.125 C 
BRANCH  20  22
ATOM     21  C   UNL     1      -2.618   7.414   0.640  0.00  0.00    +0.005 C 
ATOM     22  C   UNL     1      -2.840   6.089   1.372  0.00  0.00    +0.018 C 
ENDBRANCH  20  22
ENDBRANCH   1  20
TORSDOF 2
