REMARK  Name = ZINC13076223
REMARK  8 active torsions:
REMARK  status: ('A' for Active; 'I' for Inactive)
REMARK    1  A    between atoms: C_5  and  C_7
REMARK    2  A    between atoms: C_7  and  N_8
REMARK    3  A    between atoms: N_13  and  C_14
REMARK    4  A    between atoms: C_14  and  C_16
REMARK    5  A    between atoms: C_16  and  S_17
REMARK    6  A    between atoms: S_17  and  C_18
REMARK    7  A    between atoms: C_21  and  C_24
REMARK    8  A    between atoms: N_22  and  N_23
REMARK                            x       y       z     vdW  Elec       q    Type
REMARK                         _______ _______ _______ _____ _____    ______ ____
ROOT
ATOM      1  C   UNL     1       5.508  -1.605  -0.057  0.00  0.00    +0.249 C 
ATOM      2  O   UNL     1       6.324  -0.703  -0.060  0.00  0.00    -0.273 OA
ENDROOT
BRANCH   1   8
ATOM      3  N   UNL     1       7.833  -4.366  -0.091  0.00  0.00    -0.324 N 
ATOM      4  C   UNL     1       9.190  -4.418  -0.104  0.00  0.00    +0.095 A 
ATOM      5  C   UNL     1       9.877  -3.271  -0.105  0.00  0.00    +0.066 A 
ATOM      6  S   UNL     1       8.569  -2.057  -0.095  0.00  0.00    -0.061 S 
ATOM      7  C   UNL     1       7.220  -3.149  -0.080  0.00  0.00    +0.166 A 
ATOM      8  N   UNL     1       5.915  -2.868  -0.067  0.00  0.00    -0.156 NA
BRANCH   3   9
ATOM      9  C   UNL     1       7.041  -5.598  -0.090  0.00  0.00    +0.160 C 
BRANCH   9  14
ATOM     10  C   UNL     1       8.250  -7.915  -2.816  0.00  0.00    +0.000 A 
ATOM     11  C   UNL     1       9.187  -8.673  -2.139  0.00  0.00    +0.001 A 
ATOM     12  C   UNL     1       9.430  -8.437  -0.799  0.00  0.00    +0.020 A 
ATOM     13  C   UNL     1       8.735  -7.441  -0.135  0.00  0.00    +0.046 A 
ATOM     14  C   UNL     1       7.798  -6.683  -0.813  0.00  0.00    -0.009 A 
ATOM     15  C   UNL     1       7.552  -6.923  -2.152  0.00  0.00    +0.007 A 
ATOM     16 CL   UNL     1       9.040  -7.145   1.548  0.00  0.00    -0.083 Cl
ENDBRANCH   9  14
ENDBRANCH   3   9
ENDBRANCH   1   8
BRANCH   1  17
ATOM     17  C   UNL     1       4.035  -1.288  -0.042  0.00  0.00    +0.175 C 
BRANCH  17  18
ATOM     18  S   UNL     1       3.804   0.507  -0.031  0.00  0.00    -0.075 S 
BRANCH  18  19
ATOM     19  C   UNL     1       2.044   0.589  -0.014  0.00  0.00    +0.209 A 
ATOM     20  N   UNL     1       1.215  -0.429  -0.012  0.00  0.00    -0.121 NA
ATOM     21  N   UNL     1       0.002  -0.004   0.002  0.00  0.00    -0.123 NA
ATOM     22  C   UNL     1      -0.016   1.299   0.009  0.00  0.00    +0.255 A 
ATOM     23  N   UNL     1       1.284   1.724  -0.001  0.00  0.00    -0.220 N 
BRANCH  22  24
ATOM     24  C   UNL     1      -1.242   2.175   0.020  0.00  0.00    +0.454 C 
ATOM     25  F   UNL     1      -2.360   1.408   0.363  0.00  0.00    -0.163 F 
ATOM     26  F   UNL     1      -1.074   3.200   0.957  0.00  0.00    -0.163 F 
ATOM     27  F   UNL     1      -1.429   2.731  -1.250  0.00  0.00    -0.163 F 
ENDBRANCH  22  24
BRANCH  23  28
ATOM     28  N   UNL     1       1.730   3.015   0.001  0.00  0.00    -0.295 N 
ATOM     29  H   UNL     1       1.857   3.352   0.944  0.00  0.00    +0.163 HD
ATOM     30  H   UNL     1       2.582   3.104  -0.532  0.00  0.00    +0.163 HD
ENDBRANCH  23  28
ENDBRANCH  18  19
ENDBRANCH  17  18
ENDBRANCH   1  17
TORSDOF 8
