REMARK  Name = ZINC58994283
REMARK  12 active torsions:
REMARK  status: ('A' for Active; 'I' for Inactive)
REMARK    1  A    between atoms: C_1  and  C_2
REMARK    2  A    between atoms: C_2  and  O_3
REMARK    3  A    between atoms: O_3  and  C_4
REMARK    4  A    between atoms: C_4  and  C_6
REMARK    5  A    between atoms: C_10  and  N_11
REMARK    6  A    between atoms: C_12  and  C_14
REMARK    7  A    between atoms: C_14  and  S_15
REMARK    8  A    between atoms: S_15  and  C_16
REMARK    9  A    between atoms: N_21  and  N_22
REMARK   10  A    between atoms: C_23  and  C_24
REMARK   11  A    between atoms: C_27  and  O_31
REMARK   12  A    between atoms: C_29  and  O_30
REMARK                            x       y       z     vdW  Elec       q    Type
REMARK                         _______ _______ _______ _____ _____    ______ ____
ROOT
ATOM      1  S   UNL     1       7.674  -3.025   0.908  0.00  0.00    -0.075 S 
ENDROOT
BRANCH   1   2
ATOM      2  C   UNL     1       8.668  -2.709  -0.512  0.00  0.00    +0.211 A 
ATOM      3  N   UNL     1       9.982  -2.939  -0.607  0.00  0.00    -0.186 NA
ATOM      4  C   UNL     1      10.406  -2.589  -1.804  0.00  0.00    +0.232 A 
ATOM      5  N   UNL     1       9.349  -2.123  -2.501  0.00  0.00    -0.245 N 
ATOM      6  N   UNL     1       8.237  -2.215  -1.648  0.00  0.00    -0.144 NA
ATOM      7  N   UNL     1      11.706  -2.683  -2.264  0.00  0.00    -0.205 N 
ATOM      8  H   UNL     1      11.923  -2.399  -3.166  0.00  0.00    +0.177 HD
ATOM      9  H   UNL     1       9.355  -1.792  -3.413  0.00  0.00    +0.192 HD
BRANCH   7  10
ATOM     10  N   UNL     1      12.710  -3.190  -1.429  0.00  0.00    -0.187 NA
ATOM     11  C   UNL     1      13.932  -3.278  -1.861  0.00  0.00    +0.142 C 
BRANCH  11  12
ATOM     12  C   UNL     1      14.988  -3.811  -0.982  0.00  0.00    +0.036 A 
ATOM     13  C   UNL     1      16.304  -3.901  -1.443  0.00  0.00    +0.016 A 
ATOM     14  C   UNL     1      17.288  -4.400  -0.618  0.00  0.00    +0.046 A 
ATOM     15  C   UNL     1      16.977  -4.813   0.672  0.00  0.00    +0.120 A 
ATOM     16  C   UNL     1      15.674  -4.727   1.139  0.00  0.00    +0.091 A 
ATOM     17  C   UNL     1      14.677  -4.223   0.321  0.00  0.00    +0.129 A 
BRANCH  17  18
ATOM     18  O   UNL     1      13.401  -4.133   0.779  0.00  0.00    -0.506 OA
ATOM     19  H   UNL     1      12.868  -4.923   0.614  0.00  0.00    +0.292 HD
ENDBRANCH  17  18
BRANCH  15  20
ATOM     20  O   UNL     1      17.954  -5.304   1.480  0.00  0.00    -0.507 OA
ATOM     21  H   UNL     1      18.398  -4.631   2.013  0.00  0.00    +0.292 HD
ENDBRANCH  15  20
ENDBRANCH  11  12
ENDBRANCH   7  10
ENDBRANCH   1   2
BRANCH   1  22
ATOM     22  C   UNL     1       6.009  -2.515   0.401  0.00  0.00    +0.173 C 
BRANCH  22  24
ATOM     23  N   UNL     1       3.744  -2.426   1.392  0.00  0.00    -0.279 N 
ATOM     24  C   UNL     1       5.047  -2.736   1.540  0.00  0.00    +0.228 C 
ATOM     25  O   UNL     1       5.445  -3.193   2.591  0.00  0.00    -0.275 OA
ATOM     26  H   UNL     1       3.425  -2.060   0.551  0.00  0.00    +0.155 HD
BRANCH  23  31
ATOM     27  C   UNL     1       1.496  -2.371   2.467  0.00  0.00    +0.091 A 
ATOM     28  C   UNL     1       0.787  -2.682   3.696  0.00  0.00    -0.021 A 
ATOM     29  C   UNL     1       1.570  -3.187   4.673  0.00  0.00    -0.004 A 
ATOM     30  S   UNL     1       3.191  -3.243   3.966  0.00  0.00    -0.077 S 
ATOM     31  C   UNL     1       2.859  -2.629   2.439  0.00  0.00    +0.086 A 
ATOM     32  C   UNL     1       1.140  -3.603   6.046  0.00  0.00    +0.043 C 
ATOM     33  C   UNL     1      -0.255  -3.018   6.312  0.00  0.00    +0.005 C 
ATOM     34  C   UNL     1      -1.153  -3.312   5.107  0.00  0.00    +0.005 C 
ATOM     35  C   UNL     1      -0.705  -2.473   3.907  0.00  0.00    +0.037 C 
BRANCH  27  36
ATOM     36  C   UNL     1       0.801  -1.814   1.305  0.00  0.00    +0.342 C 
ATOM     37  O   UNL     1       0.321  -2.557   0.470  0.00  0.00    -0.245 OA
BRANCH  36  38
ATOM     38  O   UNL     1       0.693  -0.477   1.160  0.00  0.00    -0.461 OA
BRANCH  38  40
ATOM     39  C   UNL     1      -0.019   1.526   0.010  0.00  0.00    +0.048 C 
ATOM     40  C   UNL     1       0.002  -0.004   0.002  0.00  0.00    +0.229 C 
ENDBRANCH  38  40
ENDBRANCH  36  38
ENDBRANCH  27  36
ENDBRANCH  23  31
ENDBRANCH  22  24
ENDBRANCH   1  22
TORSDOF 11
