REMARK  Name = ZINC17920672
REMARK  6 active torsions:
REMARK  status: ('A' for Active; 'I' for Inactive)
REMARK    1  A    between atoms: C_4  and  C_7
REMARK    2  A    between atoms: C_13  and  N_14
REMARK    3  A    between atoms: N_14  and  C_15
REMARK    4  A    between atoms: C_15  and  C_16
REMARK    5  A    between atoms: C_16  and  C_17
REMARK    6  A    between atoms: C_17  and  N_18
REMARK                            x       y       z     vdW  Elec       q    Type
REMARK                         _______ _______ _______ _____ _____    ______ ____
ROOT
ATOM      1  C   UNL     1       3.701  -0.718  -0.260  0.00  0.00    +0.103 C 
ATOM      2  N   UNL     1       4.886  -0.166  -0.271  0.00  0.00    -0.169 NA
ATOM      3  N   UNL     1       5.865  -1.121   0.009  0.00  0.00    -0.131 N 
ATOM      4  C   UNL     1       5.293  -2.324   0.207  0.00  0.00    +0.275 C 
ATOM      5  O   UNL     1       5.869  -3.366   0.470  0.00  0.00    -0.268 OA
ATOM      6  C   UNL     1       3.889  -2.148   0.055  0.00  0.00    +0.080 C 
ATOM      7  C   UNL     1       2.908  -3.114   0.175  0.00  0.00    +0.082 C 
ATOM      8  C   UNL     1       7.228  -0.869   0.075  0.00  0.00    +0.189 A 
ATOM      9  N   UNL     1       8.209  -1.704   0.324  0.00  0.00    -0.223 NA
ATOM     10  C   UNL     1       9.502  -1.316   0.357  0.00  0.00    +0.080 A 
ATOM     11  C   UNL     1      10.645  -2.108   0.612  0.00  0.00    +0.029 A 
ATOM     12  C   UNL     1      11.897  -1.552   0.608  0.00  0.00    +0.002 A 
ATOM     13  C   UNL     1      12.090  -0.202   0.355  0.00  0.00    +0.001 A 
ATOM     14  C   UNL     1      10.995   0.603   0.102  0.00  0.00    +0.017 A 
ATOM     15  C   UNL     1       9.736   0.055   0.104  0.00  0.00    +0.041 A 
ATOM     16  S   UNL     1       8.094   0.676  -0.167  0.00  0.00    -0.050 S 
ENDROOT
BRANCH   1  20
ATOM     17  C   UNL     1      -0.002   1.241  -0.978  0.00  0.00    +0.000 A 
ATOM     18  C   UNL     1       0.143  -0.096  -1.300  0.00  0.00    +0.001 A 
ATOM     19  C   UNL     1       1.343  -0.738  -1.070  0.00  0.00    +0.010 A 
ATOM     20  C   UNL     1       2.410  -0.035  -0.511  0.00  0.00    +0.003 A 
ATOM     21  C   UNL     1       2.257   1.313  -0.189  0.00  0.00    +0.010 A 
ATOM     22  C   UNL     1       1.052   1.944  -0.423  0.00  0.00    +0.001 A 
ENDBRANCH   1  20
BRANCH   7  23
ATOM     23  N   UNL     1       3.252  -4.407   0.351  0.00  0.00    -0.349 N 
ATOM     24  H   UNL     1       4.188  -4.659   0.394  0.00  0.00    +0.146 HD
BRANCH  23  25
ATOM     25  C   UNL     1       2.212  -5.431   0.478  0.00  0.00    +0.103 C 
BRANCH  25  26
ATOM     26  C   UNL     1       2.865  -6.801   0.668  0.00  0.00    +0.040 C 
BRANCH  26  27
ATOM     27  C   UNL     1       1.779  -7.870   0.800  0.00  0.00    +0.124 C 
BRANCH  27  28
ATOM     28  N   UNL     1       2.405  -9.182   0.982  0.00  0.00    -0.338 N 
ATOM     29  C   UNL     1       2.768 -10.053  -0.010  0.00  0.00    +0.104 A 
ATOM     30  C   UNL     1       3.304 -11.131   0.594  0.00  0.00    +0.101 A 
ATOM     31  N   UNL     1       3.270 -10.923   1.919  0.00  0.00    -0.352 N 
ATOM     32  C   UNL     1       2.737  -9.756   2.158  0.00  0.00    +0.173 A 
ATOM     33  H   UNL     1       3.593 -11.542   2.593  0.00  0.00    +0.166 HD
ENDBRANCH  27  28
ENDBRANCH  26  27
ENDBRANCH  25  26
ENDBRANCH  23  25
ENDBRANCH   7  23
TORSDOF 6
