REMARK  Name = ZINC12180993
REMARK  11 active torsions:
REMARK  status: ('A' for Active; 'I' for Inactive)
REMARK    1  A    between atoms: C_1  and  C_2
REMARK    2  A    between atoms: C_7  and  C_16
REMARK    3  A    between atoms: N_11  and  S_12
REMARK    4  A    between atoms: S_12  and  C_15
REMARK    5  A    between atoms: C_16  and  C_18
REMARK    6  A    between atoms: C_16  and  O_28
REMARK    7  A    between atoms: C_18  and  N_61
REMARK    8  A    between atoms: C_21  and  C_24
REMARK    9  A    between atoms: C_24  and  C_25
REMARK   10  A    between atoms: C_24  and  C_26
REMARK   11  A    between atoms: C_24  and  C_27
REMARK                            x       y       z     vdW  Elec       q    Type
REMARK                         _______ _______ _______ _____ _____    ______ ____
ROOT
ATOM      1  C   UNL     1      -2.574   3.839   0.050  0.00  0.00    +0.128 C 
ENDROOT
BRANCH   1   7
ATOM      2  C   UNL     1       4.317   2.454  -1.251  0.00  0.00    +0.030 C 
ATOM      3  C   UNL     1       3.446   2.461   0.007  0.00  0.00    +0.099 C 
ATOM      4  C   UNL     1       2.561   3.718   0.036  0.00  0.00    +0.061 C 
ATOM      5  C   UNL     1       1.146   3.185   0.028  0.00  0.00    -0.023 A 
ATOM      6  C   UNL     1      -0.070   3.842   0.045  0.00  0.00    +0.011 A 
ATOM      7  C   UNL     1      -1.249   3.121   0.032  0.00  0.00    -0.021 A 
ATOM      8  C   UNL     1      -1.210   1.739  -0.004  0.00  0.00    +0.008 A 
ATOM      9  C   UNL     1       0.000   1.079  -0.015  0.00  0.00    +0.025 A 
ATOM     10  C   UNL     1       1.196   1.800  -0.002  0.00  0.00    +0.054 A 
ATOM     11  N   UNL     1       2.511   1.333  -0.015  0.00  0.00    -0.204 N 
BRANCH  11  12
ATOM     12  S   UNL     1       2.950  -0.263  -0.049  0.00  0.00    +0.043 S 
ATOM     13  O   UNL     1       4.238  -0.298   0.550  0.00  0.00    -0.155 OA
ATOM     14  O   UNL     1       1.858  -0.953   0.542  0.00  0.00    -0.155 OA
ATOM     15  C   UNL     1       3.070  -0.676  -1.811  0.00  0.00    +0.218 C 
ENDBRANCH  11  12
ENDBRANCH   1   7
BRANCH   1  16
ATOM     16  O   UNL     1      -3.483   3.140   0.903  0.00  0.00    -0.389 OA
ATOM     17  H   UNL     1      -3.656   2.228   0.630  0.00  0.00    +0.210 HD
ENDBRANCH   1  16
BRANCH   1  18
ATOM     18  C   UNL     1      -3.145   3.893  -1.368  0.00  0.00    -0.042 C 
BRANCH  18  24
ATOM     19  C   UNL     1      -5.226   4.279  -2.543  0.00  0.00    -0.078 C 
ATOM     20  C   UNL     1      -6.611   4.918  -2.423  0.00  0.00    -0.015 C 
ATOM     21  C   UNL     1      -6.457   6.436  -2.287  0.00  0.00    -0.009 C 
ATOM     22  C   UNL     1      -5.584   6.745  -1.067  0.00  0.00    -0.015 C 
ATOM     23  C   UNL     1      -4.229   6.052  -1.227  0.00  0.00    -0.078 C 
ATOM     24  N   UNL     1      -4.445   4.593  -1.328  0.00  0.00    +0.382 N 
ATOM     25  H   UNL     1      -4.969   4.276  -0.504  0.00  0.00    -0.082 HD
BRANCH  21  26
ATOM     26  C   UNL     1      -7.835   7.075  -2.105  0.00  0.00    -0.035 C 
ATOM     27  C   UNL     1      -7.679   8.591  -1.962  0.00  0.00    +0.011 C 
ATOM     28  C   UNL     1      -8.706   6.766  -3.324  0.00  0.00    +0.011 C 
ATOM     29  C   UNL     1      -8.498   6.510  -0.848  0.00  0.00    +0.011 C 
ENDBRANCH  21  26
ENDBRANCH  18  24
ENDBRANCH   1  18
TORSDOF 6
