REMARK  Name = ZINC03246203
REMARK  7 active torsions:
REMARK  status: ('A' for Active; 'I' for Inactive)
REMARK    1  A    between atoms: C_1  and  C_2
REMARK    2  A    between atoms: C_6  and  C_9
REMARK    3  A    between atoms: C_10  and  N_11
REMARK    4  A    between atoms: C_10  and  N_58
REMARK    5  A    between atoms: C_15  and  C_17
REMARK    6  A    between atoms: C_21  and  S_23
REMARK    7  A    between atoms: S_23  and  N_26
REMARK                            x       y       z     vdW  Elec       q    Type
REMARK                         _______ _______ _______ _____ _____    ______ ____
ROOT
ATOM      1  N   UNL     1      -7.761   1.385   4.044  0.00  0.00    -0.240 N 
ATOM      2  C   UNL     1      -6.758   2.006   4.700  0.00  0.00    +0.265 A 
ATOM      3  S   UNL     1      -6.567   2.106   6.399  0.00  0.00    +0.011 S 
ATOM      4  O   UNL     1      -5.935   2.531   3.776  0.00  0.00    -0.412 OA
ATOM      5  C   UNL     1      -6.418   2.241   2.548  0.00  0.00    +0.247 A 
ATOM      6  N   UNL     1      -7.519   1.558   2.673  0.00  0.00    -0.131 NA
ENDROOT
BRANCH   5   7
ATOM      7  C   UNL     1      -5.799   2.643   1.266  0.00  0.00    +0.040 A 
ATOM      8  C   UNL     1      -6.396   2.284   0.056  0.00  0.00    +0.013 A 
ATOM      9  C   UNL     1      -5.813   2.661  -1.136  0.00  0.00    +0.003 A 
ATOM     10  C   UNL     1      -4.643   3.400  -1.134  0.00  0.00    +0.028 A 
ATOM     11  C   UNL     1      -4.043   3.754   0.061  0.00  0.00    +0.106 A 
ATOM     12  C   UNL     1      -4.616   3.382   1.260  0.00  0.00    +0.041 A 
BRANCH  11  13
ATOM     13  S   UNL     1      -2.550   4.688   0.052  0.00  0.00    +0.061 S 
ATOM     14  O   UNL     1      -2.485   5.364   1.300  0.00  0.00    -0.153 OA
ATOM     15  O   UNL     1      -2.509   5.377  -1.190  0.00  0.00    -0.153 OA
BRANCH  13  16
ATOM     16  N   UNL     1      -1.296   3.606   0.034  0.00  0.00    -0.177 NA
ATOM     17  C   UNL     1      -0.741   3.124  -1.238  0.00  0.00    +0.109 C 
ATOM     18  C   UNL     1      -0.752   1.593  -1.232  0.00  0.00    +0.017 C 
ATOM     19  C   UNL     1      -0.013   1.086   0.008  0.00  0.00    +0.003 C 
ATOM     20  C   UNL     1      -0.729   1.579   1.268  0.00  0.00    +0.017 C 
ATOM     21  C   UNL     1      -0.717   3.111   1.290  0.00  0.00    +0.109 C 
ENDBRANCH  13  16
ENDBRANCH  11  13
ENDBRANCH   5   7
BRANCH   1  22
ATOM     22  C   UNL     1      -8.889   0.673   4.648  0.00  0.00    +0.073 C 
BRANCH  22  30
ATOM     23  C   UNL     1     -12.647   2.569   4.051  0.00  0.00    +0.036 C 
ATOM     24  C   UNL     1     -12.372   1.897   5.397  0.00  0.00    +0.099 C 
ATOM     25  C   UNL     1     -11.227   0.893   5.243  0.00  0.00    -0.044 C 
ATOM     26  C   UNL     1      -9.653   2.619   5.872  0.00  0.00    -0.044 C 
ATOM     27  C   UNL     1     -10.813   3.606   6.020  0.00  0.00    +0.099 C 
ATOM     28  O   UNL     1     -12.003   2.889   6.360  0.00  0.00    -0.378 OA
ATOM     29  C   UNL     1     -10.490   4.613   7.126  0.00  0.00    +0.036 C 
ATOM     30  N   UNL     1     -10.007   1.622   4.839  0.00  0.00    +0.396 N 
ATOM     31  H   UNL     1     -10.187   2.109   3.953  0.00  0.00    -0.079 HD
ENDBRANCH  22  30
ENDBRANCH   1  22
TORSDOF 5
