REMARK  Name = ZINC11634330
REMARK  7 active torsions:
REMARK  status: ('A' for Active; 'I' for Inactive)
REMARK    1  A    between atoms: C_1  and  C_2
REMARK    2  A    between atoms: C_2  and  N_3
REMARK    3  A    between atoms: N_12  and  C_13
REMARK    4  A    between atoms: C_13  and  C_15
REMARK    5  A    between atoms: C_18  and  S_21
REMARK    6  A    between atoms: S_21  and  N_24
REMARK    7  A    between atoms: C_29  and  C_31
REMARK                            x       y       z     vdW  Elec       q    Type
REMARK                         _______ _______ _______ _____ _____    ______ ____
ROOT
ATOM      1  C   UNL     1      -4.084   0.757  -1.048  0.00  0.00    +0.039 A 
ATOM      2  C   UNL     1      -3.405  -0.448  -1.228  0.00  0.00    +0.015 A 
ATOM      3  C   UNL     1      -4.065  -1.644  -1.036  0.00  0.00    +0.029 A 
ATOM      4  C   UNL     1      -5.401  -1.650  -0.675  0.00  0.00    +0.106 A 
ATOM      5  C   UNL     1      -6.082  -0.458  -0.501  0.00  0.00    +0.029 A 
ATOM      6  C   UNL     1      -5.431   0.745  -0.685  0.00  0.00    +0.015 A 
ENDROOT
BRANCH   4   7
ATOM      7  S   UNL     1      -6.239  -3.182  -0.438  0.00  0.00    +0.061 S 
ATOM      8  O   UNL     1      -5.269  -4.107   0.032  0.00  0.00    -0.153 OA
ATOM      9  O   UNL     1      -7.426  -2.887   0.286  0.00  0.00    -0.153 OA
BRANCH   7  10
ATOM     10  N   UNL     1      -6.717  -3.715  -1.932  0.00  0.00    -0.174 NA
ATOM     11  C   UNL     1      -5.920  -4.711  -2.661  0.00  0.00    +0.110 C 
ATOM     12  C   UNL     1      -6.837  -5.880  -3.050  0.00  0.00    +0.017 C 
ATOM     13  C   UNL     1      -8.037  -5.341  -3.832  0.00  0.00    +0.003 C 
ATOM     14  C   UNL     1      -8.833  -4.379  -2.948  0.00  0.00    +0.020 C 
ATOM     15  C   UNL     1      -7.942  -3.196  -2.555  0.00  0.00    +0.077 C 
ATOM     16  C   UNL     1      -8.685  -2.302  -1.560  0.00  0.00    +0.026 C 
ENDBRANCH   7  10
ENDBRANCH   4   7
BRANCH   1  17
ATOM     17  C   UNL     1      -3.380   2.045  -1.248  0.00  0.00    +0.269 C 
ATOM     18  O   UNL     1      -3.977   3.096  -1.095  0.00  0.00    -0.268 OA
BRANCH  17  28
ATOM     19  N   UNL     1      -0.159   3.414  -2.127  0.00  0.00    -0.321 N 
ATOM     20  C   UNL     1       0.325   4.702  -2.267  0.00  0.00    +0.058 A 
ATOM     21  C   UNL     1       1.621   5.111  -2.619  0.00  0.00    +0.028 A 
ATOM     22  C   UNL     1       1.935   6.446  -2.715  0.00  0.00    +0.017 A 
ATOM     23  C   UNL     1       0.987   7.426  -2.467  0.00  0.00    +0.019 A 
ATOM     24  C   UNL     1      -0.299   7.050  -2.117  0.00  0.00    +0.032 A 
ATOM     25  C   UNL     1      -0.613   5.715  -2.021  0.00  0.00    +0.040 A 
ATOM     26  S   UNL     1      -2.089   4.816  -1.617  0.00  0.00    -0.052 S 
ATOM     27  C   UNL     1      -1.457   3.208  -1.775  0.00  0.00    +0.167 A 
ATOM     28  N   UNL     1      -2.089   2.053  -1.596  0.00  0.00    -0.152 NA
ATOM     29 BR   UNL     1       1.445   9.256  -2.604  0.00  0.00    -0.050 Br
BRANCH  19  31
ATOM     30  C   UNL     1       0.396   1.160  -1.357  0.00  0.00    +0.027 C 
ATOM     31  C   UNL     1       0.727   2.270  -2.356  0.00  0.00    +0.121 C 
ENDBRANCH  19  31
ENDBRANCH  17  28
ENDBRANCH   1  17
TORSDOF 5
