REMARK  Name = ZINC18244454
REMARK  6 active torsions:
REMARK  status: ('A' for Active; 'I' for Inactive)
REMARK    1  A    between atoms: C_1  and  C_2
REMARK    2  A    between atoms: C_2  and  C_3
REMARK    3  A    between atoms: C_2  and  C_4
REMARK    4  A    between atoms: C_16  and  C_18
REMARK    5  A    between atoms: C_26  and  C_28
REMARK    6  A    between atoms: C_26  and  C_29
REMARK                            x       y       z     vdW  Elec       q    Type
REMARK                         _______ _______ _______ _____ _____    ______ ____
ROOT
ATOM      1  C   UNL     1      -2.216   4.025   3.933  0.00  0.00    +0.223 C 
ATOM      2  O   UNL     1      -1.485   4.516   4.767  0.00  0.00    -0.275 OA
ATOM      3  N   UNL     1      -2.228   2.689   3.749  0.00  0.00    -0.255 N 
ATOM      4  C   UNL     1      -1.351   1.889   4.478  0.00  0.00    +0.058 A 
ATOM      5  C   UNL     1      -1.463   1.765   5.855  0.00  0.00    +0.025 A 
ATOM      6  C   UNL     1      -0.601   0.923   6.535  0.00  0.00    +0.002 A 
ATOM      7  C   UNL     1       0.364   0.206   5.851  0.00  0.00    +0.002 A 
ATOM      8  C   UNL     1       0.491   0.341   4.479  0.00  0.00    +0.025 A 
ATOM      9  C   UNL     1      -0.356   1.200   3.802  0.00  0.00    +0.053 A 
ATOM     10  N   UNL     1      -0.234   1.443   2.438  0.00  0.00    -0.316 N 
ATOM     11  C   UNL     1      -1.185   1.145   1.510  0.00  0.00    +0.017 C 
ATOM     12  C   UNL     1      -2.489   1.434   1.620  0.00  0.00    +0.040 C 
ATOM     13  C   UNL     1      -3.153   2.110   2.797  0.00  0.00    +0.182 C 
ATOM     14  C   UNL     1      -3.385   1.095   0.579  0.00  0.00    +0.163 C 
ATOM     15  O   UNL     1      -4.566   1.346   0.717  0.00  0.00    -0.292 OA
ATOM     16  C   UNL     1      -2.930   0.437  -0.689  0.00  0.00    +0.086 C 
ATOM     17  C   UNL     1      -1.471   0.833  -0.948  0.00  0.00    -0.023 C 
ATOM     18  C   UNL     1      -0.655   0.428   0.278  0.00  0.00    +0.058 C 
ATOM     19  C   UNL     1      -1.374   2.345  -1.159  0.00  0.00    +0.011 C 
ATOM     20  C   UNL     1      -0.946   0.102  -2.185  0.00  0.00    +0.011 C 
ATOM     21  H   UNL     1       0.587   1.854   2.125  0.00  0.00    +0.152 HD
ENDROOT
BRANCH  13  22
ATOM     22  C   UNL     1      -4.004   1.094   3.515  0.00  0.00    +0.130 A 
ATOM     23  C   UNL     1      -5.338   0.962   3.397  0.00  0.00    +0.047 A 
ATOM     24  C   UNL     1      -5.719  -0.108   4.239  0.00  0.00    +0.041 A 
ATOM     25  C   UNL     1      -4.597  -0.560   4.827  0.00  0.00    +0.195 A 
ATOM     26  O   UNL     1      -3.561   0.172   4.385  0.00  0.00    -0.466 OA
ENDBRANCH  13  22
BRANCH   1  28
ATOM     27  C   UNL     1      -3.047   6.341   3.632  0.00  0.00    +0.017 C 
ATOM     28  C   UNL     1      -3.112   4.908   3.102  0.00  0.00    +0.069 C 
ATOM     29  C   UNL     1      -2.645   4.880   1.645  0.00  0.00    +0.017 C 
ENDBRANCH   1  28
TORSDOF 2
