REMARK  Name = ZINC36490170
REMARK  6 active torsions:
REMARK  status: ('A' for Active; 'I' for Inactive)
REMARK    1  A    between atoms: C_1  and  C_2
REMARK    2  A    between atoms: C_9  and  C_11
REMARK    3  A    between atoms: N_13  and  N_14
REMARK    4  A    between atoms: C_15  and  C_16
REMARK    5  A    between atoms: C_19  and  O_23
REMARK    6  A    between atoms: C_21  and  O_22
REMARK                            x       y       z     vdW  Elec       q    Type
REMARK                         _______ _______ _______ _____ _____    ______ ____
ROOT
ATOM      1  N   UNL     1       4.829   0.592  -1.594  0.00  0.00    -0.188 NA
ATOM      2  C   UNL     1       5.326   0.459  -2.786  0.00  0.00    +0.142 C 
ENDROOT
BRANCH   2   3
ATOM      3  C   UNL     1       5.201  -0.826  -3.496  0.00  0.00    +0.037 A 
ATOM      4  C   UNL     1       4.130  -1.679  -3.220  0.00  0.00    +0.032 A 
ATOM      5  C   UNL     1       4.017  -2.881  -3.886  0.00  0.00    +0.060 A 
ATOM      6  C   UNL     1       4.968  -3.247  -4.833  0.00  0.00    +0.134 A 
ATOM      7  C   UNL     1       6.035  -2.407  -5.114  0.00  0.00    +0.092 A 
ATOM      8  C   UNL     1       6.155  -1.195  -4.456  0.00  0.00    +0.129 A 
ATOM      9 BR   UNL     1       2.567  -4.034  -3.511  0.00  0.00    -0.047 Br
BRANCH   8  10
ATOM     10  O   UNL     1       7.196  -0.369  -4.734  0.00  0.00    -0.506 OA
ATOM     11  H   UNL     1       8.002  -0.572  -4.241  0.00  0.00    +0.292 HD
ENDBRANCH   8  10
BRANCH   6  12
ATOM     12  O   UNL     1       4.850  -4.433  -5.486  0.00  0.00    -0.506 OA
ATOM     13  H   UNL     1       4.340  -4.382  -6.306  0.00  0.00    +0.292 HD
ENDBRANCH   6  12
ENDBRANCH   2   3
BRANCH   1  16
ATOM     14  C   UNL     1       3.696  -0.372   0.264  0.00  0.00    +0.236 C 
ATOM     15  O   UNL     1       3.543   0.739   0.730  0.00  0.00    -0.274 OA
ATOM     16  N   UNL     1       4.338  -0.527  -0.910  0.00  0.00    -0.207 N 
ATOM     17  H   UNL     1       4.460  -1.415  -1.282  0.00  0.00    +0.177 HD
BRANCH  14  25
ATOM     18  C   UNL     1       0.837  -0.502   0.661  0.00  0.00    +0.012 C 
ATOM     19  C   UNL     1       1.662  -1.668   1.210  0.00  0.00    -0.017 C 
ATOM     20  C   UNL     1       0.981  -3.025   1.117  0.00  0.00    +0.008 C 
ATOM     21  C   UNL     1       1.705  -4.049   1.992  0.00  0.00    +0.001 C 
ATOM     22  C   UNL     1       1.784  -3.501   3.421  0.00  0.00    +0.000 C 
ATOM     23  C   UNL     1       2.842  -2.399   3.463  0.00  0.00    +0.005 C 
ATOM     24  C   UNL     1       2.561  -1.348   2.393  0.00  0.00    +0.008 C 
ATOM     25  C   UNL     1       3.167  -1.576   1.000  0.00  0.00    +0.086 C 
ENDBRANCH  14  25
ENDBRANCH   1  16
TORSDOF 5
