REMARK  Name = ZINC27315565
REMARK  11 active torsions:
REMARK  status: ('A' for Active; 'I' for Inactive)
REMARK    1  A    between atoms: C_1  and  C_2
REMARK    2  A    between atoms: C_2  and  C_4
REMARK    3  A    between atoms: C_2  and  C_38
REMARK    4  A    between atoms: C_4  and  C_6
REMARK    5  A    between atoms: C_4  and  N_37
REMARK    6  A    between atoms: C_6  and  C_8
REMARK    7  A    between atoms: C_15  and  C_19
REMARK    8  A    between atoms: C_16  and  C_17
REMARK    9  A    between atoms: C_16  and  C_18
REMARK   10  A    between atoms: C_19  and  S_20
REMARK   11  A    between atoms: S_20  and  N_23
REMARK                            x       y       z     vdW  Elec       q    Type
REMARK                         _______ _______ _______ _____ _____    ______ ____
ROOT
ATOM      1  C   UNL     1      -9.213   3.427   3.027  0.00  0.00    +0.062 C 
ATOM      2  C   UNL     1     -10.521   3.010   3.737  0.00  0.00    +0.015 C 
ATOM      3  C   UNL     1     -11.073   1.827   2.883  0.00  0.00    -0.004 C 
ATOM      4  C   UNL     1     -11.551   2.474   1.547  0.00  0.00    +0.005 C 
ATOM      5  C   UNL     1     -10.224   2.898   0.828  0.00  0.00    +0.010 C 
ATOM      6  C   UNL     1      -9.097   2.458   1.811  0.00  0.00    +0.006 C 
ATOM      7  C   UNL     1      -9.733   1.157   2.417  0.00  0.00    -0.024 C 
ATOM      8  C   UNL     1      -9.968   0.084   1.351  0.00  0.00    +0.012 C 
ATOM      9  C   UNL     1      -8.921   0.616   3.596  0.00  0.00    +0.012 C 
ENDROOT
BRANCH   1  10
ATOM     10  C   UNL     1      -9.305   4.855   2.553  0.00  0.00    +0.124 C 
ATOM     11  O   UNL     1      -9.102   5.120   1.393  0.00  0.00    -0.299 OA
BRANCH  10  12
ATOM     12  C   UNL     1      -9.650   5.952   3.528  0.00  0.00    +0.005 C 
BRANCH  12  13
ATOM     13  N   UNL     1     -10.369   7.023   2.825  0.00  0.00    +0.385 N 
ATOM     14  H   UNL     1     -11.293   6.617   2.387  0.00  0.00    -0.089 HD
ATOM     15  H   UNL     1      -9.732   7.429   2.026  0.00  0.00    -0.089 HD
ATOM     16  H   UNL     1     -10.621   7.823   3.537  0.00  0.00    -0.089 HD
ENDBRANCH  12  13
BRANCH  12  18
ATOM     17  C   UNL     1      -7.545   5.374   4.743  0.00  0.00    +0.016 C 
ATOM     18  C   UNL     1      -8.365   6.515   4.138  0.00  0.00    +0.064 C 
BRANCH  18  19
ATOM     19  C   UNL     1      -8.714   7.509   5.215  0.00  0.00    +0.212 C 
ATOM     20  O   UNL     1      -9.876   7.744   5.470  0.00  0.00    -0.276 OA
ATOM     21  N   UNL     1      -7.734   8.137   5.895  0.00  0.00    -0.329 N 
ATOM     22  H   UNL     1      -7.989   8.863   6.682  0.00  0.00    +0.145 HD
ATOM     23  H   UNL     1      -6.680   7.924   5.664  0.00  0.00    +0.145 HD
ENDBRANCH  18  19
ENDBRANCH  12  18
ENDBRANCH  10  12
ENDBRANCH   1  10
BRANCH   6  24
ATOM     24  C   UNL     1      -7.700   2.309   1.205  0.00  0.00    +0.193 C 
BRANCH  24  25
ATOM     25  S   UNL     1      -7.218   3.866   0.408  0.00  0.00    +0.032 S 
ATOM     26  O   UNL     1      -6.803   4.808   1.387  0.00  0.00    -0.158 OA
ATOM     27  O   UNL     1      -8.171   4.223  -0.584  0.00  0.00    -0.158 OA
BRANCH  25  28
ATOM     28  N   UNL     1      -5.843   3.502  -0.439  0.00  0.00    -0.181 NA
ATOM     29  C   UNL     1      -5.923   3.038  -1.831  0.00  0.00    +0.110 C 
ATOM     30  C   UNL     1      -5.164   1.712  -1.953  0.00  0.00    +0.028 C 
ATOM     31  C   UNL     1      -3.746   1.889  -1.417  0.00  0.00    -0.001 C 
ATOM     32  C   UNL     1      -2.997   2.946  -2.249  0.00  0.00    +0.016 C 
ATOM     33  C   UNL     1      -1.553   2.399  -2.254  0.00  0.00    +0.036 C 
ATOM     34  C   UNL     1      -1.695   0.903  -2.065  0.00  0.00    -0.044 A 
ATOM     35  C   UNL     1      -2.959   0.610  -1.583  0.00  0.00    -0.038 A 
ATOM     36  C   UNL     1      -3.314  -0.706  -1.341  0.00  0.00    +0.004 A 
ATOM     37  C   UNL     1      -2.409  -1.724  -1.567  0.00  0.00    +0.000 A 
ATOM     38  C   UNL     1      -1.147  -1.431  -2.048  0.00  0.00    +0.000 A 
ATOM     39  C   UNL     1      -0.791  -0.120  -2.296  0.00  0.00    +0.004 A 
ATOM     40  C   UNL     1      -3.773   2.306   0.051  0.00  0.00    +0.028 C 
ATOM     41  C   UNL     1      -4.521   3.637   0.187  0.00  0.00    +0.110 C 
ENDBRANCH  25  28
ENDBRANCH  24  25
ENDBRANCH   6  24
TORSDOF 8
