REMARK  Name = ZINC39289925
REMARK  7 active torsions:
REMARK  status: ('A' for Active; 'I' for Inactive)
REMARK    1  A    between atoms: C_1  and  C_2
REMARK    2  A    between atoms: C_2  and  O_3
REMARK    3  A    between atoms: O_3  and  C_4
REMARK    4  A    between atoms: C_7  and  N_10
REMARK    5  A    between atoms: C_16  and  C_17
REMARK    6  A    between atoms: C_20  and  S_22
REMARK    7  A    between atoms: S_22  and  C_23
REMARK                            x       y       z     vdW  Elec       q    Type
REMARK                         _______ _______ _______ _____ _____    ______ ____
ROOT
ATOM      1  N   UNL     1       0.998  -5.900  -1.912  0.00  0.00    -0.226 NA
ATOM      2  C   UNL     1       0.654  -6.478  -3.042  0.00  0.00    +0.166 C 
ATOM      3  N   UNL     1       0.144  -5.903  -4.189  0.00  0.00    -0.260 N 
ATOM      4  C   UNL     1      -0.145  -6.657  -5.236  0.00  0.00    +0.257 C 
ATOM      5  O   UNL     1      -0.596  -6.162  -6.254  0.00  0.00    -0.269 OA
ATOM      6  C   UNL     1       0.082  -8.057  -5.146  0.00  0.00    +0.081 C 
ATOM      7  C   UNL     1      -0.136  -9.038  -6.089  0.00  0.00    +0.066 C 
ATOM      8  S   UNL     1       0.734  -8.205  -3.489  0.00  0.00    -0.049 S 
ATOM      9  H   UNL     1      -0.003  -4.945  -4.227  0.00  0.00    +0.157 HD
ENDROOT
BRANCH   1  13
ATOM     10  C   UNL     1       0.580  -1.805  -1.467  0.00  0.00    +0.121 A 
ATOM     11  C   UNL     1       0.168  -2.657  -0.452  0.00  0.00    +0.048 A 
ATOM     12  C   UNL     1       0.305  -4.021  -0.596  0.00  0.00    +0.031 A 
ATOM     13  C   UNL     1       0.860  -4.546  -1.765  0.00  0.00    +0.067 A 
ATOM     14  C   UNL     1       1.272  -3.685  -2.784  0.00  0.00    +0.031 A 
ATOM     15  C   UNL     1       1.126  -2.321  -2.633  0.00  0.00    +0.048 A 
BRANCH  10  16
ATOM     16  O   UNL     1       0.443  -0.460  -1.321  0.00  0.00    -0.492 OA
BRANCH  16  18
ATOM     17  C   UNL     1      -0.201   1.533  -0.114  0.00  0.00    +0.048 C 
ATOM     18  C   UNL     1      -0.127   0.005  -0.095  0.00  0.00    +0.225 C 
ENDBRANCH  16  18
ENDBRANCH  10  16
ENDBRANCH   1  13
BRANCH   7  19
ATOM     19  C   UNL     1       0.261 -10.362  -5.831  0.00  0.00    +0.131 A 
ATOM     20  C   UNL     1       0.196 -11.421  -6.721  0.00  0.00    +0.050 A 
ATOM     21  C   UNL     1       0.691 -12.541  -6.050  0.00  0.00    +0.057 A 
ATOM     22  C   UNL     1       1.037 -12.139  -4.792  0.00  0.00    +0.165 A 
ATOM     23  O   UNL     1       0.780 -10.826  -4.671  0.00  0.00    -0.449 OA
BRANCH  22  24
ATOM     24  S   UNL     1       1.715 -13.171  -3.535  0.00  0.00    -0.046 S 
BRANCH  24  25
ATOM     25  C   UNL     1       1.988 -14.758  -4.370  0.00  0.00    +0.240 C 
ATOM     26  N   UNL     1       0.708 -15.270  -4.932  0.00  0.00    -0.275 NA
ATOM     27  C   UNL     1       1.184 -15.978  -6.129  0.00  0.00    +0.128 C 
ATOM     28  C   UNL     1       0.087 -16.111  -7.151  0.00  0.00    -0.002 C 
ATOM     29  C   UNL     1       0.434 -15.943  -8.435  0.00  0.00    -0.002 C 
ATOM     30  C   UNL     1       1.808 -15.642  -8.821  0.00  0.00    +0.002 C 
ATOM     31  C   UNL     1       2.763 -15.288  -7.934  0.00  0.00    +0.025 C 
ATOM     32  C   UNL     1       2.439 -15.230  -6.545  0.00  0.00    +0.060 C 
ATOM     33  N   UNL     1       2.886 -14.578  -5.522  0.00  0.00    -0.256 NA
ATOM     34  H   UNL     1       0.260 -15.906  -4.290  0.00  0.00    +0.126 HD
ENDBRANCH  24  25
ENDBRANCH  22  24
ENDBRANCH   7  19
TORSDOF 6
