REMARK  Name = ZINC67457037
REMARK  6 active torsions:
REMARK  status: ('A' for Active; 'I' for Inactive)
REMARK    1  A    between atoms: C_9  and  C_12
REMARK    2  A    between atoms: C_12  and  N_13
REMARK    3  A    between atoms: N_16  and  C_17
REMARK    4  A    between atoms: C_17  and  C_18
REMARK    5  A    between atoms: N_23  and  C_24
REMARK    6  A    between atoms: C_24  and  C_25
REMARK                            x       y       z     vdW  Elec       q    Type
REMARK                         _______ _______ _______ _____ _____    ______ ____
ROOT
ATOM      1  N   UNL     1       3.214  -6.218   1.316  0.00  0.00    -0.295 N 
ATOM      2  C   UNL     1       3.599  -7.488   1.551  0.00  0.00    +0.300 C 
ATOM      3  O   UNL     1       3.823  -8.238   0.620  0.00  0.00    -0.253 OA
ATOM      4  N   UNL     1       3.736  -7.928   2.818  0.00  0.00    -0.301 N 
ATOM      5  H   UNL     1       3.036  -5.620   2.059  0.00  0.00    +0.151 HD
ATOM      6  H   UNL     1       3.557  -7.330   3.560  0.00  0.00    +0.150 HD
ENDROOT
BRANCH   1   7
ATOM      7  C   UNL     1       3.066  -5.740  -0.061  0.00  0.00    +0.142 C 
BRANCH   7  16
ATOM      8  C   UNL     1      -0.016   1.349   0.009  0.00  0.00    +0.041 A 
ATOM      9  C   UNL     1       1.309   1.798  -0.001  0.00  0.00    +0.135 A 
ATOM     10  N   UNL     1       2.098   0.755  -0.014  0.00  0.00    -0.173 NA
ATOM     11  N   UNL     1       1.302  -0.397  -0.013  0.00  0.00    -0.222 N 
ATOM     12  C   UNL     1       0.002  -0.004   0.002  0.00  0.00    +0.116 A 
ATOM     13  C   UNL     1       1.764  -1.717  -0.024  0.00  0.00    +0.154 A 
ATOM     14  C   UNL     1       3.130  -1.969  -0.033  0.00  0.00    +0.048 A 
ATOM     15  C   UNL     1       3.574  -3.280  -0.045  0.00  0.00    +0.010 A 
ATOM     16  C   UNL     1       2.630  -4.298  -0.048  0.00  0.00    -0.012 A 
ATOM     17  C   UNL     1       1.287  -3.974  -0.038  0.00  0.00    +0.118 A 
ATOM     18  N   UNL     1       0.895  -2.715  -0.022  0.00  0.00    -0.236 NA
ENDBRANCH   7  16
ENDBRANCH   1   7
BRANCH   4  19
ATOM     19  C   UNL     1       4.154  -9.309   3.073  0.00  0.00    +0.090 C 
BRANCH  19  20
ATOM     20  C   UNL     1       4.230  -9.547   4.582  0.00  0.00    -0.051 C 
ATOM     21  C   UNL     1       4.505 -11.040   4.864  0.00  0.00    -0.016 C 
ATOM     22  C   UNL     1       3.632 -11.325   6.114  0.00  0.00    -0.020 C 
ATOM     23  C   UNL     1       2.394 -10.435   5.841  0.00  0.00    -0.078 C 
ATOM     24  N   UNL     1       2.939  -9.211   5.209  0.00  0.00    +0.383 N 
ATOM     25  H   UNL     1       2.297  -8.876   4.507  0.00  0.00    -0.081 HD
BRANCH  24  26
ATOM     26  C   UNL     1       3.141  -8.172   6.229  0.00  0.00    -0.075 C 
BRANCH  26  27
ATOM     27  C   UNL     1       1.785  -7.738   6.789  0.00  0.00    -0.028 C 
ATOM     28  C   UNL     1       0.968  -7.066   5.683  0.00  0.00    +0.002 C 
ATOM     29  C   UNL     1      -0.388  -6.632   6.243  0.00  0.00    +0.000 C 
ATOM     30  C   UNL     1      -0.172  -5.642   7.390  0.00  0.00    +0.000 C 
ATOM     31  C   UNL     1       0.645  -6.314   8.496  0.00  0.00    +0.000 C 
ATOM     32  C   UNL     1       2.001  -6.748   7.936  0.00  0.00    +0.002 C 
ENDBRANCH  26  27
ENDBRANCH  24  26
ENDBRANCH  19  20
ENDBRANCH   4  19
TORSDOF 6
