REMARK  Name = ZINC35982029
REMARK  10 active torsions:
REMARK  status: ('A' for Active; 'I' for Inactive)
REMARK    1  A    between atoms: C_1  and  C_2
REMARK    2  A    between atoms: C_2  and  C_3
REMARK    3  A    between atoms: C_6  and  C_9
REMARK    4  A    between atoms: C_18  and  C_22
REMARK    5  A    between atoms: N_24  and  C_25
REMARK    6  A    between atoms: C_25  and  C_26
REMARK    7  A    between atoms: C_26  and  N_27
REMARK    8  A    between atoms: N_27  and  C_28
REMARK    9  A    between atoms: N_27  and  C_29
REMARK   10  A    between atoms: C_30  and  C_32
REMARK                            x       y       z     vdW  Elec       q    Type
REMARK                         _______ _______ _______ _____ _____    ______ ____
ROOT
ATOM      1  C   UNL     1       1.437  -1.872   3.783  0.00  0.00    +0.247 C 
ATOM      2  O   UNL     1       0.762  -1.027   3.228  0.00  0.00    -0.270 OA
ATOM      3  N   UNL     1       1.122  -2.272   5.031  0.00  0.00    -0.297 N 
ATOM      4  C   UNL     1      -0.106  -1.797   5.683  0.00  0.00    +0.112 C 
ATOM      5  C   UNL     1       0.261  -1.183   7.038  0.00  0.00    +0.074 C 
ATOM      6  C   UNL     1       1.059  -2.199   7.855  0.00  0.00    +0.142 C 
ATOM      7  C   UNL     1       2.349  -2.566   7.120  0.00  0.00    +0.074 C 
ATOM      8  C   UNL     1       1.998  -3.197   5.763  0.00  0.00    +0.112 C 
ATOM      9  N   UNL     1       0.250  -3.409   8.067  0.00  0.00    -0.255 N 
ATOM     10  C   UNL     1       0.123  -3.566   9.533  0.00  0.00    +0.190 C 
ATOM     11  C   UNL     1       1.321  -2.743  10.070  0.00  0.00    +0.194 C 
ATOM     12  O   UNL     1       1.381  -1.639   9.138  0.00  0.00    -0.353 OA
ATOM     13  C   UNL     1      -0.271  -4.212   7.117  0.00  0.00    +0.249 C 
ATOM     14  O   UNL     1      -0.040  -3.994   5.944  0.00  0.00    -0.270 OA
ENDROOT
BRANCH  13  15
ATOM     15  C   UNL     1      -1.123  -5.355   7.503  0.00  0.00    +0.037 A 
ATOM     16  C   UNL     1      -1.677  -5.415   8.784  0.00  0.00    +0.016 A 
ATOM     17  C   UNL     1      -2.472  -6.484   9.139  0.00  0.00    +0.039 A 
ATOM     18  C   UNL     1      -2.720  -7.499   8.227  0.00  0.00    +0.123 A 
ATOM     19  C   UNL     1      -2.173  -7.444   6.954  0.00  0.00    +0.039 A 
ATOM     20  C   UNL     1      -1.382  -6.377   6.587  0.00  0.00    +0.016 A 
ATOM     21  F   UNL     1      -3.499  -8.545   8.580  0.00  0.00    -0.205 F 
ENDBRANCH  13  15
BRANCH   1  25
ATOM     22  C   UNL     1       4.784  -3.566   1.790  0.00  0.00    -0.048 A 
ATOM     23  C   UNL     1       4.465  -2.234   1.592  0.00  0.00    +0.004 A 
ATOM     24  C   UNL     1       3.380  -1.678   2.236  0.00  0.00    +0.013 A 
ATOM     25  C   UNL     1       2.601  -2.462   3.089  0.00  0.00    +0.037 A 
ATOM     26  C   UNL     1       2.928  -3.805   3.284  0.00  0.00    +0.013 A 
ATOM     27  C   UNL     1       4.013  -4.350   2.630  0.00  0.00    +0.004 A 
BRANCH  22  29
ATOM     28  C   UNL     1       5.528  -4.731  -0.269  0.00  0.00    +0.009 C 
ATOM     29  C   UNL     1       5.971  -4.166   1.083  0.00  0.00    +0.032 C 
ENDBRANCH  22  29
ENDBRANCH   1  25
BRANCH  10  30
ATOM     30  C   UNL     1       0.246  -5.016   9.927  0.00  0.00    +0.236 C 
ATOM     31  O   UNL     1       0.656  -5.829   9.126  0.00  0.00    -0.274 OA
ATOM     32  N   UNL     1      -0.098  -5.407  11.170  0.00  0.00    -0.315 N 
ATOM     33  H   UNL     1      -0.425  -4.757  11.810  0.00  0.00    +0.149 HD
BRANCH  32  34
ATOM     34  C   UNL     1       0.022  -6.816  11.553  0.00  0.00    +0.085 C 
BRANCH  34  35
ATOM     35  C   UNL     1      -0.430  -6.990  13.004  0.00  0.00    -0.061 C 
BRANCH  35  36
ATOM     36  N   UNL     1      -0.310  -8.403  13.389  0.00  0.00    +0.377 N 
ATOM     37  C   UNL     1       1.105  -8.796  13.373  0.00  0.00    -0.097 C 
ATOM     38  C   UNL     1      -0.855  -8.591  14.740  0.00  0.00    -0.097 C 
ATOM     39  H   UNL     1      -0.825  -8.974  12.736  0.00  0.00    -0.083 HD
ENDBRANCH  35  36
ENDBRANCH  34  35
ENDBRANCH  32  34
ENDBRANCH  10  30
TORSDOF 7
