REMARK  Name = ZINC02496184
REMARK  8 active torsions:
REMARK  status: ('A' for Active; 'I' for Inactive)
REMARK    1  A    between atoms: C_1  and  C_2
REMARK    2  A    between atoms: C_2  and  O_3
REMARK    3  A    between atoms: O_3  and  C_4
REMARK    4  A    between atoms: C_4  and  C_6
REMARK    5  A    between atoms: N_19  and  C_30
REMARK    6  A    between atoms: N_21  and  C_22
REMARK    7  A    between atoms: C_22  and  C_24
REMARK    8  A    between atoms: C_30  and  C_31
REMARK                            x       y       z     vdW  Elec       q    Type
REMARK                         _______ _______ _______ _____ _____    ______ ____
ROOT
ATOM      1  C   UNL     1       5.081   1.115   0.367  0.00  0.00    +0.100 A 
ATOM      2  C   UNL     1       3.933   1.892   0.526  0.00  0.00    +0.035 A 
ATOM      3  C   UNL     1       2.682   1.275   0.455  0.00  0.00    +0.083 A 
ATOM      4  C   UNL     1       2.586  -0.120   0.225  0.00  0.00    +0.150 A 
ATOM      5  N   UNL     1       1.388  -0.682   0.161  0.00  0.00    -0.211 NA
ATOM      6  C   UNL     1       0.263   0.019   0.305  0.00  0.00    +0.143 A 
ATOM      7  C   UNL     1      -0.968  -0.658   0.223  0.00  0.00    +0.047 A 
ATOM      8  C   UNL     1      -2.131   0.038   0.367  0.00  0.00    +0.005 A 
ATOM      9  C   UNL     1      -2.087   1.419   0.596  0.00  0.00    +0.018 A 
ATOM     10  C   UNL     1      -0.896   2.054   0.679  0.00  0.00    +0.096 A 
ATOM     11  N   UNL     1       0.272   1.367   0.530  0.00  0.00    -0.268 N 
ATOM     12  C   UNL     1       1.444   2.039   0.613  0.00  0.00    +0.268 A 
ATOM     13  O   UNL     1       1.467   3.240   0.813  0.00  0.00    -0.267 OA
ATOM     14  N   UNL     1       3.725  -0.867   0.073  0.00  0.00    -0.309 N 
ATOM     15  C   UNL     1       4.957  -0.278   0.139  0.00  0.00    +0.142 A 
ATOM     16  N   UNL     1       6.052  -1.020  -0.013  0.00  0.00    -0.158 NA
ENDROOT
BRANCH   1  17
ATOM     17  C   UNL     1       6.409   1.737   0.437  0.00  0.00    +0.343 C 
ATOM     18  O   UNL     1       7.407   1.056   0.298  0.00  0.00    -0.245 OA
BRANCH  17  19
ATOM     19  O   UNL     1       6.522   3.063   0.654  0.00  0.00    -0.461 OA
BRANCH  19  21
ATOM     20  C   UNL     1       7.793   5.117   0.964  0.00  0.00    +0.048 C 
ATOM     21  C   UNL     1       7.866   3.609   0.711  0.00  0.00    +0.229 C 
ENDBRANCH  19  21
ENDBRANCH  17  19
ENDBRANCH   1  17
BRANCH  16  22
ATOM     22  C   UNL     1       5.981  -2.193  -0.649  0.00  0.00    +0.269 C 
ATOM     23  O   UNL     1       5.534  -2.246  -1.781  0.00  0.00    -0.268 OA
BRANCH  22  24
ATOM     24  C   UNL     1       6.446  -3.431   0.024  0.00  0.00    +0.042 A 
ATOM     25  C   UNL     1       6.871  -3.409   1.355  0.00  0.00    +0.033 A 
ATOM     26  C   UNL     1       7.291  -4.585   1.944  0.00  0.00    +0.111 A 
ATOM     27  N   UNL     1       7.305  -5.715   1.264  0.00  0.00    -0.263 NA
ATOM     28  C   UNL     1       6.918  -5.778   0.005  0.00  0.00    +0.111 A 
ATOM     29  C   UNL     1       6.477  -4.650  -0.659  0.00  0.00    +0.033 A 
ENDBRANCH  22  24
ENDBRANCH  16  22
BRANCH  14  30
ATOM     30  C   UNL     1       3.622  -2.309  -0.165  0.00  0.00    +0.156 C 
BRANCH  30  31
ATOM     31  C   UNL     1       2.303  -2.827   0.412  0.00  0.00    +0.138 C 
ATOM     32  C   UNL     1       2.264  -4.375   0.359  0.00  0.00    +0.035 C 
ATOM     33  C   UNL     1       1.259  -4.683   1.504  0.00  0.00    +0.031 C 
ATOM     34  C   UNL     1       1.561  -3.559   2.518  0.00  0.00    +0.160 C 
ATOM     35  O   UNL     1       2.203  -2.495   1.806  0.00  0.00    -0.375 OA
ENDBRANCH  30  31
ENDBRANCH  14  30
TORSDOF 7
