REMARK  Name = ZINC63350408
REMARK  4 active torsions:
REMARK  status: ('A' for Active; 'I' for Inactive)
REMARK    1  A    between atoms: C_1  and  C_2
REMARK    2  A    between atoms: N_18  and  C_21
REMARK    3  A    between atoms: C_24  and  O_27
REMARK    4  A    between atoms: O_27  and  C_28
REMARK                            x       y       z     vdW  Elec       q    Type
REMARK                         _______ _______ _______ _____ _____    ______ ____
ROOT
ATOM      1  C   UNL     1      -0.026   1.515  -0.021  0.00  0.00    +0.044 C 
ATOM      2  C   UNL     1       0.005  -0.015  -0.005  0.00  0.00    +0.137 C 
ATOM      3  C   UNL     1       0.745  -0.583  -1.222  0.00  0.00    +0.139 C 
ATOM      4  C   UNL     1       2.232  -0.383  -0.955  0.00  0.00    -0.034 C 
ATOM      5  C   UNL     1       2.701   0.334  -1.971  0.00  0.00    -0.001 A 
ATOM      6  C   UNL     1       4.061   0.788  -2.301  0.00  0.00    +0.010 A 
ATOM      7  C   UNL     1       4.188   1.527  -3.435  0.00  0.00    +0.001 A 
ATOM      8  C   UNL     1       3.110   1.856  -4.263  0.00  0.00    +0.002 A 
ATOM      9  C   UNL     1       1.827   1.476  -4.039  0.00  0.00    +0.026 A 
ATOM     10  C   UNL     1       1.568   0.692  -2.877  0.00  0.00    +0.043 A 
ATOM     11  N   UNL     1       0.443   0.181  -2.435  0.00  0.00    -0.375 N 
ATOM     12  C   UNL     1       2.924  -0.884   0.289  0.00  0.00    +0.052 C 
ATOM     13  C   UNL     1       2.113  -0.375   1.497  0.00  0.00    +0.115 C 
ATOM     14  N   UNL     1       0.688  -0.543   1.198  0.00  0.00    -0.268 N 
ATOM     15  C   UNL     1      -0.236  -1.200   1.909  0.00  0.00    +0.316 C 
ATOM     16  O   UNL     1      -0.029  -1.683   3.006  0.00  0.00    -0.252 OA
ATOM     17  N   UNL     1      -1.414  -1.265   1.276  0.00  0.00    -0.192 N 
ATOM     18  C   UNL     1      -1.383  -0.608   0.098  0.00  0.00    +0.253 C 
ATOM     19  O   UNL     1      -2.282  -0.511  -0.710  0.00  0.00    -0.272 OA
ATOM     20  H   UNL     1      -0.435   0.289  -2.833  0.00  0.00    +0.160 HD
ENDROOT
BRANCH  17  21
ATOM     21  C   UNL     1      -2.542  -1.935   1.775  0.00  0.00    +0.046 A 
ATOM     22  C   UNL     1      -3.755  -1.845   1.106  0.00  0.00    +0.027 A 
ATOM     23  C   UNL     1      -4.865  -2.505   1.597  0.00  0.00    +0.048 A 
ATOM     24  C   UNL     1      -4.767  -3.256   2.760  0.00  0.00    +0.129 A 
ATOM     25  C   UNL     1      -3.555  -3.345   3.429  0.00  0.00    +0.048 A 
ATOM     26  C   UNL     1      -2.444  -2.691   2.935  0.00  0.00    +0.027 A 
BRANCH  24  27
ATOM     27  O   UNL     1      -5.859  -3.905   3.243  0.00  0.00    -0.450 OA
BRANCH  27  28
ATOM     28  C   UNL     1      -5.718  -4.630   4.385  0.00  0.00    +0.204 A 
ATOM     29  C   UNL     1      -5.353  -5.967   4.318  0.00  0.00    +0.206 A 
ATOM     30  C   UNL     1      -5.209  -6.705   5.482  0.00  0.00    +0.200 A 
ATOM     31  C   UNL     1      -5.430  -6.107   6.713  0.00  0.00    +0.199 A 
ATOM     32  C   UNL     1      -5.795  -4.772   6.782  0.00  0.00    +0.200 A 
ATOM     33  C   UNL     1      -5.933  -4.031   5.619  0.00  0.00    +0.206 A 
ATOM     34  F   UNL     1      -6.282  -2.728   5.686  0.00  0.00    -0.198 F 
ATOM     35  F   UNL     1      -6.010  -4.192   7.982  0.00  0.00    -0.199 F 
ATOM     36  F   UNL     1      -5.290  -6.828   7.848  0.00  0.00    -0.199 F 
ATOM     37  F   UNL     1      -4.854  -8.007   5.417  0.00  0.00    -0.199 F 
ATOM     38  F   UNL     1      -5.139  -6.550   3.118  0.00  0.00    -0.198 F 
ENDBRANCH  27  28
ENDBRANCH  24  27
ENDBRANCH  17  21
TORSDOF 3
