REMARK  Name = ZINC35511540
REMARK  5 active torsions:
REMARK  status: ('A' for Active; 'I' for Inactive)
REMARK    1  A    between atoms: C_1  and  C_2
REMARK    2  A    between atoms: C_5  and  N_9
REMARK    3  A    between atoms: C_12  and  C_14
REMARK    4  A    between atoms: C_15  and  C_21
REMARK    5  A    between atoms: C_21  and  C_23
REMARK                            x       y       z     vdW  Elec       q    Type
REMARK                         _______ _______ _______ _____ _____    ______ ____
ROOT
ATOM      1  N   UNL     1       0.059  -4.173  -0.022  0.00  0.00    -0.218 N 
ATOM      2  C   UNL     1       0.694  -4.966   0.865  0.00  0.00    +0.133 A 
ATOM      3  C   UNL     1       0.449  -6.266   0.506  0.00  0.00    +0.026 A 
ATOM      4  C   UNL     1      -0.344  -6.254  -0.631  0.00  0.00    +0.066 A 
ATOM      5  N   UNL     1      -0.586  -5.005  -0.952  0.00  0.00    -0.170 NA
ATOM      6  C   UNL     1      -0.846  -7.468  -1.369  0.00  0.00    +0.068 C 
ATOM      7  C   UNL     1       0.990  -7.434   1.291  0.00  0.00    +0.104 C 
ATOM      8  C   UNL     1       2.297  -6.998   1.963  0.00  0.00    +0.112 C 
ATOM      9  C   UNL     1       2.164  -5.633   2.577  0.00  0.00    +0.219 C 
ATOM     10  O   UNL     1       2.701  -5.413   3.643  0.00  0.00    -0.275 OA
ATOM     11  N   UNL     1       1.466  -4.644   1.980  0.00  0.00    -0.270 N 
ATOM     12  H   UNL     1       1.500  -3.735   2.317  0.00  0.00    +0.156 HD
ENDROOT
BRANCH   1  17
ATOM     13  C   UNL     1      -0.018   1.503   0.010  0.00  0.00    +0.045 C 
ATOM     14  C   UNL     1       0.002  -0.004   0.002  0.00  0.00    -0.032 A 
ATOM     15  C   UNL     1       0.006  -0.688  -1.200  0.00  0.00    +0.007 A 
ATOM     16  C   UNL     1       0.025  -2.068  -1.211  0.00  0.00    +0.028 A 
ATOM     17  C   UNL     1       0.040  -2.771  -0.013  0.00  0.00    +0.069 A 
ATOM     18  C   UNL     1       0.037  -2.083   1.192  0.00  0.00    +0.048 A 
ATOM     19  C   UNL     1       0.023  -0.701   1.197  0.00  0.00    +0.046 A 
ATOM     20 CL   UNL     1       0.025   0.161   2.704  0.00  0.00    -0.083 Cl
ENDBRANCH   1  17
BRANCH   7  21
ATOM     21  C   UNL     1      -0.009  -7.846   2.341  0.00  0.00    +0.171 C 
ATOM     22  O   UNL     1      -0.812  -7.042   2.763  0.00  0.00    -0.291 OA
BRANCH  21  23
ATOM     23  C   UNL     1      -0.009  -9.225   2.855  0.00  0.00    +0.018 A 
ATOM     24  C   UNL     1       0.919 -10.155   2.375  0.00  0.00    +0.011 A 
ATOM     25  C   UNL     1       0.912 -11.445   2.861  0.00  0.00    +0.001 A 
ATOM     26  C   UNL     1      -0.010 -11.821   3.822  0.00  0.00    +0.000 A 
ATOM     27  C   UNL     1      -0.933 -10.908   4.302  0.00  0.00    +0.001 A 
ATOM     28  C   UNL     1      -0.935  -9.612   3.829  0.00  0.00    +0.011 A 
ENDBRANCH  21  23
ENDBRANCH   7  21
TORSDOF 3
