REMARK  Name = ZINC39884044
REMARK  9 active torsions:
REMARK  status: ('A' for Active; 'I' for Inactive)
REMARK    1  A    between atoms: C_1  and  C_2
REMARK    2  A    between atoms: C_2  and  C_3
REMARK    3  A    between atoms: C_3  and  C_4
REMARK    4  A    between atoms: C_4  and  O_5
REMARK    5  A    between atoms: O_5  and  C_6
REMARK    6  A    between atoms: C_6  and  C_8
REMARK    7  A    between atoms: C_8  and  N_9
REMARK    8  A    between atoms: C_27  and  C_37
REMARK    9  A    between atoms: C_40  and  O_43
REMARK                            x       y       z     vdW  Elec       q    Type
REMARK                         _______ _______ _______ _____ _____    ______ ____
ROOT
ATOM      1  N   UNL     1       2.187  -5.840  -3.758  0.00  0.00    -0.231 N 
ATOM      2  C   UNL     1       3.172  -6.595  -3.160  0.00  0.00    +0.226 C 
ATOM      3  O   UNL     1       4.017  -6.233  -2.369  0.00  0.00    -0.275 OA
ATOM      4  C   UNL     1       2.954  -7.965  -3.715  0.00  0.00    +0.091 C 
ATOM      5  C   UNL     1       3.243  -9.269  -2.925  0.00  0.00    +0.007 C 
ATOM      6  C   UNL     1       1.858  -9.598  -2.228  0.00  0.00    +0.010 C 
ATOM      7  C   UNL     1       0.937  -9.288  -3.512  0.00  0.00    +0.015 C 
ATOM      8  C   UNL     1       1.375  -7.882  -3.603  0.00  0.00    +0.092 C 
ATOM      9  C   UNL     1       1.174  -6.621  -4.294  0.00  0.00    +0.226 C 
ATOM     10  O   UNL     1       0.340  -6.329  -5.123  0.00  0.00    -0.275 OA
ATOM     11  C   UNL     1       1.584 -10.319  -4.431  0.00  0.00    +0.061 C 
ATOM     12  C   UNL     1       3.119 -10.200  -4.134  0.00  0.00    +0.019 C 
ATOM     13  C   UNL     1       3.936 -11.350  -4.528  0.00  0.00    +0.063 C 
ATOM     14  C   UNL     1       3.722 -11.578  -6.007  0.00  0.00    +0.032 A 
ATOM     15  C   UNL     1       2.783 -11.063  -6.830  0.00  0.00    +0.087 A 
ATOM     16  N   UNL     1       2.896 -11.448  -8.145  0.00  0.00    -0.311 N 
ATOM     17  H   UNL     1       2.276 -11.103  -8.805  0.00  0.00    +0.170 HD
ATOM     18  C   UNL     1       3.868 -12.302  -8.516  0.00  0.00    +0.289 A 
ATOM     19  O   UNL     1       4.101 -12.745  -9.627  0.00  0.00    -0.260 OA
ATOM     20  S   UNL     1       4.685 -12.611  -7.078  0.00  0.00    -0.030 S 
ATOM     21  S   UNL     1       1.418 -10.018  -6.210  0.00  0.00    -0.103 S 
ENDROOT
BRANCH  13  22
ATOM     22  C   UNL     1       5.390 -11.061  -4.259  0.00  0.00    -0.039 A 
ATOM     23  C   UNL     1       6.006  -9.987  -4.876  0.00  0.00    +0.008 A 
ATOM     24  C   UNL     1       7.339  -9.720  -4.631  0.00  0.00    +0.045 A 
ATOM     25  C   UNL     1       8.060 -10.529  -3.765  0.00  0.00    +0.117 A 
ATOM     26  C   UNL     1       7.440 -11.605  -3.147  0.00  0.00    +0.045 A 
ATOM     27  C   UNL     1       6.105 -11.866  -3.391  0.00  0.00    +0.008 A 
BRANCH  25  28
ATOM     28  O   UNL     1       9.372 -10.269  -3.523  0.00  0.00    -0.507 OA
ATOM     29  H   UNL     1       9.523  -9.673  -2.777  0.00  0.00    +0.292 HD
ENDBRANCH  25  28
ENDBRANCH  13  22
BRANCH   1  30
ATOM     30  C   UNL     1       2.205  -4.377  -3.817  0.00  0.00    +0.236 C 
BRANCH  30  31
ATOM     31  C   UNL     1       1.512  -3.817  -2.601  0.00  0.00    +0.325 C 
ATOM     32  O   UNL     1       1.051  -4.564  -1.771  0.00  0.00    -0.249 OA
BRANCH  31  33
ATOM     33  O   UNL     1       1.408  -2.488  -2.441  0.00  0.00    -0.464 OA
BRANCH  33  34
ATOM     34  C   UNL     1       0.739  -2.027  -1.265  0.00  0.00    +0.232 C 
BRANCH  34  35
ATOM     35  C   UNL     1       0.718  -0.497  -1.257  0.00  0.00    +0.041 C 
BRANCH  35  37
ATOM     36  C   UNL     1      -0.019   1.526   0.010  0.00  0.00    +0.004 C 
ATOM     37  C   UNL     1       0.002  -0.004   0.002  0.00  0.00    -0.000 C 
ENDBRANCH  35  37
ENDBRANCH  34  35
ENDBRANCH  33  34
ENDBRANCH  31  33
ENDBRANCH  30  31
ENDBRANCH   1  30
TORSDOF 8
