REMARK  Name = ZINC09762803
REMARK  8 active torsions:
REMARK  status: ('A' for Active; 'I' for Inactive)
REMARK    1  A    between atoms: C_1  and  C_2
REMARK    2  A    between atoms: C_5  and  S_8
REMARK    3  A    between atoms: S_8  and  N_11
REMARK    4  A    between atoms: C_16  and  C_17
REMARK    5  A    between atoms: C_16  and  N_55
REMARK    6  A    between atoms: N_19  and  N_20
REMARK    7  A    between atoms: C_21  and  C_22
REMARK    8  A    between atoms: C_21  and  C_23
REMARK                            x       y       z     vdW  Elec       q    Type
REMARK                         _______ _______ _______ _____ _____    ______ ____
ROOT
ATOM      1  N   UNL     1      -1.136   3.626  -0.652  0.00  0.00    -0.180 NA
ATOM      2  C   UNL     1      -0.978   2.211  -1.021  0.00  0.00    +0.091 C 
ATOM      3  C   UNL     1      -0.156   1.513   0.067  0.00  0.00    -0.061 C 
ATOM      4  C   UNL     1      -0.782   3.176   1.718  0.00  0.00    -0.061 C 
ATOM      5  C   UNL     1      -1.630   3.942   0.697  0.00  0.00    +0.091 C 
ATOM      6  N   UNL     1      -0.810   1.737   1.375  0.00  0.00    +0.387 N 
ATOM      7  H   UNL     1      -1.788   1.429   1.315  0.00  0.00    -0.081 HD
ENDROOT
BRANCH   1   8
ATOM      8  S   UNL     1      -0.769   4.831  -1.727  0.00  0.00    +0.061 S 
ATOM      9  O   UNL     1      -0.482   5.989  -0.955  0.00  0.00    -0.153 OA
ATOM     10  O   UNL     1       0.161   4.282  -2.651  0.00  0.00    -0.153 OA
BRANCH   8  15
ATOM     11  C   UNL     1      -5.792   6.036  -4.845  0.00  0.00    +0.044 C 
ATOM     12  C   UNL     1      -4.537   5.735  -4.066  0.00  0.00    -0.050 A 
ATOM     13  C   UNL     1      -4.271   6.417  -2.894  0.00  0.00    +0.005 A 
ATOM     14  C   UNL     1      -3.120   6.141  -2.179  0.00  0.00    +0.029 A 
ATOM     15  C   UNL     1      -2.236   5.183  -2.637  0.00  0.00    +0.105 A 
ATOM     16  C   UNL     1      -2.499   4.504  -3.812  0.00  0.00    +0.029 A 
ATOM     17  C   UNL     1      -3.652   4.777  -4.524  0.00  0.00    +0.005 A 
ENDBRANCH   8  15
ENDBRANCH   1   8
BRANCH   6  18
ATOM     18  C   UNL     1      -0.123   0.955   2.423  0.00  0.00    +0.020 C 
BRANCH  18  19
ATOM     19  C   UNL     1       1.300   1.423   2.588  0.00  0.00    +0.216 C 
ATOM     20  O   UNL     1       1.756   2.255   1.832  0.00  0.00    -0.276 OA
ATOM     21  N   UNL     1       2.065   0.918   3.575  0.00  0.00    -0.208 N 
ATOM     22  H   UNL     1       1.701   0.253   4.180  0.00  0.00    +0.177 HD
BRANCH  21  23
ATOM     23  N   UNL     1       3.388   1.353   3.728  0.00  0.00    -0.185 NA
ATOM     24  C   UNL     1       4.125   0.866   4.679  0.00  0.00    +0.063 C 
ATOM     25  C   UNL     1       3.559  -0.167   5.618  0.00  0.00    +0.068 C 
BRANCH  24  26
ATOM     26  C   UNL     1       5.518   1.324   4.840  0.00  0.00    -0.001 A 
ATOM     27  C   UNL     1       6.046   2.282   3.970  0.00  0.00    +0.011 A 
ATOM     28  C   UNL     1       7.349   2.707   4.126  0.00  0.00    +0.022 A 
ATOM     29  C   UNL     1       8.134   2.187   5.142  0.00  0.00    +0.059 A 
ATOM     30  C   UNL     1       7.616   1.237   6.008  0.00  0.00    +0.060 A 
ATOM     31  C   UNL     1       6.312   0.807   5.865  0.00  0.00    +0.031 A 
ATOM     32 CL   UNL     1       8.607   0.591   7.279  0.00  0.00    -0.082 Cl
ATOM     33 CL   UNL     1       9.772   2.728   5.331  0.00  0.00    -0.082 Cl
ENDBRANCH  24  26
ENDBRANCH  21  23
ENDBRANCH  18  19
ENDBRANCH   6  18
TORSDOF 6
