REMARK  Name = ZINC02719780
REMARK  6 active torsions:
REMARK  status: ('A' for Active; 'I' for Inactive)
REMARK    1  A    between atoms: C_1  and  C_2
REMARK    2  A    between atoms: C_5  and  N_8
REMARK    3  A    between atoms: C_14  and  S_15
REMARK    4  A    between atoms: S_15  and  C_16
REMARK    5  A    between atoms: C_16  and  C_17
REMARK    6  A    between atoms: C_22  and  C_23
REMARK                            x       y       z     vdW  Elec       q    Type
REMARK                         _______ _______ _______ _____ _____    ______ ____
ROOT
ATOM      1  N   UNL     1      -2.456   1.590   5.298  0.00  0.00    -0.255 N 
ATOM      2  C   UNL     1      -2.202   2.641   6.111  0.00  0.00    +0.273 A 
ATOM      3  O   UNL     1      -3.106   3.368   6.490  0.00  0.00    -0.266 OA
ATOM      4  C   UNL     1      -0.879   2.875   6.509  0.00  0.00    +0.094 A 
ATOM      5  C   UNL     1       0.148   2.050   6.096  0.00  0.00    +0.064 A 
ATOM      6  N   UNL     1      -0.183   1.029   5.277  0.00  0.00    -0.227 NA
ATOM      7  C   UNL     1      -1.415   0.807   4.891  0.00  0.00    +0.177 A 
ATOM      8  C   UNL     1       1.526   2.378   6.616  0.00  0.00    +0.068 C 
ATOM      9  C   UNL     1       1.621   3.844   7.097  0.00  0.00    +0.081 C 
ATOM     10  S   UNL     1      -0.145   4.138   7.523  0.00  0.00    -0.118 S 
ENDROOT
BRANCH   1  15
ATOM     11  C   UNL     1      -7.754   0.459   3.609  0.00  0.00    +0.044 C 
ATOM     12  C   UNL     1      -6.347   0.759   4.058  0.00  0.00    -0.050 A 
ATOM     13  C   UNL     1      -5.548   1.601   3.306  0.00  0.00    +0.005 A 
ATOM     14  C   UNL     1      -4.258   1.878   3.714  0.00  0.00    +0.026 A 
ATOM     15  C   UNL     1      -3.764   1.311   4.881  0.00  0.00    +0.052 A 
ATOM     16  C   UNL     1      -4.567   0.462   5.631  0.00  0.00    +0.026 A 
ATOM     17  C   UNL     1      -5.858   0.193   5.220  0.00  0.00    +0.005 A 
ENDBRANCH   1  15
BRANCH   7  18
ATOM     18  S   UNL     1      -1.740  -0.552   3.817  0.00  0.00    -0.083 S 
BRANCH  18  19
ATOM     19  C   UNL     1      -0.064  -1.203   3.619  0.00  0.00    +0.112 C 
BRANCH  19  20
ATOM     20  C   UNL     1      -0.096  -2.407   2.712  0.00  0.00    -0.034 A 
ATOM     21  C   UNL     1      -0.276  -3.670   3.245  0.00  0.00    +0.005 A 
ATOM     22  C   UNL     1      -0.307  -4.773   2.413  0.00  0.00    +0.000 A 
ATOM     23  C   UNL     1      -0.158  -4.614   1.048  0.00  0.00    +0.000 A 
ATOM     24  C   UNL     1       0.017  -3.351   0.515  0.00  0.00    +0.003 A 
ATOM     25  C   UNL     1       0.052  -2.248   1.347  0.00  0.00    -0.046 A 
ATOM     26  C   UNL     1       0.248  -0.871   0.766  0.00  0.00    +0.044 C 
ENDBRANCH  19  20
ENDBRANCH  18  19
ENDBRANCH   7  18
TORSDOF 4
