REMARK  Name = ZINC63896818
REMARK  8 active torsions:
REMARK  status: ('A' for Active; 'I' for Inactive)
REMARK    1  A    between atoms: C_1  and  C_2
REMARK    2  A    between atoms: C_5  and  C_16
REMARK    3  A    between atoms: C_6  and  C_15
REMARK    4  A    between atoms: N_7  and  C_8
REMARK    5  A    between atoms: C_16  and  C_18
REMARK    6  A    between atoms: C_18  and  S_19
REMARK    7  A    between atoms: S_19  and  C_20
REMARK    8  A    between atoms: C_23  and  C_25
REMARK                            x       y       z     vdW  Elec       q    Type
REMARK                         _______ _______ _______ _____ _____    ______ ____
ROOT
ATOM      1  C   UNL     1      -3.767  -2.252   0.885  0.00  0.00    +0.158 C 
ENDROOT
BRANCH   1   2
ATOM      2  C   UNL     1      -2.416  -2.395   1.536  0.00  0.00    +0.171 C 
ATOM      3  O   UNL     1      -2.224  -3.278   2.349  0.00  0.00    -0.291 OA
BRANCH   2   7
ATOM      4  C   UNL     1      -0.175   1.699   0.563  0.00  0.00    +0.029 C 
ATOM      5  C   UNL     1      -0.046   0.217   0.203  0.00  0.00    +0.080 C 
ATOM      6  C   UNL     1      -1.437  -0.443   0.133  0.00  0.00    +0.062 C 
ATOM      7  C   UNL     1      -1.380  -1.511   1.204  0.00  0.00    +0.015 C 
ATOM      8  C   UNL     1      -0.164  -1.465   1.785  0.00  0.00    +0.015 C 
ATOM      9  N   UNL     1       0.652  -0.511   1.271  0.00  0.00    -0.300 N 
ATOM     10  C   UNL     1       0.252  -2.389   2.901  0.00  0.00    +0.061 C 
BRANCH   9  11
ATOM     11  C   UNL     1       1.961  -0.257   1.693  0.00  0.00    +0.034 A 
ATOM     12  C   UNL     1       2.195   0.264   2.959  0.00  0.00    +0.026 A 
ATOM     13  C   UNL     1       3.488   0.514   3.374  0.00  0.00    +0.040 A 
ATOM     14  C   UNL     1       4.551   0.246   2.528  0.00  0.00    +0.124 A 
ATOM     15  C   UNL     1       4.321  -0.273   1.265  0.00  0.00    +0.040 A 
ATOM     16  C   UNL     1       3.029  -0.530   0.848  0.00  0.00    +0.026 A 
ATOM     17  F   UNL     1       5.816   0.492   2.935  0.00  0.00    -0.205 F 
ENDBRANCH   9  11
ENDBRANCH   2   7
ENDBRANCH   1   2
BRANCH   1  18
ATOM     18  S   UNL     1      -4.883  -3.534   1.518  0.00  0.00    -0.058 S 
BRANCH  18  19
ATOM     19  C   UNL     1      -6.399  -3.235   0.672  0.00  0.00    +0.278 A 
ATOM     20  N   UNL     1      -6.623  -2.283  -0.220  0.00  0.00    -0.101 NA
ATOM     21  N   UNL     1      -7.840  -2.360  -0.631  0.00  0.00    -0.107 NA
ATOM     22  C   UNL     1      -8.444  -3.365  -0.018  0.00  0.00    +0.248 A 
ATOM     23  O   UNL     1      -7.538  -3.937   0.811  0.00  0.00    -0.411 OA
BRANCH  22  24
ATOM     24  C   UNL     1      -9.775  -3.769  -0.199  0.00  0.00    +0.044 C 
ATOM     25  C   UNL     1     -10.720  -3.202  -1.055  0.00  0.00    +0.008 A 
ATOM     26  C   UNL     1     -10.660  -2.118  -1.956  0.00  0.00    +0.010 A 
ATOM     27  C   UNL     1     -11.760  -1.781  -2.678  0.00  0.00    +0.001 A 
ATOM     28  C   UNL     1     -12.960  -2.483  -2.553  0.00  0.00    +0.002 A 
ATOM     29  C   UNL     1     -13.089  -3.534  -1.706  0.00  0.00    +0.026 A 
ATOM     30  C   UNL     1     -11.983  -3.946  -0.919  0.00  0.00    +0.043 A 
ATOM     31  N   UNL     1     -11.853  -4.918  -0.038  0.00  0.00    -0.380 N 
ATOM     32  C   UNL     1     -10.485  -4.914   0.490  0.00  0.00    +0.154 C 
ATOM     33  H   UNL     1     -12.551  -5.541   0.217  0.00  0.00    +0.160 HD
ENDBRANCH  22  24
ENDBRANCH  18  19
ENDBRANCH   1  18
TORSDOF 6
