REMARK  Name = ZINC04714292
REMARK  5 active torsions:
REMARK  status: ('A' for Active; 'I' for Inactive)
REMARK    1  A    between atoms: C_1  and  C_2
REMARK    2  A    between atoms: C_5  and  N_8
REMARK    3  A    between atoms: C_9  and  C_13
REMARK    4  A    between atoms: C_13  and  C_15
REMARK    5  A    between atoms: C_13  and  N_51
REMARK                            x       y       z     vdW  Elec       q    Type
REMARK                         _______ _______ _______ _____ _____    ______ ____
ROOT
ATOM      1  C   UNL     1       3.676   2.606  -1.639  0.00  0.00    +0.034 C 
ENDROOT
BRANCH   1   2
ATOM      2  C   UNL     1       3.634   2.037  -3.034  0.00  0.00    -0.050 A 
ATOM      3  C   UNL     1       2.839   0.940  -3.308  0.00  0.00    +0.006 A 
ATOM      4  C   UNL     1       2.796   0.414  -4.586  0.00  0.00    +0.050 A 
ATOM      5  C   UNL     1       3.551   0.987  -5.596  0.00  0.00    +0.166 A 
ATOM      6  C   UNL     1       4.353   2.092  -5.321  0.00  0.00    +0.166 A 
ATOM      7  C   UNL     1       4.386   2.617  -4.039  0.00  0.00    +0.052 A 
ATOM      8  O   UNL     1       4.989   2.466  -6.469  0.00  0.00    -0.453 OA
ATOM      9  C   UNL     1       4.259   1.835  -7.537  0.00  0.00    +0.466 C 
ATOM     10  O   UNL     1       3.686   0.668  -6.917  0.00  0.00    -0.453 OA
ENDBRANCH   1   2
BRANCH   1  16
ATOM     11  C   UNL     1       5.999   1.955  -1.429  0.00  0.00    -0.077 C 
ATOM     12  C   UNL     1       7.421   2.494  -1.254  0.00  0.00    -0.019 C 
ATOM     13  C   UNL     1       7.536   3.183   0.108  0.00  0.00    -0.004 C 
ATOM     14  C   UNL     1       6.494   4.302   0.195  0.00  0.00    -0.019 C 
ATOM     15  C   UNL     1       5.099   3.711  -0.022  0.00  0.00    -0.077 C 
ATOM     16  N   UNL     1       5.046   3.084  -1.360  0.00  0.00    +0.389 N 
ATOM     17  H   UNL     1       5.306   3.783  -2.066  0.00  0.00    -0.080 HD
ENDBRANCH   1  16
BRANCH   1  19
ATOM     18  N   UNL     1       2.156   1.534   0.106  0.00  0.00    -0.198 N 
ATOM     19  C   UNL     1       3.274   1.542  -0.651  0.00  0.00    +0.148 A 
ATOM     20  N   UNL     1       3.943   0.455  -0.367  0.00  0.00    -0.114 NA
ATOM     21  N   UNL     1       3.323  -0.239   0.518  0.00  0.00    -0.023 NA
ATOM     22  N   UNL     1       2.230   0.352   0.863  0.00  0.00    -0.039 NA
BRANCH  18  27
ATOM     23  C   UNL     1      -1.953   5.449   0.226  0.00  0.00    +0.044 C 
ATOM     24  C   UNL     1      -0.862   4.410   0.194  0.00  0.00    -0.050 A 
ATOM     25  C   UNL     1      -0.407   3.851   1.374  0.00  0.00    +0.005 A 
ATOM     26  C   UNL     1       0.597   2.903   1.349  0.00  0.00    +0.028 A 
ATOM     27  C   UNL     1       1.141   2.502   0.136  0.00  0.00    +0.069 A 
ATOM     28  C   UNL     1       0.677   3.060  -1.048  0.00  0.00    +0.028 A 
ATOM     29  C   UNL     1      -0.323   4.012  -1.016  0.00  0.00    +0.005 A 
ENDBRANCH  18  27
ENDBRANCH   1  19
TORSDOF 4
