REMARK  Name = ZINC39862223
REMARK  7 active torsions:
REMARK  status: ('A' for Active; 'I' for Inactive)
REMARK    1  A    between atoms: C_4  and  N_25
REMARK    2  A    between atoms: C_5  and  C_7
REMARK    3  A    between atoms: N_11  and  C_15
REMARK    4  A    between atoms: C_15  and  C_17
REMARK    5  A    between atoms: C_15  and  C_22
REMARK    6  A    between atoms: C_17  and  C_18
REMARK    7  A    between atoms: C_18  and  C_19
REMARK                            x       y       z     vdW  Elec       q    Type
REMARK                         _______ _______ _______ _____ _____    ______ ____
ROOT
ATOM      1  C   UNL     1       1.446  -2.177  -0.115  0.00  0.00    +0.030 C 
ATOM      2  C   UNL     1       0.345  -2.959  -0.243  0.00  0.00    +0.077 C 
ATOM      3  C   UNL     1       0.227  -4.432  -0.213  0.00  0.00    +0.259 C 
ATOM      4  O   UNL     1       1.198  -5.149  -0.055  0.00  0.00    -0.269 OA
ATOM      5  N   UNL     1      -0.988  -4.931  -0.367  0.00  0.00    -0.241 N 
ATOM      6  C   UNL     1      -2.061  -4.133  -0.541  0.00  0.00    +0.121 C 
ATOM      7  S   UNL     1      -3.698  -4.585  -0.754  0.00  0.00    -0.027 S 
ATOM      8  S   UNL     1      -1.362  -2.491  -0.488  0.00  0.00    -0.061 S 
ENDROOT
BRANCH   1  13
ATOM      9  C   UNL     1       0.046   1.222   0.622  0.00  0.00    +0.001 A 
ATOM     10  C   UNL     1       1.039   2.038   0.106  0.00  0.00    +0.002 A 
ATOM     11  C   UNL     1       2.163   1.485  -0.481  0.00  0.00    +0.033 A 
ATOM     12  C   UNL     1       2.304   0.116  -0.557  0.00  0.00    +0.133 A 
ATOM     13  C   UNL     1       1.305  -0.716  -0.038  0.00  0.00    +0.006 A 
ATOM     14  C   UNL     1       0.171  -0.149   0.555  0.00  0.00    +0.010 A 
BRANCH  12  15
ATOM     15  N   UNL     1       3.507  -0.474  -1.186  0.00  0.00    +0.057 N 
ATOM     16  O   UNL     1       4.329   0.243  -1.708  0.00  0.00    -0.126 OA
ATOM     17  O   UNL     1       3.668  -1.672  -1.179  0.00  0.00    -0.126 OA
ENDBRANCH  12  15
ENDBRANCH   1  13
BRANCH   5  18
ATOM     18  C   UNL     1      -1.173  -6.384  -0.347  0.00  0.00    +0.196 C 
BRANCH  18  19
ATOM     19  C   UNL     1      -1.764  -6.833  -1.659  0.00  0.00    +0.376 C 
ATOM     20  O   UNL     1      -2.009  -6.015  -2.529  0.00  0.00    -0.244 OA
ATOM     21  O   UNL     1      -1.998  -8.014  -1.849  0.00  0.00    -0.244 OA
ENDBRANCH  18  19
BRANCH  18  22
ATOM     22  C   UNL     1      -2.117  -6.763   0.795  0.00  0.00    +0.044 C 
BRANCH  22  23
ATOM     23  C   UNL     1      -1.462  -6.420   2.134  0.00  0.00    +0.098 C 
BRANCH  23  24
ATOM     24  C   UNL     1      -2.392  -6.793   3.259  0.00  0.00    +0.211 C 
ATOM     25  O   UNL     1      -3.473  -7.285   3.014  0.00  0.00    -0.276 OA
ATOM     26  N   UNL     1      -2.023  -6.581   4.538  0.00  0.00    -0.329 N 
ATOM     27  H   UNL     1      -1.158  -6.188   4.734  0.00  0.00    +0.145 HD
ATOM     28  H   UNL     1      -2.622  -6.821   5.262  0.00  0.00    +0.145 HD
ENDBRANCH  23  24
ENDBRANCH  22  23
ENDBRANCH  18  22
ENDBRANCH   5  18
TORSDOF 7
