REMARK  Name = ZINC35990757
REMARK  12 active torsions:
REMARK  status: ('A' for Active; 'I' for Inactive)
REMARK    1  A    between atoms: C_1  and  C_2
REMARK    2  A    between atoms: C_2  and  O_3
REMARK    3  A    between atoms: O_3  and  C_4
REMARK    4  A    between atoms: C_4  and  C_6
REMARK    5  A    between atoms: C_7  and  C_25
REMARK    6  A    between atoms: N_8  and  C_24
REMARK    7  A    between atoms: C_12  and  C_14
REMARK    8  A    between atoms: C_16  and  O_22
REMARK    9  A    between atoms: C_18  and  O_20
REMARK   10  A    between atoms: O_20  and  C_21
REMARK   11  A    between atoms: O_22  and  C_23
REMARK   12  A    between atoms: C_25  and  N_26
REMARK                            x       y       z     vdW  Elec       q    Type
REMARK                         _______ _______ _______ _____ _____    ______ ____
ROOT
ATOM      1  C   UNL     1      -2.456  -2.646   0.475  0.00  0.00    +0.080 C 
ATOM      2  C   UNL     1      -2.987  -3.828   0.096  0.00  0.00    +0.041 C 
ATOM      3  N   UNL     1      -4.320  -3.947  -0.178  0.00  0.00    -0.260 N 
ATOM      4  C   UNL     1      -5.188  -2.930  -0.095  0.00  0.00    +0.307 C 
ATOM      5  O   UNL     1      -6.357  -3.133  -0.358  0.00  0.00    -0.252 OA
ATOM      6  N   UNL     1      -4.808  -1.690   0.270  0.00  0.00    -0.288 N 
ATOM      7  C   UNL     1      -3.389  -1.459   0.593  0.00  0.00    +0.144 C 
ATOM      8  C   UNL     1      -4.829  -5.259  -0.584  0.00  0.00    +0.139 C 
ATOM      9  H   UNL     1      -5.453  -0.968   0.323  0.00  0.00    +0.151 HD
ENDROOT
BRANCH   7  10
ATOM     10  C   UNL     1      -3.308  -0.942   2.006  0.00  0.00    -0.016 A 
ATOM     11  C   UNL     1      -4.005  -1.578   3.014  0.00  0.00    +0.051 A 
ATOM     12  C   UNL     1      -3.932  -1.104   4.316  0.00  0.00    +0.124 A 
ATOM     13  C   UNL     1      -3.157   0.009   4.605  0.00  0.00    +0.091 A 
ATOM     14  C   UNL     1      -2.458   0.646   3.591  0.00  0.00    +0.124 A 
ATOM     15  C   UNL     1      -2.531   0.165   2.292  0.00  0.00    +0.051 A 
BRANCH  14  16
ATOM     16  O   UNL     1      -1.699   1.738   3.871  0.00  0.00    -0.495 OA
ATOM     17  C   UNL     1      -1.666   2.175   5.231  0.00  0.00    +0.277 C 
ENDBRANCH  14  16
BRANCH  12  18
ATOM     18  O   UNL     1      -4.619  -1.730   5.308  0.00  0.00    -0.495 OA
ATOM     19  C   UNL     1      -4.497  -1.187   6.624  0.00  0.00    +0.277 C 
ENDBRANCH  12  18
ENDBRANCH   7  10
BRANCH   1  20
ATOM     20  C   UNL     1      -1.075  -2.522   0.758  0.00  0.00    +0.339 C 
ATOM     21  O   UNL     1      -0.370  -3.513   0.792  0.00  0.00    -0.245 OA
BRANCH  20  22
ATOM     22  O   UNL     1      -0.541  -1.305   0.991  0.00  0.00    -0.462 OA
BRANCH  22  24
ATOM     23  C   UNL     1       1.280   0.198   1.506  0.00  0.00    +0.048 C 
ATOM     24  C   UNL     1       0.859  -1.254   1.271  0.00  0.00    +0.229 C 
ENDBRANCH  22  24
ENDBRANCH  20  22
ENDBRANCH   1  20
BRANCH   2  25
ATOM     25  C   UNL     1      -2.095  -5.036  -0.029  0.00  0.00    +0.136 C 
BRANCH  25  26
ATOM     26  N   UNL     1      -1.923  -5.656   1.292  0.00  0.00    -0.300 NA
ATOM     27  C   UNL     1      -3.179  -6.260   1.758  0.00  0.00    +0.066 C 
ATOM     28  C   UNL     1      -2.974  -6.841   3.158  0.00  0.00    -0.067 C 
ATOM     29  N   UNL     1      -1.910  -7.853   3.118  0.00  0.00    +0.381 N 
ATOM     30  C   UNL     1      -0.656  -7.230   2.674  0.00  0.00    -0.067 C 
ATOM     31  C   UNL     1      -0.842  -6.652   1.269  0.00  0.00    +0.066 C 
ATOM     32  H   UNL     1      -1.783  -8.245   4.039  0.00  0.00    -0.086 HD
ATOM     33  H   UNL     1      -2.167  -8.585   2.474  0.00  0.00    -0.086 HD
ENDBRANCH  25  26
ENDBRANCH   2  25
TORSDOF 8
