REMARK  Name = ZINC08644928
REMARK  8 active torsions:
REMARK  status: ('A' for Active; 'I' for Inactive)
REMARK    1  A    between atoms: C_1  and  C_2
REMARK    2  A    between atoms: C_8  and  N_10
REMARK    3  A    between atoms: C_11  and  C_13
REMARK    4  A    between atoms: C_13  and  C_15
REMARK    5  A    between atoms: C_13  and  S_16
REMARK    6  A    between atoms: S_16  and  C_17
REMARK    7  A    between atoms: C_20  and  C_23
REMARK    8  A    between atoms: N_21  and  N_22
REMARK                            x       y       z     vdW  Elec       q    Type
REMARK                         _______ _______ _______ _____ _____    ______ ____
ROOT
ATOM      1  C   UNL     1       7.238  -1.169   2.618  0.00  0.00    +0.209 A 
ATOM      2  N   UNL     1       6.538  -1.849   3.498  0.00  0.00    -0.121 NA
ATOM      3  N   UNL     1       7.185  -1.935   4.605  0.00  0.00    -0.127 NA
ATOM      4  C   UNL     1       8.333  -1.307   4.503  0.00  0.00    +0.183 A 
ATOM      5  N   UNL     1       8.403  -0.797   3.227  0.00  0.00    -0.224 N 
ENDROOT
BRANCH   4   6
ATOM      6  C   UNL     1       9.358  -1.173   5.560  0.00  0.00    +0.039 A 
ATOM      7  C   UNL     1       9.938   0.070   5.821  0.00  0.00    +0.014 A 
ATOM      8  C   UNL     1      10.891   0.189   6.811  0.00  0.00    +0.021 A 
ATOM      9  C   UNL     1      11.281  -0.922   7.539  0.00  0.00    +0.042 A 
ATOM     10  C   UNL     1      10.714  -2.159   7.282  0.00  0.00    +0.040 A 
ATOM     11  C   UNL     1       9.756  -2.291   6.297  0.00  0.00    +0.053 A 
ATOM     12 CL   UNL     1       9.047  -3.842   5.975  0.00  0.00    -0.083 Cl
ATOM     13 CL   UNL     1      12.485  -0.764   8.779  0.00  0.00    -0.083 Cl
ENDBRANCH   4   6
BRANCH   5  14
ATOM     14  N   UNL     1       9.423  -0.070   2.683  0.00  0.00    -0.295 N 
ATOM     15  H   UNL     1       9.329   0.909   2.908  0.00  0.00    +0.163 HD
ATOM     16  H   UNL     1      10.319  -0.425   2.982  0.00  0.00    +0.163 HD
ENDBRANCH   5  14
BRANCH   1  17
ATOM     17  S   UNL     1       6.760  -0.799   0.963  0.00  0.00    -0.072 S 
BRANCH  17  18
ATOM     18  C   UNL     1       5.143  -1.611   0.914  0.00  0.00    +0.137 C 
ATOM     19  C   UNL     1       5.327  -3.123   1.068  0.00  0.00    +0.029 C 
BRANCH  18  21
ATOM     20  N   UNL     1       3.130  -1.362  -0.502  0.00  0.00    -0.311 N 
ATOM     21  C   UNL     1       4.474  -1.319  -0.404  0.00  0.00    +0.226 C 
ATOM     22  O   UNL     1       5.144  -1.044  -1.377  0.00  0.00    -0.275 OA
ATOM     23  H   UNL     1       2.594  -1.581   0.276  0.00  0.00    +0.149 HD
BRANCH  20  30
ATOM     24  C   UNL     1       1.297  -3.275  -1.671  0.00  0.00    +0.009 C 
ATOM     25  C   UNL     1       1.113  -1.764  -1.825  0.00  0.00    +0.006 C 
ATOM     26  C   UNL     1       0.242  -1.237  -0.682  0.00  0.00    +0.005 C 
ATOM     27  C   UNL     1       0.058   0.274  -0.836  0.00  0.00    +0.000 C 
ATOM     28  C   UNL     1       1.425   0.961  -0.795  0.00  0.00    +0.002 C 
ATOM     29  C   UNL     1       2.295   0.434  -1.937  0.00  0.00    +0.022 C 
ATOM     30  C   UNL     1       2.479  -1.077  -1.783  0.00  0.00    +0.076 C 
ENDBRANCH  20  30
ENDBRANCH  18  21
ENDBRANCH  17  18
ENDBRANCH   1  17
TORSDOF 6
