REMARK  Name = ZINC39487351
REMARK  13 active torsions:
REMARK  status: ('A' for Active; 'I' for Inactive)
REMARK    1  A    between atoms: C_1  and  C_2
REMARK    2  A    between atoms: C_2  and  C_3
REMARK    3  A    between atoms: C_3  and  C_4
REMARK    4  A    between atoms: C_4  and  C_36
REMARK    5  A    between atoms: N_6  and  S_30
REMARK    6  A    between atoms: N_9  and  C_10
REMARK    7  A    between atoms: C_10  and  C_11
REMARK    8  A    between atoms: C_11  and  C_24
REMARK    9  A    between atoms: N_14  and  C_17
REMARK   10  A    between atoms: C_17  and  C_18
REMARK   11  A    between atoms: S_30  and  C_33
REMARK   12  A    between atoms: C_33  and  C_34
REMARK   13  A    between atoms: C_33  and  C_35
REMARK                            x       y       z     vdW  Elec       q    Type
REMARK                         _______ _______ _______ _____ _____    ______ ____
ROOT
ATOM      1  C   UNL     1      -4.345  -0.612  -0.563  0.00  0.00    -0.014 C 
ATOM      2  C   UNL     1      -3.172   0.266  -1.008  0.00  0.00    -0.010 C 
ATOM      3  C   UNL     1      -2.309  -0.511  -2.004  0.00  0.00    -0.078 C 
ATOM      4  N   UNL     1      -3.116  -0.880  -3.173  0.00  0.00    +0.382 N 
ATOM      5  C   UNL     1      -4.201  -1.781  -2.764  0.00  0.00    -0.078 C 
ATOM      6  C   UNL     1      -5.137  -1.052  -1.797  0.00  0.00    -0.010 C 
ATOM      7  H   UNL     1      -3.509  -0.048  -3.585  0.00  0.00    -0.081 HD
ENDROOT
BRANCH   1   8
ATOM      8  C   UNL     1      -5.256   0.185   0.373  0.00  0.00    -0.003 C 
ATOM      9  C   UNL     1      -6.549  -0.598   0.614  0.00  0.00    +0.004 C 
ATOM     10  C   UNL     1      -7.460   0.199   1.549  0.00  0.00    +0.000 C 
ATOM     11  C   UNL     1      -7.793   1.549   0.910  0.00  0.00    +0.000 C 
ATOM     12  C   UNL     1      -6.500   2.331   0.669  0.00  0.00    +0.000 C 
ATOM     13  C   UNL     1      -5.589   1.535  -0.266  0.00  0.00    +0.004 C 
ENDBRANCH   1   8
BRANCH   1  14
ATOM     14  C   UNL     1      -3.812  -1.845   0.170  0.00  0.00    +0.117 C 
BRANCH  14  20
ATOM     15  C   UNL     1      -3.254  -1.482   2.692  0.00  0.00    +0.054 C 
ATOM     16  C   UNL     1      -1.993  -0.923   3.380  0.00  0.00    +0.161 C 
ATOM     17  N   UNL     1      -1.091  -0.609   2.262  0.00  0.00    -0.158 N 
ATOM     18  C   UNL     1      -1.696  -0.920   1.108  0.00  0.00    +0.324 C 
ATOM     19  O   UNL     1      -1.174  -0.760   0.022  0.00  0.00    -0.251 OA
ATOM     20  N   UNL     1      -2.929  -1.422   1.259  0.00  0.00    -0.277 N 
ATOM     21  C   UNL     1      -3.511  -2.926   3.124  0.00  0.00    +0.033 C 
BRANCH  17  22
ATOM     22  S   UNL     1       0.430   0.029   2.407  0.00  0.00    +0.051 S 
ATOM     23  O   UNL     1       0.637   0.750   1.200  0.00  0.00    -0.155 OA
ATOM     24  O   UNL     1       0.424   0.700   3.660  0.00  0.00    -0.155 OA
BRANCH  22  25
ATOM     25  C   UNL     1       1.534  -1.409   2.473  0.00  0.00    +0.145 C 
ATOM     26  C   UNL     1       2.967  -0.941   2.733  0.00  0.00    +0.033 C 
ATOM     27  C   UNL     1       1.089  -2.342   3.602  0.00  0.00    +0.033 C 
ENDBRANCH  22  25
ENDBRANCH  17  22
BRANCH  15  28
ATOM     28  C   UNL     1      -4.469  -0.605   3.003  0.00  0.00    +0.027 C 
BRANCH  28  30
ATOM     29  C   UNL     1      -6.123   0.029   4.765  0.00  0.00    +0.004 C 
ATOM     30  C   UNL     1      -4.843  -0.758   4.479  0.00  0.00    -0.001 C 
ENDBRANCH  28  30
ENDBRANCH  15  28
ENDBRANCH  14  20
ENDBRANCH   1  14
BRANCH   4  31
ATOM     31  C   UNL     1      -2.265  -1.558  -4.160  0.00  0.00    -0.043 C 
BRANCH  31  32
ATOM     32  C   UNL     1      -3.046  -1.775  -5.431  0.00  0.00    -0.064 A 
ATOM     33  C   UNL     1      -3.744  -2.952  -5.620  0.00  0.00    +0.002 A 
ATOM     34  C   UNL     1      -4.460  -3.151  -6.786  0.00  0.00    +0.000 A 
ATOM     35  C   UNL     1      -4.477  -2.172  -7.763  0.00  0.00    +0.000 A 
ATOM     36  C   UNL     1      -3.779  -0.995  -7.573  0.00  0.00    +0.000 A 
ATOM     37  C   UNL     1      -3.067  -0.794  -6.405  0.00  0.00    +0.002 A 
ENDBRANCH  31  32
ENDBRANCH   4  31
TORSDOF 9
