REMARK  Name = ZINC13591594
REMARK  6 active torsions:
REMARK  status: ('A' for Active; 'I' for Inactive)
REMARK    1  A    between atoms: C_4  and  C_7
REMARK    2  A    between atoms: C_7  and  C_8
REMARK    3  A    between atoms: C_8  and  C_10
REMARK    4  A    between atoms: C_8  and  N_23
REMARK    5  A    between atoms: N_12  and  C_13
REMARK    6  A    between atoms: C_13  and  C_14
REMARK                            x       y       z     vdW  Elec       q    Type
REMARK                         _______ _______ _______ _____ _____    ______ ____
ROOT
ATOM      1  C   UNL     1       8.326  -1.665   0.457  0.00  0.00    +0.185 C 
ENDROOT
BRANCH   1   2
ATOM      2  N   UNL     1       9.670  -1.769   1.032  0.00  0.00    -0.248 N 
ATOM      3  C   UNL     1      10.313  -2.957   1.000  0.00  0.00    +0.265 A 
ATOM      4  O   UNL     1       9.792  -3.935   0.501  0.00  0.00    -0.267 OA
ATOM      5  C   UNL     1      11.664  -3.035   1.585  0.00  0.00    +0.063 A 
ATOM      6  C   UNL     1      12.392  -4.222   1.590  0.00  0.00    +0.015 A 
ATOM      7  C   UNL     1      13.653  -4.243   2.150  0.00  0.00    +0.001 A 
ATOM      8  C   UNL     1      14.194  -3.093   2.704  0.00  0.00    +0.002 A 
ATOM      9  C   UNL     1      13.482  -1.910   2.705  0.00  0.00    +0.026 A 
ATOM     10  C   UNL     1      12.214  -1.870   2.147  0.00  0.00    +0.056 A 
ATOM     11  N   UNL     1      11.466  -0.702   2.127  0.00  0.00    -0.307 N 
ATOM     12  H   UNL     1      11.832   0.110   2.510  0.00  0.00    +0.170 HD
ATOM     13  C   UNL     1      10.240  -0.683   1.575  0.00  0.00    +0.330 A 
ATOM     14  O   UNL     1       9.619   0.363   1.573  0.00  0.00    -0.246 OA
ENDBRANCH   1   2
BRANCH   1  15
ATOM     15  C   UNL     1       7.355  -1.236   1.526  0.00  0.00    +0.237 C 
ATOM     16  O   UNL     1       7.746  -1.037   2.657  0.00  0.00    -0.274 OA
ATOM     17  N   UNL     1       6.051  -1.073   1.226  0.00  0.00    -0.309 N 
ATOM     18  H   UNL     1       5.738  -1.231   0.322  0.00  0.00    +0.149 HD
BRANCH  17  19
ATOM     19  C   UNL     1       5.107  -0.655   2.265  0.00  0.00    +0.139 C 
BRANCH  19  20
ATOM     20  C   UNL     1       3.725  -0.548   1.674  0.00  0.00    -0.027 A 
ATOM     21  C   UNL     1       2.885  -1.646   1.677  0.00  0.00    +0.009 A 
ATOM     22  C   UNL     1       1.617  -1.553   1.135  0.00  0.00    +0.050 A 
ATOM     23  C   UNL     1       1.183  -0.356   0.589  0.00  0.00    +0.166 A 
ATOM     24  C   UNL     1       2.028   0.751   0.586  0.00  0.00    +0.167 A 
ATOM     25  C   UNL     1       3.298   0.650   1.131  0.00  0.00    +0.054 A 
ATOM     26  O   UNL     1       1.376   1.797  -0.001  0.00  0.00    -0.453 OA
ATOM     27  C   UNL     1      -0.018   1.436   0.010  0.00  0.00    +0.466 C 
ATOM     28  O   UNL     1       0.002  -0.004   0.002  0.00  0.00    -0.453 OA
ENDBRANCH  19  20
ENDBRANCH  17  19
ENDBRANCH   1  15
BRANCH   1  29
ATOM     29  C   UNL     1       8.333  -0.630  -0.670  0.00  0.00    +0.070 C 
BRANCH  29  33
ATOM     30  C   UNL     1      10.820  -2.014  -3.856  0.00  0.00    +0.000 A 
ATOM     31  C   UNL     1       9.475  -2.330  -3.842  0.00  0.00    +0.000 A 
ATOM     32  C   UNL     1       8.670  -1.883  -2.811  0.00  0.00    +0.004 A 
ATOM     33  C   UNL     1       9.211  -1.119  -1.794  0.00  0.00    -0.045 A 
ATOM     34  C   UNL     1      10.555  -0.797  -1.811  0.00  0.00    +0.004 A 
ATOM     35  C   UNL     1      11.361  -1.249  -2.839  0.00  0.00    +0.000 A 
ENDBRANCH  29  33
ENDBRANCH   1  29
TORSDOF 6
