REMARK  Name = ZINC08813415
REMARK  13 active torsions:
REMARK  status: ('A' for Active; 'I' for Inactive)
REMARK    1  A    between atoms: C_1  and  C_2
REMARK    2  A    between atoms: C_4  and  C_33
REMARK    3  A    between atoms: C_5  and  S_9
REMARK    4  A    between atoms: C_6  and  C_8
REMARK    5  A    between atoms: S_9  and  N_12
REMARK    6  A    between atoms: N_12  and  C_13
REMARK    7  A    between atoms: C_13  and  C_14
REMARK    8  A    between atoms: C_17  and  C_20
REMARK    9  A    between atoms: N_22  and  C_23
REMARK   10  A    between atoms: C_23  and  C_24
REMARK   11  A    between atoms: C_24  and  C_25
REMARK   12  A    between atoms: C_25  and  S_26
REMARK   13  A    between atoms: S_26  and  C_27
REMARK                            x       y       z     vdW  Elec       q    Type
REMARK                         _______ _______ _______ _____ _____    ______ ____
ROOT
ATOM      1  C   UNL     1      -1.463   1.852  -0.597  0.00  0.00    +0.005 C 
ATOM      2  C   UNL     1      -2.797   1.108  -0.522  0.00  0.00    +0.005 C 
ATOM      3  C   UNL     1      -3.768   1.695  -1.548  0.00  0.00    +0.013 C 
ATOM      4  C   UNL     1      -3.179   1.545  -2.952  0.00  0.00    +0.075 C 
ATOM      5  C   UNL     1      -1.844   2.290  -3.027  0.00  0.00    +0.013 C 
ATOM      6  C   UNL     1      -0.874   1.702  -2.001  0.00  0.00    +0.005 C 
ENDROOT
BRANCH   4   7
ATOM      7  C   UNL     1      -2.957   0.084  -3.249  0.00  0.00    +0.216 C 
ATOM      8  O   UNL     1      -1.841  -0.321  -3.498  0.00  0.00    -0.276 OA
ATOM      9  N   UNL     1      -3.998  -0.771  -3.240  0.00  0.00    -0.315 N 
ATOM     10  H   UNL     1      -4.890  -0.447  -3.041  0.00  0.00    +0.149 HD
BRANCH   9  11
ATOM     11  C   UNL     1      -3.782  -2.191  -3.529  0.00  0.00    +0.105 C 
BRANCH  11  12
ATOM     12  C   UNL     1      -5.116  -2.936  -3.454  0.00  0.00    +0.029 C 
BRANCH  12  13
ATOM     13  C   UNL     1      -4.890  -4.419  -3.756  0.00  0.00    +0.071 C 
BRANCH  13  14
ATOM     14  S   UNL     1      -6.472  -5.302  -3.666  0.00  0.00    -0.157 S 
BRANCH  14  15
ATOM     15  C   UNL     1      -6.037  -7.021  -4.044  0.00  0.00    +0.046 C 
ATOM     16  C   UNL     1      -5.530  -7.115  -5.485  0.00  0.00    +0.014 C 
ATOM     17  C   UNL     1      -5.163  -8.565  -5.803  0.00  0.00    +0.001 C 
ATOM     18  C   UNL     1      -6.399  -9.452  -5.639  0.00  0.00    +0.000 C 
ATOM     19  C   UNL     1      -6.906  -9.359  -4.199  0.00  0.00    +0.001 C 
ATOM     20  C   UNL     1      -7.273  -7.908  -3.880  0.00  0.00    +0.014 C 
ENDBRANCH  14  15
ENDBRANCH  13  14
ENDBRANCH  12  13
ENDBRANCH  11  12
ENDBRANCH   9  11
ENDBRANCH   4   7
BRANCH   1  21
ATOM     21  C   UNL     1      -0.492   1.265   0.429  0.00  0.00    +0.109 C 
BRANCH  21  22
ATOM     22  N   UNL     1      -0.999   1.515   1.780  0.00  0.00    -0.190 NA
ATOM     23  H   UNL     1      -1.704   2.166   1.921  0.00  0.00    +0.148 HD
BRANCH  22  24
ATOM     24  S   UNL     1      -0.369   0.686   3.068  0.00  0.00    +0.059 S 
ATOM     25  O   UNL     1      -1.039   1.164   4.226  0.00  0.00    -0.153 OA
ATOM     26  O   UNL     1      -0.362  -0.687   2.704  0.00  0.00    -0.153 OA
BRANCH  24  31
ATOM     27  C   UNL     1       5.405   2.354   3.607  0.00  0.00    +0.044 C 
ATOM     28  C   UNL     1       3.963   1.937   3.473  0.00  0.00    -0.050 A 
ATOM     29  C   UNL     1       2.959   2.757   3.953  0.00  0.00    +0.008 A 
ATOM     30  C   UNL     1       1.636   2.375   3.829  0.00  0.00    -0.024 A 
ATOM     31  C   UNL     1       1.317   1.173   3.225  0.00  0.00    +0.111 A 
ATOM     32  C   UNL     1       2.322   0.350   2.751  0.00  0.00    -0.024 A 
ATOM     33  C   UNL     1       3.644   0.735   2.870  0.00  0.00    +0.008 A 
ATOM     34  C   UNL     1       1.974  -0.963   2.098  0.00  0.00    +0.046 C 
ATOM     35  C   UNL     1       0.542   3.269   4.352  0.00  0.00    +0.046 C 
ENDBRANCH  24  31
ENDBRANCH  22  24
ENDBRANCH  21  22
ENDBRANCH   1  21
TORSDOF 10
