REMARK  Name = ZINC22000681
REMARK  10 active torsions:
REMARK  status: ('A' for Active; 'I' for Inactive)
REMARK    1  A    between atoms: C_1  and  C_2
REMARK    2  A    between atoms: C_7  and  N_8
REMARK    3  A    between atoms: C_9  and  C_11
REMARK    4  A    between atoms: C_11  and  O_12
REMARK    5  A    between atoms: O_12  and  C_13
REMARK    6  A    between atoms: C_13  and  C_15
REMARK    7  A    between atoms: C_15  and  N_16
REMARK    8  A    between atoms: C_21  and  C_28
REMARK    9  A    between atoms: C_24  and  C_26
REMARK   10  A    between atoms: C_24  and  C_27
REMARK                            x       y       z     vdW  Elec       q    Type
REMARK                         _______ _______ _______ _____ _____    ______ ____
ROOT
ATOM      1  C   UNL     1      -4.275  -4.794  -0.525  0.00  0.00    +0.238 C 
ENDROOT
BRANCH   1   2
ATOM      2  N   UNL     1      -5.572  -5.466  -0.628  0.00  0.00    -0.213 N 
ATOM      3  C   UNL     1      -6.279  -5.923   0.428  0.00  0.00    +0.247 C 
ATOM      4  O   UNL     1      -5.900  -5.968   1.578  0.00  0.00    -0.273 OA
ATOM      5  C   UNL     1      -7.603  -6.379  -0.137  0.00  0.00    +0.113 C 
ATOM      6  C   UNL     1      -7.923  -7.798   0.312  0.00  0.00    +0.038 C 
ATOM      7  C   UNL     1      -8.333  -7.801   1.785  0.00  0.00    -0.011 C 
ATOM      8  C   UNL     1      -9.597  -6.959   1.942  0.00  0.00    +0.009 C 
ATOM      9  C   UNL     1      -9.343  -5.511   1.536  0.00  0.00    -0.032 C 
ATOM     10  C   UNL     1      -8.717  -5.396   0.157  0.00  0.00    +0.041 C 
ATOM     11  C   UNL     1      -8.472  -4.816   2.586  0.00  0.00    +0.011 C 
ATOM     12  C   UNL     1     -10.704  -4.784   1.506  0.00  0.00    +0.011 C 
ATOM     13  C   UNL     1      -8.622  -9.239   2.226  0.00  0.00    +0.007 C 
ATOM     14  N   UNL     1      -7.352  -6.388  -1.597  0.00  0.00    -0.285 N 
ATOM     15  C   UNL     1      -6.198  -5.723  -1.783  0.00  0.00    +0.310 C 
ATOM     16  O   UNL     1      -5.772  -5.394  -2.872  0.00  0.00    -0.252 OA
ATOM     17  H   UNL     1      -8.064  -6.884  -2.274  0.00  0.00    +0.151 HD
ENDBRANCH   1   2
BRANCH   1  18
ATOM     18  C   UNL     1      -4.487  -3.307  -0.412  0.00  0.00    +0.326 C 
ATOM     19  O   UNL     1      -5.607  -2.854  -0.418  0.00  0.00    -0.249 OA
BRANCH  18  20
ATOM     20  O   UNL     1      -3.432  -2.484  -0.305  0.00  0.00    -0.454 OA
BRANCH  20  21
ATOM     21  C   UNL     1      -3.711  -1.063  -0.200  0.00  0.00    +0.328 C 
BRANCH  21  23
ATOM     22  N   UNL     1      -2.428   1.040   0.020  0.00  0.00    -0.282 N 
ATOM     23  C   UNL     1      -2.414  -0.303  -0.089  0.00  0.00    +0.255 C 
ATOM     24  O   UNL     1      -1.359  -0.900  -0.097  0.00  0.00    -0.272 OA
ATOM     25  H   UNL     1      -3.384   1.574   0.119  0.00  0.00    +0.155 HD
BRANCH  22  32
ATOM     26  C   UNL     1      -2.364   3.585   1.290  0.00  0.00    +0.046 C 
ATOM     27  C   UNL     1      -1.150   3.001   0.614  0.00  0.00    -0.028 A 
ATOM     28  C   UNL     1       0.037   3.708   0.595  0.00  0.00    +0.025 A 
ATOM     29  C   UNL     1       1.152   3.172  -0.025  0.00  0.00    +0.041 A 
ATOM     30  C   UNL     1       1.082   1.928  -0.626  0.00  0.00    +0.022 A 
ATOM     31  C   UNL     1      -0.103   1.218  -0.610  0.00  0.00    +0.025 A 
ATOM     32  C   UNL     1      -1.225   1.755   0.006  0.00  0.00    +0.036 A 
ATOM     33 CL   UNL     1       2.642   4.062  -0.048  0.00  0.00    -0.084 Cl
ENDBRANCH  22  32
ENDBRANCH  21  23
ENDBRANCH  20  21
ENDBRANCH  18  20
ENDBRANCH   1  18
TORSDOF 6
