REMARK  Name = ZINC36028191
REMARK  11 active torsions:
REMARK  status: ('A' for Active; 'I' for Inactive)
REMARK    1  A    between atoms: C_1  and  C_2
REMARK    2  A    between atoms: C_2  and  C_3
REMARK    3  A    between atoms: C_3  and  C_5
REMARK    4  A    between atoms: C_3  and  C_6
REMARK    5  A    between atoms: C_6  and  N_7
REMARK    6  A    between atoms: C_10  and  C_29
REMARK    7  A    between atoms: N_16  and  S_19
REMARK    8  A    between atoms: S_19  and  C_22
REMARK    9  A    between atoms: C_29  and  C_31
REMARK   10  A    between atoms: C_29  and  C_32
REMARK   11  A    between atoms: C_32  and  C_33
REMARK                            x       y       z     vdW  Elec       q    Type
REMARK                         _______ _______ _______ _____ _____    ______ ____
ROOT
ATOM      1  N   UNL     1       1.718  -2.527  -2.271  0.00  0.00    -0.313 N 
ATOM      2  C   UNL     1       1.313  -2.856  -3.515  0.00  0.00    +0.201 C 
ATOM      3  O   UNL     1       0.178  -2.778  -3.935  0.00  0.00    -0.277 OA
ATOM      4  C   UNL     1       2.514  -3.339  -4.299  0.00  0.00    +0.022 C 
ATOM      5  N   UNL     1       3.541  -3.638  -3.271  0.00  0.00    +0.401 N 
ATOM      6  C   UNL     1       3.162  -2.747  -2.152  0.00  0.00    +0.006 C 
ATOM      7  C   UNL     1       3.485  -3.426  -0.822  0.00  0.00    +0.023 C 
ATOM      8  C   UNL     1       3.051  -2.516   0.332  0.00  0.00    +0.109 C 
ATOM      9  N   UNL     1       3.671  -1.196   0.151  0.00  0.00    -0.177 NA
ATOM     10  C   UNL     1       3.480  -0.494  -1.125  0.00  0.00    +0.109 C 
ATOM     11  C   UNL     1       3.910  -1.421  -2.267  0.00  0.00    +0.023 C 
ATOM     12  H   UNL     1       3.494  -4.607  -2.992  0.00  0.00    -0.082 HD
ATOM     13  H   UNL     1       4.463  -3.408  -3.610  0.00  0.00    -0.082 HD
ENDROOT
BRANCH   9  14
ATOM     14  S   UNL     1       4.568  -0.513   1.364  0.00  0.00    +0.061 S 
ATOM     15  O   UNL     1       4.546   0.891   1.144  0.00  0.00    -0.153 OA
ATOM     16  O   UNL     1       4.124  -1.101   2.579  0.00  0.00    -0.153 OA
BRANCH  14  17
ATOM     17  C   UNL     1       6.236  -1.032   1.133  0.00  0.00    +0.107 A 
ATOM     18  C   UNL     1       6.686  -2.196   1.728  0.00  0.00    +0.028 A 
ATOM     19  C   UNL     1       7.995  -2.604   1.547  0.00  0.00    +0.003 A 
ATOM     20  C   UNL     1       8.854  -1.847   0.772  0.00  0.00    +0.020 A 
ATOM     21  C   UNL     1       8.404  -0.682   0.177  0.00  0.00    +0.043 A 
ATOM     22  C   UNL     1       7.093  -0.278   0.353  0.00  0.00    +0.048 A 
ATOM     23 CL   UNL     1       9.483   0.268  -0.797  0.00  0.00    -0.083 Cl
ENDBRANCH  14  17
ENDBRANCH   9  14
BRANCH   4  24
ATOM     24  C   UNL     1       2.163  -4.602  -5.088  0.00  0.00    -0.020 C 
ATOM     25  C   UNL     1       1.572  -5.648  -4.140  0.00  0.00    +0.006 C 
BRANCH  24  26
ATOM     26  C   UNL     1       1.138  -4.258  -6.171  0.00  0.00    -0.001 C 
ATOM     27  C   UNL     1       0.880  -5.491  -7.039  0.00  0.00    +0.004 C 
ENDBRANCH  24  26
ENDBRANCH   4  24
BRANCH   1  28
ATOM     28  C   UNL     1       0.849  -2.021  -1.205  0.00  0.00    +0.109 C 
BRANCH  28  29
ATOM     29  C   UNL     1       0.088  -3.187  -0.571  0.00  0.00    +0.003 C 
ATOM     30  C   UNL     1       1.055  -4.341  -0.302  0.00  0.00    +0.009 C 
BRANCH  29  32
ATOM     31  C   UNL     1      -1.404  -3.856   1.318  0.00  0.00    +0.004 C 
ATOM     32  C   UNL     1      -0.540  -2.729   0.747  0.00  0.00    +0.001 C 
ENDBRANCH  29  32
ENDBRANCH  28  29
ENDBRANCH   1  28
TORSDOF 7
