REMARK  Name = ZINC01134480
REMARK  11 active torsions:
REMARK  status: ('A' for Active; 'I' for Inactive)
REMARK    1  A    between atoms: C_1  and  S_2
REMARK    2  A    between atoms: S_2  and  N_5
REMARK    3  A    between atoms: N_5  and  C_6
REMARK    4  A    between atoms: N_5  and  C_13
REMARK    5  A    between atoms: C_6  and  C_7
REMARK    6  A    between atoms: C_18  and  C_19
REMARK    7  A    between atoms: N_21  and  C_22
REMARK    8  A    between atoms: C_27  and  C_28
REMARK    9  A    between atoms: N_30  and  C_31
REMARK   10  A    between atoms: C_31  and  C_32
REMARK   11  A    between atoms: C_32  and  C_33
REMARK                            x       y       z     vdW  Elec       q    Type
REMARK                         _______ _______ _______ _____ _____    ______ ____
ROOT
ATOM      1  C   UNL     1       5.272  -4.038  -1.439  0.00  0.00    +0.250 C 
ATOM      2  O   UNL     1       5.663  -2.927  -1.135  0.00  0.00    -0.270 OA
ATOM      3  N   UNL     1       6.009  -5.122  -1.125  0.00  0.00    -0.281 N 
ATOM      4  H   UNL     1       5.738  -5.999  -1.437  0.00  0.00    +0.155 HD
ENDROOT
BRANCH   1  10
ATOM      5  C   UNL     1       3.282  -3.070  -2.592  0.00  0.00    +0.063 A 
ATOM      6  C   UNL     1       2.079  -3.235  -3.268  0.00  0.00    +0.025 A 
ATOM      7  C   UNL     1       1.585  -4.502  -3.499  0.00  0.00    +0.002 A 
ATOM      8  C   UNL     1       2.281  -5.618  -3.061  0.00  0.00    +0.001 A 
ATOM      9  C   UNL     1       3.474  -5.475  -2.389  0.00  0.00    +0.015 A 
ATOM     10  C   UNL     1       3.992  -4.198  -2.152  0.00  0.00    +0.060 A 
BRANCH   5  11
ATOM     11  N   UNL     1       3.782  -1.796  -2.359  0.00  0.00    -0.203 N 
BRANCH  11  13
ATOM     12  C   UNL     1       2.042  -0.013  -1.188  0.00  0.00    +0.218 C 
ATOM     13  S   UNL     1       3.504  -1.050  -0.906  0.00  0.00    +0.043 S 
ATOM     14  O   UNL     1       3.188  -2.108  -0.011  0.00  0.00    -0.155 OA
ATOM     15  O   UNL     1       4.648  -0.236  -0.691  0.00  0.00    -0.155 OA
ENDBRANCH  11  13
BRANCH  11  16
ATOM     16  C   UNL     1       4.556  -1.111  -3.397  0.00  0.00    +0.166 C 
BRANCH  16  17
ATOM     17  C   UNL     1       6.000  -1.536  -3.310  0.00  0.00    -0.028 A 
ATOM     18  C   UNL     1       6.441  -2.632  -4.028  0.00  0.00    +0.005 A 
ATOM     19  C   UNL     1       7.765  -3.022  -3.949  0.00  0.00    +0.000 A 
ATOM     20  C   UNL     1       8.647  -2.317  -3.151  0.00  0.00    +0.000 A 
ATOM     21  C   UNL     1       8.205  -1.221  -2.434  0.00  0.00    +0.000 A 
ATOM     22  C   UNL     1       6.881  -0.831  -2.513  0.00  0.00    +0.005 A 
ENDBRANCH  16  17
ENDBRANCH  11  16
ENDBRANCH   5  11
ENDBRANCH   1  10
BRANCH   3  23
ATOM     23  C   UNL     1       7.158  -4.981  -0.352  0.00  0.00    +0.046 A 
ATOM     24  C   UNL     1       7.231  -3.988   0.616  0.00  0.00    +0.024 A 
ATOM     25  C   UNL     1       8.370  -3.854   1.384  0.00  0.00    +0.002 A 
ATOM     26  C   UNL     1       9.450  -4.700   1.191  0.00  0.00    +0.001 A 
ATOM     27  C   UNL     1       9.398  -5.688   0.232  0.00  0.00    +0.015 A 
ATOM     28  C   UNL     1       8.250  -5.839  -0.550  0.00  0.00    +0.058 A 
BRANCH  28  29
ATOM     29  C   UNL     1       8.187  -6.894  -1.579  0.00  0.00    +0.246 C 
ATOM     30  O   UNL     1       7.229  -6.961  -2.324  0.00  0.00    -0.270 OA
ATOM     31  N   UNL     1       9.192  -7.785  -1.693  0.00  0.00    -0.311 N 
ATOM     32  H   UNL     1       9.957  -7.732  -1.098  0.00  0.00    +0.149 HD
BRANCH  31  33
ATOM     33  C   UNL     1       9.130  -8.833  -2.715  0.00  0.00    +0.109 C 
BRANCH  33  34
ATOM     34  C   UNL     1      10.386  -9.703  -2.630  0.00  0.00    +0.054 C 
BRANCH  34  35
ATOM     35  C   UNL     1      10.321 -10.781  -3.681  0.00  0.00    -0.046 A 
ATOM     36  C   UNL     1       9.743 -12.002  -3.385  0.00  0.00    +0.004 A 
ATOM     37  C   UNL     1       9.680 -12.989  -4.351  0.00  0.00    +0.000 A 
ATOM     38  C   UNL     1      10.204 -12.759  -5.609  0.00  0.00    +0.000 A 
ATOM     39  C   UNL     1      10.787 -11.541  -5.904  0.00  0.00    +0.000 A 
ATOM     40  C   UNL     1      10.845 -10.552  -4.940  0.00  0.00    +0.004 A 
ENDBRANCH  34  35
ENDBRANCH  33  34
ENDBRANCH  31  33
ENDBRANCH  28  29
ENDBRANCH   3  23
TORSDOF 10
