REMARK  Name = ZINC39595190
REMARK  6 active torsions:
REMARK  status: ('A' for Active; 'I' for Inactive)
REMARK    1  A    between atoms: C_9  and  C_11
REMARK    2  A    between atoms: C_15  and  C_24
REMARK    3  A    between atoms: N_26  and  C_27
REMARK    4  A    between atoms: C_27  and  C_28
REMARK    5  A    between atoms: C_28  and  C_30
REMARK    6  A    between atoms: C_28  and  N_36
REMARK                            x       y       z     vdW  Elec       q    Type
REMARK                         _______ _______ _______ _____ _____    ______ ____
ROOT
ATOM      1  C   UNL     1       5.245  -2.749  -0.149  0.00  0.00    +0.265 C 
ATOM      2  O   UNL     1       5.382  -3.956  -0.122  0.00  0.00    -0.268 OA
ATOM      3  N   UNL     1       6.324  -1.950  -0.263  0.00  0.00    -0.295 N 
ATOM      4  C   UNL     1       6.370  -0.471  -0.196  0.00  0.00    +0.121 C 
ATOM      5  C   UNL     1       7.660  -0.155   0.594  0.00  0.00    +0.100 C 
ATOM      6  C   UNL     1       8.551  -1.394   0.400  0.00  0.00    -0.004 C 
ATOM      7  C   UNL     1       7.734  -2.354  -0.476  0.00  0.00    +0.115 C 
ATOM      8  C   UNL     1       8.851  -2.045   1.747  0.00  0.00    -0.010 C 
ATOM      9  C   UNL     1       9.785  -3.240   1.535  0.00  0.00    -0.082 C 
ATOM     10  N   UNL     1      11.028  -2.784   0.901  0.00  0.00    +0.379 N 
ATOM     11  C   UNL     1      10.742  -2.244  -0.433  0.00  0.00    -0.082 C 
ATOM     12  C   UNL     1       9.848  -1.007  -0.304  0.00  0.00    -0.010 C 
ATOM     13  H   UNL     1      11.451  -2.066   1.470  0.00  0.00    -0.086 HD
ATOM     14  H   UNL     1      11.666  -3.562   0.818  0.00  0.00    -0.086 HD
ENDROOT
BRANCH   1  23
ATOM     15  C   UNL     1       0.054   0.909   0.264  0.00  0.00    +0.001 A 
ATOM     16  C   UNL     1       1.204   1.697   0.239  0.00  0.00    +0.002 A 
ATOM     17  C   UNL     1       2.439   1.135   0.153  0.00  0.00    +0.028 A 
ATOM     18  C   UNL     1       2.566  -0.266   0.089  0.00  0.00    +0.072 A 
ATOM     19  C   UNL     1       1.393  -1.066   0.116  0.00  0.00    +0.000 A 
ATOM     20  C   UNL     1       0.135  -0.449   0.204  0.00  0.00    +0.010 A 
ATOM     21  C   UNL     1       1.517  -2.466   0.052  0.00  0.00    +0.012 A 
ATOM     22  C   UNL     1       2.771  -3.001  -0.034  0.00  0.00    +0.033 A 
ATOM     23  C   UNL     1       3.889  -2.155  -0.056  0.00  0.00    +0.126 A 
ATOM     24  N   UNL     1       3.763  -0.844   0.005  0.00  0.00    -0.242 NA
ENDBRANCH   1  23
BRANCH   5  25
ATOM     25  C   UNL     1       8.333   1.071   0.032  0.00  0.00    +0.218 C 
ATOM     26  O   UNL     1       8.150   1.386  -1.125  0.00  0.00    -0.275 OA
ATOM     27  N   UNL     1       9.137   1.817   0.816  0.00  0.00    -0.316 N 
ATOM     28  H   UNL     1       9.226   1.607   1.758  0.00  0.00    +0.149 HD
BRANCH  27  29
ATOM     29  C   UNL     1       9.877   2.944   0.243  0.00  0.00    +0.093 C 
BRANCH  29  30
ATOM     30  C   UNL     1      10.802   3.539   1.306  0.00  0.00    -0.019 C 
BRANCH  30  31
ATOM     31  C   UNL     1      11.862   2.532   1.671  0.00  0.00    -0.041 A 
ATOM     32  C   UNL     1      11.737   1.766   2.819  0.00  0.00    +0.005 A 
ATOM     33  C   UNL     1      12.737   0.852   3.115  0.00  0.00    +0.020 A 
ATOM     34  C   UNL     1      13.818   0.736   2.260  0.00  0.00    +0.111 A 
ATOM     35  N   UNL     1      13.903   1.482   1.177  0.00  0.00    -0.263 NA
ATOM     36  C   UNL     1      12.968   2.357   0.861  0.00  0.00    +0.112 A 
ENDBRANCH  30  31
BRANCH  30  37
ATOM     37  N   UNL     1      11.440   4.752   0.777  0.00  0.00    +0.385 N 
ATOM     38  C   UNL     1      10.429   5.825   0.595  0.00  0.00    -0.078 C 
ATOM     39  C   UNL     1      11.281   7.119   0.597  0.00  0.00    -0.020 C 
ATOM     40  C   UNL     1      12.366   6.817   1.657  0.00  0.00    -0.020 C 
ATOM     41  C   UNL     1      12.418   5.281   1.751  0.00  0.00    -0.078 C 
ATOM     42  H   UNL     1      11.896   4.551  -0.101  0.00  0.00    -0.081 HD
ENDBRANCH  30  37
ENDBRANCH  29  30
ENDBRANCH  27  29
ENDBRANCH   5  25
TORSDOF 6
