REMARK  Name = ZINC13065087
REMARK  17 active torsions:
REMARK  status: ('A' for Active; 'I' for Inactive)
REMARK    1  A    between atoms: C_1  and  C_2
REMARK    2  A    between atoms: C_2  and  C_3
REMARK    3  A    between atoms: C_3  and  C_5
REMARK    4  A    between atoms: C_3  and  N_72
REMARK    5  A    between atoms: N_9  and  C_10
REMARK    6  A    between atoms: C_10  and  C_11
REMARK    7  A    between atoms: C_11  and  O_13
REMARK    8  A    between atoms: O_13  and  C_14
REMARK    9  A    between atoms: C_14  and  C_15
REMARK   10  A    between atoms: C_16  and  C_17
REMARK   11  A    between atoms: C_16  and  N_72
REMARK   12  A    between atoms: C_20  and  O_23
REMARK   13  A    between atoms: O_23  and  C_24
REMARK   14  A    between atoms: C_25  and  C_26
REMARK   15  A    between atoms: C_25  and  N_72
REMARK   16  A    between atoms: C_31  and  C_39
REMARK   17  A    between atoms: C_32  and  C_38
REMARK                            x       y       z     vdW  Elec       q    Type
REMARK                         _______ _______ _______ _____ _____    ______ ____
ROOT
ATOM      1  N   UNL     1      -1.838   2.041  -0.954  0.00  0.00    +0.392 N 
ATOM      2  H   UNL     1      -1.931   1.108  -1.372  0.00  0.00    -0.080 HD
ENDROOT
BRANCH   1   3
ATOM      3  C   UNL     1      -3.152   2.718  -0.996  0.00  0.00    +0.003 C 
BRANCH   3   4
ATOM      4  C   UNL     1      -3.113   3.996  -0.198  0.00  0.00    +0.139 A 
ATOM      5  N   UNL     1      -2.586   4.160   0.991  0.00  0.00    -0.115 NA
ATOM      6  N   UNL     1      -2.754   5.391   1.334  0.00  0.00    -0.023 NA
ATOM      7  N   UNL     1      -3.373   6.016   0.394  0.00  0.00    -0.043 NA
ATOM      8  N   UNL     1      -3.608   5.191  -0.570  0.00  0.00    -0.220 N 
BRANCH   8   9
ATOM      9  C   UNL     1      -4.288   5.497  -1.831  0.00  0.00    +0.267 C 
BRANCH   9  10
ATOM     10  C   UNL     1      -5.777   5.346  -1.648  0.00  0.00    +0.329 C 
ATOM     11  O   UNL     1      -6.223   5.017  -0.575  0.00  0.00    -0.249 OA
BRANCH  10  12
ATOM     12  O   UNL     1      -6.606   5.578  -2.678  0.00  0.00    -0.464 OA
BRANCH  12  13
ATOM     13  C   UNL     1      -8.027   5.413  -2.429  0.00  0.00    +0.229 C 
ATOM     14  C   UNL     1      -8.807   5.718  -3.710  0.00  0.00    +0.048 C 
ENDBRANCH  12  13
ENDBRANCH  10  12
ENDBRANCH   9  10
ENDBRANCH   8   9
ENDBRANCH   3   4
BRANCH   3  16
ATOM     15  C   UNL     1      -4.350   0.547  -1.302  0.00  0.00    +0.002 C 
ATOM     16  C   UNL     1      -4.209   1.781  -0.408  0.00  0.00    -0.011 C 
ENDBRANCH   3  16
ENDBRANCH   1   3
BRANCH   1  17
ATOM     17  C   UNL     1      -0.845   2.817  -1.725  0.00  0.00    -0.042 C 
BRANCH  17  18
ATOM     18  C   UNL     1      -1.122   2.633  -3.195  0.00  0.00    -0.064 A 
ATOM     19  C   UNL     1      -0.614   1.533  -3.860  0.00  0.00    +0.005 A 
ATOM     20  C   UNL     1      -0.871   1.358  -5.206  0.00  0.00    +0.046 A 
ATOM     21  C   UNL     1      -1.631   2.294  -5.893  0.00  0.00    +0.120 A 
ATOM     22  C   UNL     1      -2.135   3.400  -5.224  0.00  0.00    +0.046 A 
ATOM     23  C   UNL     1      -1.880   3.567  -3.877  0.00  0.00    +0.005 A 
BRANCH  21  24
ATOM     24  O   UNL     1      -1.881   2.128  -7.218  0.00  0.00    -0.495 OA
ATOM     25  C   UNL     1      -1.331   0.966  -7.841  0.00  0.00    +0.277 C 
ENDBRANCH  21  24
ENDBRANCH  17  18
ENDBRANCH   1  17
BRANCH   1  26
ATOM     26  C   UNL     1      -1.390   1.897   0.447  0.00  0.00    -0.036 C 
BRANCH  26  27
ATOM     27  C   UNL     1      -0.285   0.873   0.498  0.00  0.00    +0.001 A 
ATOM     28  C   UNL     1       1.010   1.274   0.466  0.00  0.00    +0.017 A 
ATOM     29  C   UNL     1       2.060   0.255   0.510  0.00  0.00    -0.001 A 
ATOM     30  C   UNL     1       3.413   0.607   0.481  0.00  0.00    +0.010 A 
ATOM     31  C   UNL     1       4.368  -0.368   0.524  0.00  0.00    +0.004 A 
ATOM     32  C   UNL     1       4.008  -1.707   0.597  0.00  0.00    -0.046 A 
ATOM     33  C   UNL     1       2.681  -2.078   0.628  0.00  0.00    -0.024 A 
ATOM     34  C   UNL     1       1.690  -1.101   0.585  0.00  0.00    +0.052 A 
ATOM     35  N   UNL     1       0.355  -1.444   0.615  0.00  0.00    -0.322 N 
ATOM     36  H   UNL     1       0.103  -2.379   0.666  0.00  0.00    +0.169 HD
ATOM     37  C   UNL     1      -0.602  -0.500   0.573  0.00  0.00    +0.251 A 
ATOM     38  O   UNL     1      -1.772  -0.839   0.601  0.00  0.00    -0.268 OA
ATOM     39  C   UNL     1       2.304  -3.534   0.708  0.00  0.00    +0.046 C 
ATOM     40  C   UNL     1       5.079  -2.766   0.644  0.00  0.00    +0.044 C 
ENDBRANCH  26  27
ENDBRANCH   1  26
TORSDOF 12
