REMARK  Name = ZINC13152455
REMARK  4 active torsions:
REMARK  status: ('A' for Active; 'I' for Inactive)
REMARK    1  A    between atoms: C_4  and  C_7
REMARK    2  A    between atoms: C_7  and  C_8
REMARK    3  A    between atoms: N_12  and  C_22
REMARK    4  A    between atoms: N_14  and  C_15
REMARK                            x       y       z     vdW  Elec       q    Type
REMARK                         _______ _______ _______ _____ _____    ______ ____
ROOT
ATOM      1  C   UNL     1       4.096  -1.048   2.036  0.00  0.00    +0.145 C 
ATOM      2  C   UNL     1       5.402  -1.822   2.112  0.00  0.00    +0.239 C 
ATOM      3  O   UNL     1       5.431  -3.022   2.278  0.00  0.00    -0.274 OA
ATOM      4  N   UNL     1       6.505  -1.104   1.986  0.00  0.00    -0.218 N 
ATOM      5  C   UNL     1       6.480   0.264   1.796  0.00  0.00    +0.168 C 
ATOM      6  N   UNL     1       7.497   1.081   1.658  0.00  0.00    -0.225 NA
ATOM      7  S   UNL     1       4.737   0.659   1.784  0.00  0.00    -0.077 S 
ENDROOT
BRANCH   6   8
ATOM      8  C   UNL     1       7.279   2.421   1.477  0.00  0.00    +0.067 A 
ATOM      9  C   UNL     1       6.301   2.858   0.582  0.00  0.00    +0.028 A 
ATOM     10  C   UNL     1       6.086   4.209   0.405  0.00  0.00    +0.002 A 
ATOM     11  C   UNL     1       6.837   5.131   1.112  0.00  0.00    +0.000 A 
ATOM     12  C   UNL     1       7.809   4.705   2.000  0.00  0.00    +0.002 A 
ATOM     13  C   UNL     1       8.030   3.357   2.191  0.00  0.00    +0.028 A 
ENDBRANCH   6   8
BRANCH   4  14
ATOM     14  C   UNL     1       7.745  -1.754   2.046  0.00  0.00    +0.043 A 
ATOM     15  C   UNL     1       8.333  -2.240   0.886  0.00  0.00    +0.024 A 
ATOM     16  C   UNL     1       9.555  -2.881   0.949  0.00  0.00    +0.002 A 
ATOM     17  C   UNL     1      10.192  -3.039   2.165  0.00  0.00    +0.000 A 
ATOM     18  C   UNL     1       9.609  -2.556   3.323  0.00  0.00    +0.002 A 
ATOM     19  C   UNL     1       8.390  -1.909   3.265  0.00  0.00    +0.024 A 
ENDBRANCH   4  14
BRANCH   1  20
ATOM     20  C   UNL     1       3.250  -1.504   0.845  0.00  0.00    +0.059 C 
BRANCH  20  24
ATOM     21  C   UNL     1      -0.422   0.678   0.786  0.00  0.00    +0.000 A 
ATOM     22  C   UNL     1       0.683   1.166   0.112  0.00  0.00    +0.000 A 
ATOM     23  C   UNL     1       1.871   0.460   0.132  0.00  0.00    +0.004 A 
ATOM     24  C   UNL     1       1.955  -0.734   0.825  0.00  0.00    -0.046 A 
ATOM     25  C   UNL     1       0.851  -1.220   1.499  0.00  0.00    +0.004 A 
ATOM     26  C   UNL     1      -0.338  -0.515   1.478  0.00  0.00    +0.000 A 
ENDBRANCH  20  24
ENDBRANCH   1  20
TORSDOF 4
