REMARK  Name = ZINC59086926
REMARK  8 active torsions:
REMARK  status: ('A' for Active; 'I' for Inactive)
REMARK    1  A    between atoms: C_1  and  C_2
REMARK    2  A    between atoms: C_2  and  C_3
REMARK    3  A    between atoms: C_2  and  N_4
REMARK    4  A    between atoms: C_9  and  C_27
REMARK    5  A    between atoms: C_12  and  C_17
REMARK    6  A    between atoms: C_12  and  C_24
REMARK    7  A    between atoms: C_17  and  C_18
REMARK    8  A    between atoms: C_32  and  O_33
REMARK                            x       y       z     vdW  Elec       q    Type
REMARK                         _______ _______ _______ _____ _____    ______ ____
ROOT
ATOM      1  N   UNL     1       0.720  -0.711  -1.154  0.00  0.00    -0.239 N 
ATOM      2  C   UNL     1       0.269  -0.366  -2.404  0.00  0.00    +0.228 C 
ATOM      3  O   UNL     1      -0.586   0.447  -2.684  0.00  0.00    -0.275 OA
ATOM      4  C   UNL     1       1.036  -1.184  -3.311  0.00  0.00    +0.111 C 
ATOM      5  C   UNL     1       1.451  -1.234  -4.723  0.00  0.00    +0.101 C 
ATOM      6  N   UNL     1       2.468  -2.341  -4.714  0.00  0.00    -0.293 NA
ATOM      7  C   UNL     1       2.992  -2.467  -3.321  0.00  0.00    +0.138 C 
ATOM      8  C   UNL     1       2.434  -1.245  -2.577  0.00  0.00    +0.121 C 
ATOM      9  C   UNL     1       1.878  -1.434  -1.192  0.00  0.00    +0.228 C 
ATOM     10  O   UNL     1       2.359  -2.094  -0.296  0.00  0.00    -0.275 OA
ATOM     11  H   UNL     1       2.061  -3.209  -5.027  0.00  0.00    +0.124 HD
ENDROOT
BRANCH   5  12
ATOM     12  C   UNL     1       0.286  -1.581  -5.614  0.00  0.00    +0.012 A 
ATOM     13  C   UNL     1      -0.866  -2.115  -5.070  0.00  0.00    +0.009 A 
ATOM     14  C   UNL     1      -1.935  -2.434  -5.886  0.00  0.00    +0.001 A 
ATOM     15  C   UNL     1      -1.855  -2.218  -7.250  0.00  0.00    +0.004 A 
ATOM     16  C   UNL     1      -0.706  -1.683  -7.799  0.00  0.00    +0.046 A 
ATOM     17  C   UNL     1       0.367  -1.358  -6.981  0.00  0.00    +0.122 A 
BRANCH  17  18
ATOM     18  O   UNL     1       1.496  -0.826  -7.518  0.00  0.00    -0.506 OA
ATOM     19  H   UNL     1       2.151  -1.484  -7.787  0.00  0.00    +0.292 HD
ENDBRANCH  17  18
ENDBRANCH   5  12
BRANCH   1  21
ATOM     20  C   UNL     1      -0.050   1.187   0.183  0.00  0.00    +0.028 C 
ATOM     21  C   UNL     1       0.037  -0.338   0.087  0.00  0.00    +0.078 C 
ATOM     22  C   UNL     1      -1.374  -0.930   0.090  0.00  0.00    +0.028 C 
ENDBRANCH   1  21
BRANCH   7  23
ATOM     23  C   UNL     1       4.499  -2.418  -3.324  0.00  0.00    +0.377 C 
ATOM     24  O   UNL     1       5.103  -2.317  -4.378  0.00  0.00    -0.244 OA
ATOM     25  O   UNL     1       5.113  -2.480  -2.273  0.00  0.00    -0.244 OA
ENDBRANCH   7  23
BRANCH   7  26
ATOM     26  C   UNL     1       2.505  -3.773  -2.689  0.00  0.00    +0.069 C 
BRANCH  26  27
ATOM     27  C   UNL     1       3.023  -4.942  -3.486  0.00  0.00    -0.045 A 
ATOM     28  C   UNL     1       2.283  -5.441  -4.542  0.00  0.00    +0.004 A 
ATOM     29  C   UNL     1       2.757  -6.513  -5.274  0.00  0.00    +0.000 A 
ATOM     30  C   UNL     1       3.973  -7.086  -4.950  0.00  0.00    +0.000 A 
ATOM     31  C   UNL     1       4.714  -6.586  -3.896  0.00  0.00    +0.000 A 
ATOM     32  C   UNL     1       4.241  -5.511  -3.167  0.00  0.00    +0.004 A 
ENDBRANCH  26  27
ENDBRANCH   7  26
TORSDOF 6
