REMARK  Name = ZINC06858676
REMARK  2 active torsions:
REMARK  status: ('A' for Active; 'I' for Inactive)
REMARK    1  A    between atoms: C_6  and  S_7
REMARK    2  A    between atoms: S_7  and  N_10
REMARK                            x       y       z     vdW  Elec       q    Type
REMARK                         _______ _______ _______ _____ _____    ______ ____
ROOT
ATOM      1  S   UNL     1       5.009   1.140  -0.041  0.00  0.00    +0.075 S 
ATOM      2  O   UNL     1       6.063   2.092  -0.073  0.00  0.00    -0.150 OA
ATOM      3  O   UNL     1       4.901   0.158   0.980  0.00  0.00    -0.150 OA
ENDROOT
BRANCH   1   4
ATOM      4  N   UNL     1       3.594   2.000  -0.022  0.00  0.00    -0.199 N 
ATOM      5  C   UNL     1       2.374   1.333  -0.014  0.00  0.00    +0.138 A 
ATOM      6  C   UNL     1       1.190   2.062   0.002  0.00  0.00    +0.046 A 
ATOM      7  C   UNL     1      -0.017   1.385   0.010  0.00  0.00    +0.025 A 
ATOM      8  C   UNL     1       0.002  -0.004   0.002  0.00  0.00    +0.059 A 
ATOM      9  C   UNL     1       1.216  -0.664  -0.013  0.00  0.00    +0.133 A 
ATOM     10  N   UNL     1       2.351   0.009  -0.021  0.00  0.00    -0.238 NA
ATOM     11 CL   UNL     1      -1.484  -0.901   0.012  0.00  0.00    -0.082 Cl
ATOM     12  H   UNL     1       3.616   2.970  -0.018  0.00  0.00    +0.175 HD
ENDBRANCH   1   4
BRANCH   1  18
ATOM     13  C   UNL     1       5.651   0.852  -2.688  0.00  0.00    +0.033 A 
ATOM     14  C   UNL     1       5.677   0.130  -3.871  0.00  0.00    +0.042 A 
ATOM     15  C   UNL     1       5.125  -1.138  -3.899  0.00  0.00    +0.129 A 
ATOM     16  N   UNL     1       4.579  -1.660  -2.817  0.00  0.00    -0.242 NA
ATOM     17  C   UNL     1       4.542  -1.004  -1.674  0.00  0.00    +0.141 A 
ATOM     18  C   UNL     1       5.069   0.269  -1.572  0.00  0.00    +0.127 A 
ATOM     19 CL   UNL     1       5.150  -2.053  -5.375  0.00  0.00    -0.062 Cl
ENDBRANCH   1  18
TORSDOF 2
