REMARK  Name = ZINC16047601
REMARK  5 active torsions:
REMARK  status: ('A' for Active; 'I' for Inactive)
REMARK    1  A    between atoms: C_1  and  C_2
REMARK    2  A    between atoms: N_7  and  S_9
REMARK    3  A    between atoms: S_9  and  C_12
REMARK    4  A    between atoms: C_15  and  C_18
REMARK    5  A    between atoms: C_24  and  C_26
REMARK                            x       y       z     vdW  Elec       q    Type
REMARK                         _______ _______ _______ _____ _____    ______ ____
ROOT
ATOM      1  C   UNL     1      -6.758  -1.307  -0.894  0.00  0.00    +0.252 C 
ATOM      2  O   UNL     1      -7.727  -0.689  -1.290  0.00  0.00    -0.270 OA
ATOM      3  N   UNL     1      -6.924  -2.403  -0.127  0.00  0.00    -0.234 N 
ATOM      4  C   UNL     1      -8.200  -2.825   0.210  0.00  0.00    +0.315 A 
ATOM      5  N   UNL     1      -9.325  -2.251  -0.143  0.00  0.00    -0.092 NA
ATOM      6  N   UNL     1     -10.314  -2.914   0.344  0.00  0.00    -0.106 NA
ATOM      7  C   UNL     1      -9.859  -3.931   1.035  0.00  0.00    +0.251 A 
ATOM      8  O   UNL     1      -8.511  -3.896   0.964  0.00  0.00    -0.405 OA
ATOM      9  H   UNL     1      -6.151  -2.896   0.189  0.00  0.00    +0.160 HD
ENDROOT
BRANCH   7  10
ATOM     10  C   UNL     1     -10.671  -4.932   1.758  0.00  0.00    +0.058 A 
ATOM     11  C   UNL     1     -10.048  -5.972   2.451  0.00  0.00    +0.034 A 
ATOM     12  C   UNL     1     -10.813  -6.900   3.128  0.00  0.00    +0.042 A 
ATOM     13  C   UNL     1     -12.195  -6.809   3.112  0.00  0.00    +0.021 A 
ATOM     14  C   UNL     1     -12.818  -5.784   2.423  0.00  0.00    +0.022 A 
ATOM     15  C   UNL     1     -12.065  -4.846   1.745  0.00  0.00    +0.053 A 
ATOM     16 CL   UNL     1     -12.849  -3.561   0.880  0.00  0.00    -0.083 Cl
ATOM     17 CL   UNL     1     -10.040  -8.189   3.997  0.00  0.00    -0.084 Cl
ENDBRANCH   7  10
BRANCH   1  21
ATOM     18  C   UNL     1      -2.847  -0.013  -1.928  0.00  0.00    +0.106 A 
ATOM     19  C   UNL     1      -3.015  -1.141  -1.146  0.00  0.00    +0.029 A 
ATOM     20  C   UNL     1      -4.282  -1.564  -0.801  0.00  0.00    +0.015 A 
ATOM     21  C   UNL     1      -5.397  -0.856  -1.254  0.00  0.00    +0.037 A 
ATOM     22  C   UNL     1      -5.221   0.278  -2.048  0.00  0.00    +0.015 A 
ATOM     23  C   UNL     1      -3.948   0.693  -2.380  0.00  0.00    +0.029 A 
BRANCH  18  24
ATOM     24  S   UNL     1      -1.225   0.524  -2.357  0.00  0.00    +0.061 S 
ATOM     25  O   UNL     1      -1.351   1.284  -3.552  0.00  0.00    -0.153 OA
ATOM     26  O   UNL     1      -0.382  -0.616  -2.266  0.00  0.00    -0.153 OA
BRANCH  24  32
ATOM     27  C   UNL     1      -1.879   5.010  -0.075  0.00  0.00    +0.009 C 
ATOM     28  C   UNL     1      -1.712   3.490  -0.028  0.00  0.00    +0.002 C 
ATOM     29  C   UNL     1      -0.878   3.105   1.196  0.00  0.00    +0.006 C 
ATOM     30  C   UNL     1      -0.736   1.583   1.264  0.00  0.00    +0.017 C 
ATOM     31  C   UNL     1      -0.013   1.086   0.008  0.00  0.00    +0.109 C 
ATOM     32  N   UNL     1      -0.729   1.575  -1.178  0.00  0.00    -0.176 NA
ATOM     33  C   UNL     1      -0.997   3.015  -1.297  0.00  0.00    +0.112 C 
ENDBRANCH  24  32
ENDBRANCH  18  24
ENDBRANCH   1  21
TORSDOF 4
