REMARK  Name = ZINC09018795
REMARK  11 active torsions:
REMARK  status: ('A' for Active; 'I' for Inactive)
REMARK    1  A    between atoms: C_1  and  C_2
REMARK    2  A    between atoms: C_2  and  C_3
REMARK    3  A    between atoms: C_2  and  C_4
REMARK    4  A    between atoms: C_2  and  C_5
REMARK    5  A    between atoms: C_13  and  S_16
REMARK    6  A    between atoms: S_16  and  C_17
REMARK    7  A    between atoms: C_17  and  C_18
REMARK    8  A    between atoms: C_21  and  C_31
REMARK    9  A    between atoms: C_24  and  C_26
REMARK   10  A    between atoms: C_34  and  O_37
REMARK   11  A    between atoms: O_37  and  C_38
REMARK                            x       y       z     vdW  Elec       q    Type
REMARK                         _______ _______ _______ _____ _____    ______ ____
ROOT
ATOM      1  C   UNL     1       1.681  -1.262   3.562  0.00  0.00    +0.246 C 
ATOM      2  O   UNL     1       1.160  -1.310   4.657  0.00  0.00    -0.273 OA
ATOM      3  N   UNL     1       1.075  -1.833   2.503  0.00  0.00    -0.184 N 
ATOM      4  C   UNL     1      -0.213  -2.543   2.534  0.00  0.00    +0.137 C 
ATOM      5  C   UNL     1      -0.421  -2.983   1.071  0.00  0.00    +0.087 C 
ATOM      6  C   UNL     1       0.804  -2.460   0.356  0.00  0.00    +0.075 C 
ATOM      7  N   UNL     1       1.567  -1.848   1.199  0.00  0.00    -0.180 NA
ENDROOT
BRANCH   4   8
ATOM      8  C   UNL     1      -1.319  -1.617   2.971  0.00  0.00    -0.024 A 
ATOM      9  C   UNL     1      -2.321  -2.082   3.802  0.00  0.00    +0.009 A 
ATOM     10  C   UNL     1      -3.336  -1.235   4.204  0.00  0.00    +0.046 A 
ATOM     11  C   UNL     1      -3.349   0.083   3.773  0.00  0.00    +0.120 A 
ATOM     12  C   UNL     1      -2.342   0.548   2.939  0.00  0.00    +0.046 A 
ATOM     13  C   UNL     1      -1.329  -0.303   2.540  0.00  0.00    +0.009 A 
BRANCH  11  14
ATOM     14  O   UNL     1      -4.349   0.917   4.162  0.00  0.00    -0.495 OA
ATOM     15  C   UNL     1      -4.297   2.261   3.680  0.00  0.00    +0.277 C 
ENDBRANCH  11  14
ENDBRANCH   4   8
BRANCH   6  16
ATOM     16  C   UNL     1       1.082  -2.622  -1.075  0.00  0.00    +0.035 A 
ATOM     17  C   UNL     1       2.170  -2.179  -1.808  0.00  0.00    +0.017 A 
ATOM     18  C   UNL     1       2.207  -2.456  -3.155  0.00  0.00    +0.008 A 
ATOM     19  C   UNL     1       1.185  -3.151  -3.719  0.00  0.00    +0.046 A 
ATOM     20  S   UNL     1       0.111  -3.449  -2.324  0.00  0.00    -0.095 S 
ENDBRANCH   6  16
BRANCH   1  21
ATOM     21  C   UNL     1       3.005  -0.564   3.387  0.00  0.00    +0.175 C 
BRANCH  21  22
ATOM     22  S   UNL     1       3.556   0.096   4.984  0.00  0.00    -0.076 S 
BRANCH  22  31
ATOM     23  C   UNL     1       5.782   1.749   6.863  0.00  0.00    +0.039 A 
ATOM     24  C   UNL     1       6.739   2.427   7.522  0.00  0.00    +0.092 A 
ATOM     25  C   UNL     1       7.875   2.905   6.824  0.00  0.00    +0.253 A 
ATOM     26  O   UNL     1       8.744   3.519   7.418  0.00  0.00    -0.268 OA
ATOM     27  N   UNL     1       7.992   2.678   5.500  0.00  0.00    -0.291 N 
ATOM     28  H   UNL     1       8.768   3.003   5.018  0.00  0.00    +0.172 HD
ATOM     29  C   UNL     1       7.002   1.980   4.830  0.00  0.00    +0.237 A 
ATOM     30  N   UNL     1       5.901   1.524   5.511  0.00  0.00    -0.260 N 
ATOM     31  C   UNL     1       5.095   0.872   4.617  0.00  0.00    +0.198 A 
ATOM     32  N   UNL     1       5.667   0.930   3.439  0.00  0.00    -0.120 NA
ATOM     33  N   UNL     1       6.872   1.630   3.573  0.00  0.00    -0.109 NA
BRANCH  23  35
ATOM     34  C   UNL     1       4.684   1.625   9.083  0.00  0.00    +0.017 C 
ATOM     35  C   UNL     1       4.573   1.241   7.606  0.00  0.00    +0.003 C 
ATOM     36  C   UNL     1       3.309   1.865   7.010  0.00  0.00    +0.017 C 
ATOM     37  C   UNL     1       4.500  -0.282   7.478  0.00  0.00    +0.017 C 
ENDBRANCH  23  35
ENDBRANCH  22  31
ENDBRANCH  21  22
ENDBRANCH   1  21
TORSDOF 7
