REMARK  Name = ZINC65061458
REMARK  10 active torsions:
REMARK  status: ('A' for Active; 'I' for Inactive)
REMARK    1  A    between atoms: C_1  and  C_2
REMARK    2  A    between atoms: C_2  and  C_3
REMARK    3  A    between atoms: C_3  and  N_4
REMARK    4  A    between atoms: C_10  and  C_12
REMARK    5  A    between atoms: C_12  and  C_14
REMARK    6  A    between atoms: C_12  and  C_15
REMARK    7  A    between atoms: N_18  and  S_21
REMARK    8  A    between atoms: S_21  and  C_24
REMARK    9  A    between atoms: C_25  and  C_30
REMARK   10  A    between atoms: C_28  and  C_29
REMARK                            x       y       z     vdW  Elec       q    Type
REMARK                         _______ _______ _______ _____ _____    ______ ____
ROOT
ATOM      1  C   UNL     1      -4.253  -7.104   2.495  0.00  0.00    +0.003 C 
ATOM      2  C   UNL     1      -5.672  -7.628   2.264  0.00  0.00    +0.021 C 
ATOM      3  C   UNL     1      -5.996  -8.695   3.314  0.00  0.00    +0.110 C 
ATOM      4  N   UNL     1      -5.772  -8.126   4.650  0.00  0.00    -0.176 NA
ATOM      5  C   UNL     1      -4.471  -7.514   4.949  0.00  0.00    +0.110 C 
ATOM      6  C   UNL     1      -4.164  -6.460   3.880  0.00  0.00    +0.021 C 
ENDROOT
BRANCH   4   7
ATOM      7  S   UNL     1      -6.966  -8.174   5.797  0.00  0.00    +0.066 S 
ATOM      8  O   UNL     1      -6.696  -7.117   6.708  0.00  0.00    -0.153 OA
ATOM      9  O   UNL     1      -8.198  -8.280   5.097  0.00  0.00    -0.153 OA
BRANCH   7  10
ATOM     10  C   UNL     1      -6.766  -9.676   6.695  0.00  0.00    +0.170 A 
ATOM     11  C   UNL     1      -7.354 -10.913   6.376  0.00  0.00    +0.107 A 
ATOM     12  N   UNL     1      -6.974 -11.784   7.267  0.00  0.00    -0.081 NA
ATOM     13  O   UNL     1      -6.125 -11.123   8.188  0.00  0.00    -0.358 OA
ATOM     14  C   UNL     1      -6.018  -9.842   7.803  0.00  0.00    +0.161 A 
ATOM     15  C   UNL     1      -5.207  -8.774   8.492  0.00  0.00    +0.091 C 
ATOM     16  C   UNL     1      -8.266 -11.184   5.207  0.00  0.00    +0.071 C 
ENDBRANCH   7  10
ENDBRANCH   4   7
BRANCH   1  17
ATOM     17  C   UNL     1      -3.913  -6.062   1.427  0.00  0.00    +0.075 C 
ATOM     18  C   UNL     1      -4.002  -6.705   0.041  0.00  0.00    +0.017 C 
BRANCH  17  25
ATOM     19  N   UNL     1      -1.876  -1.524   1.317  0.00  0.00    +0.382 N 
ATOM     20  C   UNL     1      -1.052  -2.358   2.201  0.00  0.00    -0.060 C 
ATOM     21  C   UNL     1      -0.859  -3.739   1.566  0.00  0.00    +0.089 C 
ATOM     22  N   UNL     1      -2.184  -4.301   1.261  0.00  0.00    -0.305 N 
ATOM     23  C   UNL     1      -3.137  -3.465   0.515  0.00  0.00    +0.089 C 
ATOM     24  C   UNL     1      -3.223  -2.097   1.200  0.00  0.00    -0.060 C 
ATOM     25  C   UNL     1      -2.515  -5.548   1.653  0.00  0.00    +0.219 C 
ATOM     26  O   UNL     1      -1.688  -6.255   2.188  0.00  0.00    -0.275 OA
ATOM     27  H   UNL     1      -1.448  -1.483   0.403  0.00  0.00    -0.082 HD
BRANCH  19  28
ATOM     28  C   UNL     1      -1.969  -0.168   1.873  0.00  0.00    -0.079 C 
BRANCH  28  30
ATOM     29  C   UNL     1      -0.679   1.890   2.458  0.00  0.00    +0.002 C 
ATOM     30  C   UNL     1      -0.582   0.477   1.879  0.00  0.00    -0.022 C 
ENDBRANCH  28  30
ENDBRANCH  19  28
ENDBRANCH  17  25
ENDBRANCH   1  17
TORSDOF 6
