REMARK  Name = ZINC13467420
REMARK  7 active torsions:
REMARK  status: ('A' for Active; 'I' for Inactive)
REMARK    1  A    between atoms: C_1  and  C_2
REMARK    2  A    between atoms: C_2  and  C_4
REMARK    3  A    between atoms: C_2  and  O_29
REMARK    4  A    between atoms: C_10  and  C_28
REMARK    5  A    between atoms: C_21  and  C_27
REMARK    6  A    between atoms: O_29  and  C_30
REMARK    7  A    between atoms: C_30  and  C_32
REMARK                            x       y       z     vdW  Elec       q    Type
REMARK                         _______ _______ _______ _____ _____    ______ ____
ROOT
ATOM      1  C   UNL     1      -2.025  -2.896  -0.791  0.00  0.00    +0.036 C 
ATOM      2  C   UNL     1      -3.287  -2.498   0.020  0.00  0.00    +0.008 C 
ATOM      3  C   UNL     1      -4.071  -1.476  -0.853  0.00  0.00    +0.005 C 
ATOM      4  C   UNL     1      -3.005  -1.012  -1.852  0.00  0.00    -0.001 C 
ATOM      5  C   UNL     1      -2.304  -2.339  -2.198  0.00  0.00    -0.023 C 
ATOM      6  C   UNL     1      -1.116  -2.085  -3.089  0.00  0.00    +0.007 C 
ATOM      7  C   UNL     1      -1.595  -1.333  -4.350  0.00  0.00    +0.005 C 
ATOM      8  C   UNL     1      -2.214  -0.001  -3.954  0.00  0.00    -0.001 C 
ATOM      9  C   UNL     1      -3.432  -0.209  -3.043  0.00  0.00    -0.004 C 
ATOM     10  C   UNL     1      -4.608  -0.780  -3.817  0.00  0.00    +0.004 C 
ATOM     11  C   UNL     1      -4.971   0.178  -4.963  0.00  0.00    +0.005 C 
ATOM     12  C   UNL     1      -3.765   0.271  -5.903  0.00  0.00    +0.002 C 
ATOM     13  C   UNL     1      -2.581   0.872  -5.152  0.00  0.00    -0.025 C 
ATOM     14  C   UNL     1      -2.945   2.269  -4.635  0.00  0.00    +0.015 C 
ATOM     15  C   UNL     1      -3.315   3.204  -5.783  0.00  0.00    +0.075 C 
ATOM     16  C   UNL     1      -4.366   2.550  -6.649  0.00  0.00    +0.134 C 
ATOM     17  O   UNL     1      -5.368   3.149  -6.966  0.00  0.00    -0.297 OA
ATOM     18  C   UNL     1      -4.138   1.130  -7.112  0.00  0.00    +0.078 C 
ATOM     19  C   UNL     1      -1.374   0.994  -6.090  0.00  0.00    +0.012 C 
ATOM     20  C   UNL     1      -3.241  -3.354  -2.865  0.00  0.00    +0.012 C 
ENDROOT
BRANCH   1  22
ATOM     21  C   UNL     1      -0.478  -2.963   1.162  0.00  0.00    +0.052 C 
ATOM     22  C   UNL     1      -0.773  -2.284  -0.176  0.00  0.00    +0.177 C 
BRANCH  22  23
ATOM     23  O   UNL     1      -0.985  -0.864   0.038  0.00  0.00    -0.462 OA
BRANCH  23  24
ATOM     24  C   UNL     1       0.096  -0.070  -0.029  0.00  0.00    +0.304 C 
ATOM     25  O   UNL     1       1.182  -0.546  -0.260  0.00  0.00    -0.251 OA
ATOM     26  C   UNL     1      -0.046   1.415   0.182  0.00  0.00    +0.136 C 
ENDBRANCH  23  24
ENDBRANCH  22  23
ENDBRANCH   1  22
TORSDOF 3
