REMARK  Name = ZINC58574280
REMARK  3 active torsions:
REMARK  status: ('A' for Active; 'I' for Inactive)
REMARK    1  A    between atoms: C_2  and  N_12
REMARK    2  A    between atoms: C_6  and  N_7
REMARK    3  A    between atoms: C_13  and  C_15
REMARK                            x       y       z     vdW  Elec       q    Type
REMARK                         _______ _______ _______ _____ _____    ______ ____
ROOT
ATOM      1  C   UNL     1       0.141   1.386  -0.611  0.00  0.00    +0.061 A 
ATOM      2  C   UNL     1       1.177   2.087  -0.009  0.00  0.00    +0.071 A 
ATOM      3  C   UNL     1       2.233   1.397   0.575  0.00  0.00    +0.147 A 
ATOM      4  C   UNL     1       2.248   0.014   0.555  0.00  0.00    +0.081 A 
ATOM      5  C   UNL     1       1.213  -0.681  -0.047  0.00  0.00    +0.156 A 
ATOM      6  C   UNL     1       0.160   0.005  -0.628  0.00  0.00    +0.163 A 
ATOM      7  F   UNL     1       1.230  -2.032  -0.066  0.00  0.00    -0.203 F 
ATOM      8  F   UNL     1       3.243   2.076   1.161  0.00  0.00    -0.203 F 
ENDROOT
BRANCH   2   9
ATOM      9  N   UNL     1       1.159   3.488   0.009  0.00  0.00    -0.283 N 
ATOM     10  C   UNL     1      -0.013   4.148  -0.078  0.00  0.00    +0.220 C 
ATOM     11  O   UNL     1      -1.058   3.533  -0.072  0.00  0.00    -0.275 OA
ATOM     12  H   UNL     1       1.990   3.983   0.085  0.00  0.00    +0.155 HD
BRANCH  10  13
ATOM     13  C   UNL     1      -0.025   5.652  -0.184  0.00  0.00    +0.075 C 
ATOM     14  C   UNL     1       0.648   6.255   1.050  0.00  0.00    +0.013 C 
ATOM     15  C   UNL     1       0.636   7.781   0.943  0.00  0.00    +0.001 C 
ATOM     16  C   UNL     1      -0.810   8.275   0.858  0.00  0.00    +0.000 C 
ATOM     17  C   UNL     1      -1.483   7.671  -0.377  0.00  0.00    +0.001 C 
ATOM     18  C   UNL     1      -1.471   6.145  -0.269  0.00  0.00    +0.013 C 
ENDBRANCH  10  13
ENDBRANCH   2   9
BRANCH   6  19
ATOM     19  N   UNL     1      -0.945  -0.742  -1.270  0.00  0.00    +0.059 N 
ATOM     20  O   UNL     1      -1.864  -0.143  -1.777  0.00  0.00    -0.126 OA
ATOM     21  O   UNL     1      -0.929  -1.950  -1.285  0.00  0.00    -0.126 OA
ENDBRANCH   6  19
TORSDOF 3
