REMARK  Name = ZINC17121781
REMARK  3 active torsions:
REMARK  status: ('A' for Active; 'I' for Inactive)
REMARK    1  A    between atoms: C_1  and  C_2
REMARK    2  A    between atoms: N_16  and  C_17
REMARK    3  A    between atoms: C_17  and  C_18
REMARK                            x       y       z     vdW  Elec       q    Type
REMARK                         _______ _______ _______ _____ _____    ______ ____
ROOT
ATOM      1  C   UNL     1      -8.607  -6.313  -6.026  0.00  0.00    +0.044 C 
ATOM      2  C   UNL     1      -7.880  -5.790  -4.815  0.00  0.00    -0.050 A 
ATOM      3  C   UNL     1      -8.326  -6.136  -3.544  0.00  0.00    +0.005 A 
ATOM      4  C   UNL     1      -7.689  -5.676  -2.428  0.00  0.00    +0.029 A 
ATOM      5  C   UNL     1      -6.571  -4.846  -2.563  0.00  0.00    +0.079 A 
ATOM      6  C   UNL     1      -6.117  -4.495  -3.857  0.00  0.00    +0.067 A 
ATOM      7  C   UNL     1      -6.791  -4.981  -4.980  0.00  0.00    +0.018 A 
ATOM      8  C   UNL     1      -4.948  -3.627  -3.975  0.00  0.00    +0.283 A 
ATOM      9  O   UNL     1      -4.526  -3.300  -5.071  0.00  0.00    -0.265 OA
ATOM     10  N   UNL     1      -4.334  -3.186  -2.834  0.00  0.00    -0.169 N 
ATOM     11  C   UNL     1      -4.864  -3.593  -1.637  0.00  0.00    +0.201 A 
ATOM     12  N   UNL     1      -5.905  -4.367  -1.498  0.00  0.00    -0.221 NA
ATOM     13  S   UNL     1      -3.787  -2.809  -0.453  0.00  0.00    -0.013 S 
ATOM     14  C   UNL     1      -2.708  -1.995  -1.619  0.00  0.00    +0.182 A 
ATOM     15  N   UNL     1      -3.220  -2.354  -2.764  0.00  0.00    -0.139 NA
ATOM     16  N   UNL     1      -1.613  -1.185  -1.371  0.00  0.00    -0.315 N 
ATOM     17  H   UNL     1      -1.113  -0.806  -2.111  0.00  0.00    +0.148 HD
ENDROOT
BRANCH  16  18
ATOM     18  C   UNL     1      -1.208  -0.902   0.008  0.00  0.00    +0.178 C 
BRANCH  18  19
ATOM     19  C   UNL     1       0.002  -0.004   0.002  0.00  0.00    +0.122 A 
ATOM     20  C   UNL     1      -0.016   1.341   0.009  0.00  0.00    +0.046 A 
ATOM     21  C   UNL     1       1.331   1.769  -0.001  0.00  0.00    +0.041 A 
ATOM     22  C   UNL     1       2.092   0.660  -0.014  0.00  0.00    +0.195 A 
ATOM     23  O   UNL     1       1.282  -0.411  -0.012  0.00  0.00    -0.466 OA
ENDBRANCH  18  19
ENDBRANCH  16  18
TORSDOF 2
