REMARK  Name = ZINC36552936
REMARK  13 active torsions:
REMARK  status: ('A' for Active; 'I' for Inactive)
REMARK    1  A    between atoms: C_1  and  C_2
REMARK    2  A    between atoms: C_2  and  C_3
REMARK    3  A    between atoms: C_2  and  C_4
REMARK    4  A    between atoms: C_2  and  C_5
REMARK    5  A    between atoms: C_5  and  C_6
REMARK    6  A    between atoms: C_6  and  C_7
REMARK    7  A    between atoms: C_6  and  C_8
REMARK    8  A    between atoms: C_6  and  N_9
REMARK    9  A    between atoms: C_10  and  C_12
REMARK   10  A    between atoms: C_12  and  C_14
REMARK   11  A    between atoms: C_12  and  N_19
REMARK   12  A    between atoms: N_19  and  C_20
REMARK   13  A    between atoms: C_27  and  C_29
REMARK                            x       y       z     vdW  Elec       q    Type
REMARK                         _______ _______ _______ _____ _____    ______ ____
ROOT
ATOM      1  C   UNL     1       5.115  -0.150  -4.084  0.00  0.00    +0.233 C 
ENDROOT
BRANCH   1   2
ATOM      2  C   UNL     1       4.725  -1.603  -4.177  0.00  0.00    +0.135 A 
ATOM      3  C   UNL     1       3.676  -2.093  -4.862  0.00  0.00    +0.047 A 
ATOM      4  C   UNL     1       3.684  -3.495  -4.677  0.00  0.00    +0.041 A 
ATOM      5  C   UNL     1       4.738  -3.777  -3.889  0.00  0.00    +0.195 A 
ATOM      6  O   UNL     1       5.367  -2.628  -3.594  0.00  0.00    -0.465 OA
ENDBRANCH   1   2
BRANCH   1   8
ATOM      7  N   UNL     1       3.723   0.280  -2.086  0.00  0.00    -0.308 N 
ATOM      8  C   UNL     1       4.938   0.328  -2.666  0.00  0.00    +0.242 C 
ATOM      9  O   UNL     1       5.889   0.755  -2.047  0.00  0.00    -0.273 OA
ATOM     10  H   UNL     1       2.962  -0.062  -2.581  0.00  0.00    +0.149 HD
BRANCH   7  11
ATOM     11  C   UNL     1       3.550   0.745  -0.707  0.00  0.00    +0.030 C 
ATOM     12  C   UNL     1       4.105   2.164  -0.574  0.00  0.00    +0.031 C 
ATOM     13  C   UNL     1       4.303  -0.188   0.244  0.00  0.00    +0.031 C 
BRANCH  11  14
ATOM     14  C   UNL     1       2.062   0.743  -0.351  0.00  0.00    +0.031 C 
BRANCH  14  16
ATOM     15  C   UNL     1       1.064   0.250  -2.588  0.00  0.00    +0.010 C 
ATOM     16  C   UNL     1       1.258   1.325  -1.516  0.00  0.00    -0.036 C 
ATOM     17  C   UNL     1       2.014   2.512  -2.115  0.00  0.00    +0.010 C 
ATOM     18  C   UNL     1      -0.108   1.793  -1.010  0.00  0.00    +0.010 C 
ENDBRANCH  14  16
ENDBRANCH  11  14
ENDBRANCH   7  11
ENDBRANCH   1   8
BRANCH   1  19
ATOM     19  N   UNL     1       6.518   0.004  -4.479  0.00  0.00    -0.251 N 
ATOM     20  C   UNL     1       6.842   0.812  -5.508  0.00  0.00    +0.241 C 
ATOM     21  O   UNL     1       5.987   1.486  -6.043  0.00  0.00    -0.273 OA
BRANCH  19  22
ATOM     22  C   UNL     1       7.519  -0.687  -3.790  0.00  0.00    +0.039 A 
ATOM     23  C   UNL     1       7.837  -1.992  -4.147  0.00  0.00    +0.023 A 
ATOM     24  C   UNL     1       8.826  -2.672  -3.465  0.00  0.00    +0.003 A 
ATOM     25  C   UNL     1       9.501  -2.057  -2.426  0.00  0.00    +0.020 A 
ATOM     26  C   UNL     1       9.187  -0.758  -2.067  0.00  0.00    +0.043 A 
ATOM     27  C   UNL     1       8.202  -0.069  -2.751  0.00  0.00    +0.043 A 
ATOM     28 CL   UNL     1      10.036   0.011  -0.762  0.00  0.00    -0.083 Cl
ENDBRANCH  19  22
BRANCH  20  29
ATOM     29  C   UNL     1       8.268   0.880  -5.993  0.00  0.00    +0.160 C 
ATOM     30  C   UNL     1       9.046   1.965  -5.216  0.00  0.00    +0.041 C 
ATOM     31  C   UNL     1       8.883   3.193  -6.141  0.00  0.00    +0.098 C 
ATOM     32  C   UNL     1       8.644   2.596  -7.511  0.00  0.00    +0.214 C 
ATOM     33  O   UNL     1       8.743   3.200  -8.558  0.00  0.00    -0.276 OA
ATOM     34  N   UNL     1       8.307   1.298  -7.399  0.00  0.00    -0.304 N 
ATOM     35  H   UNL     1       8.114   0.714  -8.149  0.00  0.00    +0.149 HD
ENDBRANCH  20  29
ENDBRANCH   1  19
TORSDOF 8
