REMARK  Name = ZINC01793052
REMARK  13 active torsions:
REMARK  status: ('A' for Active; 'I' for Inactive)
REMARK    1  A    between atoms: C_1  and  C_2
REMARK    2  A    between atoms: C_2  and  C_3
REMARK    3  A    between atoms: C_11  and  C_12
REMARK    4  A    between atoms: C_15  and  O_20
REMARK    5  A    between atoms: C_16  and  O_18
REMARK    6  A    between atoms: O_18  and  C_19
REMARK    7  A    between atoms: O_20  and  C_21
REMARK    8  A    between atoms: C_21  and  C_22
REMARK    9  A    between atoms: C_22  and  O_23
REMARK   10  A    between atoms: O_23  and  C_24
REMARK   11  A    between atoms: C_26  and  C_32
REMARK   12  A    between atoms: C_28  and  C_30
REMARK   13  A    between atoms: C_30  and  C_31
REMARK                            x       y       z     vdW  Elec       q    Type
REMARK                         _______ _______ _______ _____ _____    ______ ____
ROOT
ATOM      1  C   UNL     1      -5.262  -6.729  -4.223  0.00  0.00    -0.021 A 
ATOM      2  C   UNL     1      -4.178  -6.902  -5.095  0.00  0.00    +0.012 A 
ATOM      3  C   UNL     1      -4.122  -8.007  -5.913  0.00  0.00    +0.050 A 
ATOM      4  C   UNL     1      -5.139  -8.954  -5.878  0.00  0.00    +0.162 A 
ATOM      5  C   UNL     1      -6.223  -8.789  -5.014  0.00  0.00    +0.162 A 
ATOM      6  C   UNL     1      -6.285  -7.688  -4.186  0.00  0.00    +0.057 A 
ENDROOT
BRANCH   1  15
ATOM      7  C   UNL     1      -1.404   0.392  -2.264  0.00  0.00    +0.007 C 
ATOM      8  C   UNL     1      -2.099  -0.548  -2.897  0.00  0.00    +0.092 A 
ATOM      9  N   UNL     1      -3.032  -1.450  -2.380  0.00  0.00    -0.283 N 
ATOM     10  H   UNL     1      -3.223  -1.474  -1.429  0.00  0.00    +0.188 HD
ATOM     11  N   UNL     1      -3.678  -2.305  -3.250  0.00  0.00    -0.212 N 
ATOM     12  C   UNL     1      -4.748  -3.156  -2.903  0.00  0.00    +0.160 A 
ATOM     13  N   UNL     1      -5.543  -2.934  -1.890  0.00  0.00    -0.281 NA
ATOM     14  C   UNL     1      -4.881  -4.333  -3.808  0.00  0.00    +0.085 A 
ATOM     15  C   UNL     1      -5.324  -5.554  -3.351  0.00  0.00    +0.025 C 
ATOM     16  C   UNL     1      -4.510  -4.117  -5.228  0.00  0.00    +0.283 A 
ATOM     17  O   UNL     1      -4.974  -4.819  -6.111  0.00  0.00    -0.265 OA
ATOM     18  N   UNL     1      -3.646  -3.121  -5.516  0.00  0.00    -0.182 NA
ATOM     19  C   UNL     1      -3.257  -2.312  -4.566  0.00  0.00    +0.199 A 
ATOM     20  S   UNL     1      -2.088  -0.980  -4.631  0.00  0.00    -0.031 S 
ATOM     21  H   UNL     1      -5.411  -2.151  -1.333  0.00  0.00    +0.188 HD
BRANCH   7  23
ATOM     22  C   UNL     1      -0.794   2.737  -2.793  0.00  0.00    +0.008 C 
ATOM     23  C   UNL     1      -0.446   1.266  -3.032  0.00  0.00    +0.026 C 
ENDBRANCH   7  23
ENDBRANCH   1  15
BRANCH   5  24
ATOM     24  O   UNL     1      -7.216  -9.718  -4.985  0.00  0.00    -0.491 OA
ATOM     25  C   UNL     1      -8.294  -9.487  -4.077  0.00  0.00    +0.277 C 
ENDBRANCH   5  24
BRANCH   4  26
ATOM     26  O   UNL     1      -5.079 -10.041  -6.688  0.00  0.00    -0.485 OA
BRANCH  26  27
ATOM     27  C   UNL     1      -3.943 -10.148  -7.548  0.00  0.00    +0.270 C 
BRANCH  27  28
ATOM     28  C   UNL     1      -4.049 -11.428  -8.378  0.00  0.00    +0.270 C 
BRANCH  28  29
ATOM     29  O   UNL     1      -5.177 -11.338  -9.251  0.00  0.00    -0.489 OA
BRANCH  29  30
ATOM     30  C   UNL     1      -5.416 -12.401 -10.063  0.00  0.00    +0.121 A 
ATOM     31  C   UNL     1      -4.585 -13.511 -10.017  0.00  0.00    +0.049 A 
ATOM     32  C   UNL     1      -4.830 -14.590 -10.843  0.00  0.00    -0.047 A 
ATOM     33  C   UNL     1      -5.902 -14.565 -11.716  0.00  0.00    +0.007 A 
ATOM     34  C   UNL     1      -6.731 -13.460 -11.765  0.00  0.00    -0.044 A 
ATOM     35  C   UNL     1      -6.494 -12.380 -10.936  0.00  0.00    +0.049 A 
ATOM     36  C   UNL     1      -3.928 -15.796 -10.794  0.00  0.00    +0.044 C 
BRANCH  34  37
ATOM     37  C   UNL     1      -7.898 -13.435 -12.718  0.00  0.00    +0.032 C 
ATOM     38  C   UNL     1      -9.134 -14.013 -12.025  0.00  0.00    +0.009 C 
ENDBRANCH  34  37
ENDBRANCH  29  30
ENDBRANCH  28  29
ENDBRANCH  27  28
ENDBRANCH  26  27
ENDBRANCH   4  26
TORSDOF 9
