REMARK  Name = ZINC39893734
REMARK  6 active torsions:
REMARK  status: ('A' for Active; 'I' for Inactive)
REMARK    1  A    between atoms: C_1  and  C_2
REMARK    2  A    between atoms: C_3  and  C_27
REMARK    3  A    between atoms: N_6  and  C_22
REMARK    4  A    between atoms: C_10  and  N_11
REMARK    5  A    between atoms: N_11  and  C_12
REMARK    6  A    between atoms: C_15  and  N_19
REMARK                            x       y       z     vdW  Elec       q    Type
REMARK                         _______ _______ _______ _____ _____    ______ ____
ROOT
ATOM      1  C   UNL     1      -0.153   1.483   0.004  0.00  0.00    +0.046 C 
ATOM      2  C   UNL     1       0.001  -0.016   0.002  0.00  0.00    -0.015 C 
ATOM      3  C   UNL     1       0.069  -0.719  -1.193  0.00  0.00    +0.118 C 
ATOM      4  C   UNL     1       0.220  -2.174  -1.168  0.00  0.00    +0.264 C 
ATOM      5  O   UNL     1       0.280  -2.791  -2.216  0.00  0.00    -0.269 OA
ATOM      6  N   UNL     1       0.292  -2.839  -0.002  0.00  0.00    -0.230 N 
ATOM      7  C   UNL     1       0.230  -2.194   1.177  0.00  0.00    +0.255 C 
ATOM      8  O   UNL     1       0.298  -2.824   2.216  0.00  0.00    -0.269 OA
ATOM      9  C   UNL     1       0.085  -0.733   1.216  0.00  0.00    +0.055 C 
ATOM     10  C   UNL     1       0.026  -0.063   2.435  0.00  0.00    +0.085 C 
ENDROOT
BRANCH   6  11
ATOM     11  C   UNL     1       0.443  -4.296  -0.015  0.00  0.00    +0.085 C 
ATOM     12  C   UNL     1       1.705  -4.690  -0.810  0.00  0.00    +0.023 C 
ATOM     13  C   UNL     1       1.298  -5.988  -1.551  0.00  0.00    +0.002 C 
ATOM     14  C   UNL     1      -0.173  -5.708  -1.947  0.00  0.00    +0.002 C 
ATOM     15  C   UNL     1      -0.751  -4.943  -0.738  0.00  0.00    +0.023 C 
ENDBRANCH   6  11
BRANCH  10  16
ATOM     16  N   UNL     1      -0.055  -0.761   3.583  0.00  0.00    -0.319 N 
ATOM     17  H   UNL     1      -0.042  -1.730   3.563  0.00  0.00    +0.152 HD
BRANCH  16  18
ATOM     18  C   UNL     1      -0.158  -0.088   4.803  0.00  0.00    +0.045 A 
ATOM     19  C   UNL     1      -0.182   1.300   4.833  0.00  0.00    +0.026 A 
ATOM     20  C   UNL     1      -0.284   1.962   6.041  0.00  0.00    +0.034 A 
ATOM     21  C   UNL     1      -0.362   1.244   7.221  0.00  0.00    +0.127 A 
ATOM     22  C   UNL     1      -0.338  -0.138   7.195  0.00  0.00    +0.049 A 
ATOM     23  C   UNL     1      -0.242  -0.807   5.990  0.00  0.00    +0.041 A 
ATOM     24 BR   UNL     1      -0.217  -2.698   5.955  0.00  0.00    -0.048 Br
BRANCH  21  25
ATOM     25  N   UNL     1      -0.470   1.957   8.513  0.00  0.00    +0.056 N 
ATOM     26  O   UNL     1      -0.491   3.166   8.537  0.00  0.00    -0.126 OA
ATOM     27  O   UNL     1      -0.538   1.331   9.545  0.00  0.00    -0.126 OA
ENDBRANCH  21  25
ENDBRANCH  16  18
ENDBRANCH  10  16
BRANCH   3  28
ATOM     28  C   UNL     1      -0.008  -0.024  -2.443  0.00  0.00    +0.105 C 
ATOM     29  N   UNL     1      -0.069   0.528  -3.434  0.00  0.00    -0.191 NA
ENDBRANCH   3  28
TORSDOF 5
