REMARK  Name = ZINC09318885
REMARK  3 active torsions:
REMARK  status: ('A' for Active; 'I' for Inactive)
REMARK    1  A    between atoms: C_1  and  C_2
REMARK    2  A    between atoms: N_24  and  C_27
REMARK    3  A    between atoms: C_31  and  N_33
REMARK                            x       y       z     vdW  Elec       q    Type
REMARK                         _______ _______ _______ _____ _____    ______ ____
ROOT
ATOM      1  C   UNL     1     -10.252   1.368   0.693  0.00  0.00    +0.044 C 
ATOM      2  C   UNL     1      -9.075   1.755  -0.165  0.00  0.00    -0.049 A 
ATOM      3  C   UNL     1      -7.938   0.966  -0.180  0.00  0.00    +0.008 A 
ATOM      4  C   UNL     1      -6.863   1.321  -0.964  0.00  0.00    -0.026 A 
ATOM      5  C   UNL     1      -6.904   2.469  -1.748  0.00  0.00    +0.054 A 
ATOM      6  C   UNL     1      -8.053   3.258  -1.729  0.00  0.00    +0.063 A 
ATOM      7  C   UNL     1      -9.129   2.899  -0.940  0.00  0.00    +0.025 A 
ATOM      8 CL   UNL     1      -8.133   4.696  -2.698  0.00  0.00    -0.082 Cl
ATOM      9  N   UNL     1      -5.705   2.619  -2.449  0.00  0.00    -0.285 N 
ATOM     10  C   UNL     1      -4.835   1.625  -2.185  0.00  0.00    +0.212 C 
ATOM     11  O   UNL     1      -3.722   1.496  -2.648  0.00  0.00    -0.277 OA
ATOM     12  C   UNL     1      -5.513   0.706  -1.206  0.00  0.00    +0.053 C 
ATOM     13  C   UNL     1      -4.712   0.584   0.095  0.00  0.00    +0.089 C 
ATOM     14  C   UNL     1      -3.922  -0.746  -0.052  0.00  0.00    +0.074 C 
ATOM     15  C   UNL     1      -4.319  -1.298  -1.433  0.00  0.00    -0.054 C 
ATOM     16  C   UNL     1      -6.651  -1.414  -0.986  0.00  0.00    -0.076 C 
ATOM     17  C   UNL     1      -6.065  -2.801  -0.671  0.00  0.00    -0.020 C 
ATOM     18  C   UNL     1      -4.656  -2.799  -1.303  0.00  0.00    -0.016 C 
ATOM     19  C   UNL     1      -2.480  -0.294  -0.093  0.00  0.00    +0.228 C 
ATOM     20  O   UNL     1      -1.520  -1.024  -0.205  0.00  0.00    -0.275 OA
ATOM     21  N   UNL     1      -2.429   1.039   0.019  0.00  0.00    -0.210 N 
ATOM     22  C   UNL     1      -3.623   1.633   0.126  0.00  0.00    +0.229 C 
ATOM     23  O   UNL     1      -3.804   2.827   0.231  0.00  0.00    -0.275 OA
ATOM     24  H   UNL     1      -5.521   3.353  -3.056  0.00  0.00    +0.155 HD
ATOM     25  N   UNL     1      -5.596  -0.663  -1.707  0.00  0.00    +0.395 N 
ATOM     26  H   UNL     1      -5.792  -0.661  -2.715  0.00  0.00    -0.079 HD
ENDROOT
BRANCH  21  27
ATOM     27  C   UNL     1      -1.224   1.754   0.017  0.00  0.00    +0.046 A 
ATOM     28  C   UNL     1      -0.446   1.804  -1.132  0.00  0.00    +0.024 A 
ATOM     29  C   UNL     1       0.745   2.505  -1.128  0.00  0.00    +0.004 A 
ATOM     30  C   UNL     1       1.159   3.161   0.017  0.00  0.00    +0.033 A 
ATOM     31  C   UNL     1       0.384   3.117   1.161  0.00  0.00    +0.128 A 
ATOM     32  C   UNL     1      -0.808   2.418   1.163  0.00  0.00    +0.056 A 
BRANCH  31  33
ATOM     33  N   UNL     1       0.831   3.820   2.384  0.00  0.00    +0.056 N 
ATOM     34  O   UNL     1       0.149   3.782   3.392  0.00  0.00    -0.126 OA
ATOM     35  O   UNL     1       1.882   4.436   2.383  0.00  0.00    -0.126 OA
ENDBRANCH  31  33
ENDBRANCH  21  27
TORSDOF 2
