REMARK  Name = ZINC63637935
REMARK  4 active torsions:
REMARK  status: ('A' for Active; 'I' for Inactive)
REMARK    1  A    between atoms: C_4  and  N_16
REMARK    2  A    between atoms: C_5  and  C_7
REMARK    3  A    between atoms: C_17  and  C_19
REMARK    4  A    between atoms: C_22  and  N_25
REMARK                            x       y       z     vdW  Elec       q    Type
REMARK                         _______ _______ _______ _____ _____    ______ ____
ROOT
ATOM      1  C   UNL     1      -0.077   1.372  -0.039  0.00  0.00    +0.001 A 
ATOM      2  C   UNL     1       1.101   2.095  -0.057  0.00  0.00    +0.002 A 
ATOM      3  C   UNL     1       2.316   1.439  -0.056  0.00  0.00    +0.024 A 
ATOM      4  C   UNL     1       2.354   0.051  -0.038  0.00  0.00    +0.041 A 
ATOM      5  C   UNL     1       1.169  -0.673  -0.020  0.00  0.00    +0.016 A 
ATOM      6  C   UNL     1      -0.043  -0.010  -0.021  0.00  0.00    +0.009 A 
ENDROOT
BRANCH   5   7
ATOM      7  C   UNL     1       1.205  -2.179   0.000  0.00  0.00    +0.208 C 
ATOM      8  N   UNL     1       2.230  -2.646   0.942  0.00  0.00    -0.360 N 
ATOM      9  C   UNL     1       1.628  -3.352   1.855  0.00  0.00    +0.060 A 
ATOM     10  C   UNL     1       2.111  -4.070   3.043  0.00  0.00    +0.027 A 
ATOM     11  C   UNL     1       1.233  -4.731   3.824  0.00  0.00    +0.002 A 
ATOM     12  C   UNL     1      -0.146  -4.768   3.551  0.00  0.00    +0.002 A 
ATOM     13  C   UNL     1      -0.693  -4.144   2.488  0.00  0.00    +0.027 A 
ATOM     14  C   UNL     1       0.168  -3.391   1.566  0.00  0.00    +0.060 A 
ATOM     15  N   UNL     1      -0.076  -2.708   0.486  0.00  0.00    -0.360 N 
ATOM     16  H   UNL     1       3.181  -2.462   0.893  0.00  0.00    +0.162 HD
ATOM     17  H   UNL     1      -0.945  -2.572   0.077  0.00  0.00    +0.162 HD
ENDBRANCH   5   7
BRANCH   4  18
ATOM     18  N   UNL     1       3.583  -0.617  -0.038  0.00  0.00    -0.281 N 
ATOM     19  C   UNL     1       4.683  -0.004   0.443  0.00  0.00    +0.248 C 
ATOM     20  O   UNL     1       4.590   1.089   0.967  0.00  0.00    -0.270 OA
ATOM     21  H   UNL     1       3.643  -1.521  -0.383  0.00  0.00    +0.155 HD
BRANCH  19  22
ATOM     22  C   UNL     1       6.002  -0.660   0.332  0.00  0.00    +0.037 A 
ATOM     23  C   UNL     1       6.114  -1.912  -0.275  0.00  0.00    +0.015 A 
ATOM     24  C   UNL     1       7.349  -2.519  -0.376  0.00  0.00    +0.033 A 
ATOM     25  C   UNL     1       8.475  -1.890   0.123  0.00  0.00    +0.126 A 
ATOM     26  C   UNL     1       8.372  -0.648   0.726  0.00  0.00    +0.033 A 
ATOM     27  C   UNL     1       7.144  -0.028   0.828  0.00  0.00    +0.015 A 
BRANCH  25  28
ATOM     28  N   UNL     1       9.797  -2.547   0.013  0.00  0.00    +0.056 N 
ATOM     29  O   UNL     1       9.890  -3.632  -0.513  0.00  0.00    -0.126 OA
ATOM     30  O   UNL     1      10.783  -1.999   0.448  0.00  0.00    -0.126 OA
ENDBRANCH  25  28
ENDBRANCH  19  22
ENDBRANCH   4  18
TORSDOF 4
