REMARK  Name = ZINC33530156
REMARK  10 active torsions:
REMARK  status: ('A' for Active; 'I' for Inactive)
REMARK    1  A    between atoms: C_1  and  C_2
REMARK    2  A    between atoms: C_7  and  N_8
REMARK    3  A    between atoms: C_13  and  C_30
REMARK    4  A    between atoms: C_16  and  C_21
REMARK    5  A    between atoms: C_16  and  C_27
REMARK    6  A    between atoms: C_33  and  O_39
REMARK    7  A    between atoms: C_34  and  C_38
REMARK    8  A    between atoms: C_35  and  O_36
REMARK    9  A    between atoms: O_36  and  C_37
REMARK   10  A    between atoms: O_39  and  C_40
REMARK                            x       y       z     vdW  Elec       q    Type
REMARK                         _______ _______ _______ _____ _____    ______ ____
ROOT
ATOM      1  N   UNL     1       0.172   0.245   2.366  0.00  0.00    -0.210 N 
ATOM      2  C   UNL     1      -1.008   0.504   3.018  0.00  0.00    +0.229 C 
ATOM      3  O   UNL     1      -2.113   0.092   2.739  0.00  0.00    -0.275 OA
ATOM      4  C   UNL     1      -0.642   1.372   4.110  0.00  0.00    +0.078 C 
ATOM      5  C   UNL     1      -1.142   1.825   5.420  0.00  0.00    -0.023 C 
ATOM      6  N   UNL     1       0.048   2.557   5.975  0.00  0.00    +0.398 N 
ATOM      7  C   UNL     1       1.267   2.033   5.290  0.00  0.00    +0.074 C 
ATOM      8  C   UNL     1       0.781   0.808   4.502  0.00  0.00    +0.090 C 
ATOM      9  C   UNL     1       1.269   0.615   3.093  0.00  0.00    +0.229 C 
ATOM     10  O   UNL     1       2.401   0.760   2.686  0.00  0.00    -0.275 OA
ATOM     11  H   UNL     1      -0.046   3.546   5.796  0.00  0.00    -0.083 HD
ATOM     12  H   UNL     1       0.116   2.394   6.968  0.00  0.00    -0.083 HD
ENDROOT
BRANCH   1  19
ATOM     13  C   UNL     1       0.172   1.957   0.093  0.00  0.00    +0.045 C 
ATOM     14  C   UNL     1       0.247   0.458  -0.040  0.00  0.00    -0.029 A 
ATOM     15  C   UNL     1       0.324  -0.122  -1.292  0.00  0.00    +0.005 A 
ATOM     16  C   UNL     1       0.394  -1.497  -1.415  0.00  0.00    +0.000 A 
ATOM     17  C   UNL     1       0.386  -2.296  -0.286  0.00  0.00    +0.002 A 
ATOM     18  C   UNL     1       0.309  -1.722   0.968  0.00  0.00    +0.024 A 
ATOM     19  C   UNL     1       0.245  -0.341   1.095  0.00  0.00    +0.047 A 
ENDBRANCH   1  19
BRANCH   5  20
ATOM     20  C   UNL     1      -2.318   2.754   5.255  0.00  0.00    -0.018 A 
ATOM     21  C   UNL     1      -2.118   4.121   5.224  0.00  0.00    +0.009 A 
ATOM     22  C   UNL     1      -3.194   4.975   5.074  0.00  0.00    +0.046 A 
ATOM     23  C   UNL     1      -4.477   4.462   4.952  0.00  0.00    +0.126 A 
ATOM     24  C   UNL     1      -4.680   3.091   4.982  0.00  0.00    +0.033 A 
ATOM     25  C   UNL     1      -3.599   2.235   5.128  0.00  0.00    +0.128 A 
ATOM     26  C   UNL     1      -6.073   2.530   4.851  0.00  0.00    +0.051 C 
BRANCH  25  27
ATOM     27  O   UNL     1      -3.793   0.890   5.152  0.00  0.00    -0.495 OA
ATOM     28  C   UNL     1      -4.029   0.292   6.428  0.00  0.00    +0.277 C 
ENDBRANCH  25  27
BRANCH  23  29
ATOM     29  O   UNL     1      -5.535   5.302   4.804  0.00  0.00    -0.495 OA
ATOM     30  C   UNL     1      -5.252   6.703   4.782  0.00  0.00    +0.277 C 
ENDBRANCH  23  29
ENDBRANCH   5  20
BRANCH   7  31
ATOM     31  C   UNL     1       1.841   3.081   4.372  0.00  0.00    -0.047 A 
ATOM     32  C   UNL     1       3.184   3.051   4.043  0.00  0.00    +0.003 A 
ATOM     33  C   UNL     1       3.710   4.012   3.201  0.00  0.00    +0.000 A 
ATOM     34  C   UNL     1       2.895   5.003   2.688  0.00  0.00    +0.000 A 
ATOM     35  C   UNL     1       1.552   5.032   3.016  0.00  0.00    +0.000 A 
ATOM     36  C   UNL     1       1.025   4.069   3.855  0.00  0.00    +0.003 A 
ENDBRANCH   7  31
BRANCH   7  37
ATOM     37  C   UNL     1       2.295   1.609   6.308  0.00  0.00    +0.350 C 
ATOM     38  O   UNL     1       2.068   1.748   7.498  0.00  0.00    -0.248 OA
ATOM     39  O   UNL     1       3.353   1.128   5.941  0.00  0.00    -0.248 OA
ENDBRANCH   7  37
TORSDOF 6
