REMARK  Name = ZINC42224838
REMARK  5 active torsions:
REMARK  status: ('A' for Active; 'I' for Inactive)
REMARK    1  A    between atoms: N_7  and  C_13
REMARK    2  A    between atoms: C_13  and  C_14
REMARK    3  A    between atoms: C_14  and  C_15
REMARK    4  A    between atoms: C_15  and  C_16
REMARK    5  A    between atoms: C_16  and  C_17
REMARK                            x       y       z     vdW  Elec       q    Type
REMARK                         _______ _______ _______ _____ _____    ______ ____
ROOT
ATOM      1  C   UNL     1      -0.019   1.527   0.010  0.00  0.00    +0.000 C 
ATOM      2  C   UNL     1       1.414   2.062  -0.000  0.00  0.00    +0.000 C 
ATOM      3  C   UNL     1       2.166   1.549   1.231  0.00  0.00    +0.002 C 
ATOM      4  C   UNL     1       2.187   0.021   1.207  0.00  0.00    -0.025 C 
ATOM      5  C   UNL     1       2.941  -0.516   2.423  0.00  0.00    -0.075 C 
ATOM      6  N   UNL     1       2.957  -1.984   2.379  0.00  0.00    +0.380 N 
ATOM      7  C   UNL     1       1.587  -2.505   2.463  0.00  0.00    -0.079 C 
ATOM      8  C   UNL     1       0.777  -2.033   1.252  0.00  0.00    -0.015 C 
ATOM      9  C   UNL     1       0.748  -0.504   1.240  0.00  0.00    -0.011 C 
ATOM     10  C   UNL     1       0.002  -0.004   0.002  0.00  0.00    +0.004 C 
ATOM     11  H   UNL     1       3.378  -2.288   1.514  0.00  0.00    -0.082 HD
ENDROOT
BRANCH   6  12
ATOM     12  C   UNL     1       3.743  -2.498   3.508  0.00  0.00    -0.079 C 
BRANCH  12  13
ATOM     13  C   UNL     1       3.865  -4.019   3.394  0.00  0.00    -0.018 C 
BRANCH  13  14
ATOM     14  C   UNL     1       4.685  -4.553   4.570  0.00  0.00    +0.013 C 
BRANCH  14  15
ATOM     15  C   UNL     1       4.807  -6.074   4.457  0.00  0.00    +0.118 C 
BRANCH  15  16
ATOM     16  C   UNL     1       5.596  -6.589   5.588  0.00  0.00    +0.063 C 
ATOM     17  N   UNL     1       6.204  -6.986   6.462  0.00  0.00    -0.197 NA
ENDBRANCH  15  16
ENDBRANCH  14  15
ENDBRANCH  13  14
ENDBRANCH  12  13
ENDBRANCH   6  12
TORSDOF 5
