REMARK  Name = ZINC38671161
REMARK  11 active torsions:
REMARK  status: ('A' for Active; 'I' for Inactive)
REMARK    1  A    between atoms: C_1  and  C_2
REMARK    2  A    between atoms: C_2  and  C_3
REMARK    3  A    between atoms: C_2  and  C_4
REMARK    4  A    between atoms: C_2  and  C_5
REMARK    5  A    between atoms: C_8  and  S_11
REMARK    6  A    between atoms: S_11  and  N_14
REMARK    7  A    between atoms: N_14  and  C_15
REMARK    8  A    between atoms: C_15  and  C_16
REMARK    9  A    between atoms: C_16  and  C_18
REMARK   10  A    between atoms: C_16  and  N_29
REMARK   11  A    between atoms: N_27  and  C_28
REMARK                            x       y       z     vdW  Elec       q    Type
REMARK                         _______ _______ _______ _____ _____    ______ ____
ROOT
ATOM      1  C   UNL     1       2.932   1.145  -7.304  0.00  0.00    -0.022 C 
ENDROOT
BRANCH   1   2
ATOM      2  C   UNL     1       3.714   2.433  -7.290  0.00  0.00    -0.059 A 
ATOM      3  C   UNL     1       5.089   2.407  -7.432  0.00  0.00    +0.004 A 
ATOM      4  C   UNL     1       5.806   3.586  -7.418  0.00  0.00    +0.023 A 
ATOM      5  C   UNL     1       5.145   4.800  -7.260  0.00  0.00    +0.033 A 
ATOM      6  C   UNL     1       3.766   4.826  -7.120  0.00  0.00    -0.026 A 
ATOM      7  C   UNL     1       3.055   3.638  -7.139  0.00  0.00    +0.007 A 
ATOM      8  C   UNL     1       3.016   6.122  -6.958  0.00  0.00    +0.038 C 
ATOM      9  C   UNL     1       3.954   7.225  -6.469  0.00  0.00    +0.024 C 
ATOM     10  C   UNL     1       5.188   7.267  -7.379  0.00  0.00    +0.105 C 
ATOM     11  N   UNL     1       5.891   5.984  -7.243  0.00  0.00    -0.333 N 
ATOM     12  C   UNL     1       7.347   5.945  -7.091  0.00  0.00    +0.129 C 
ENDBRANCH   1   2
BRANCH   1  13
ATOM     13  N   UNL     1       3.491   0.244  -8.320  0.00  0.00    +0.385 N 
ATOM     14  C   UNL     1       3.461   0.906  -9.630  0.00  0.00    -0.078 C 
ATOM     15  C   UNL     1       4.117   0.004 -10.677  0.00  0.00    -0.019 C 
ATOM     16  C   UNL     1       3.350  -1.320 -10.755  0.00  0.00    -0.004 C 
ATOM     17  C   UNL     1       3.325  -1.966  -9.366  0.00  0.00    -0.019 C 
ATOM     18  C   UNL     1       2.698  -0.990  -8.367  0.00  0.00    -0.078 C 
ATOM     19  H   UNL     1       4.446   0.020  -8.080  0.00  0.00    -0.081 HD
ENDBRANCH   1  13
BRANCH   1  20
ATOM     20  C   UNL     1       3.018   0.480  -5.929  0.00  0.00    +0.095 C 
BRANCH  20  21
ATOM     21  N   UNL     1       2.377   1.339  -4.930  0.00  0.00    -0.191 NA
ATOM     22  H   UNL     1       2.174   2.263  -5.144  0.00  0.00    +0.148 HD
BRANCH  21  23
ATOM     23  S   UNL     1       2.000   0.732  -3.436  0.00  0.00    +0.058 S 
ATOM     24  O   UNL     1       1.319  -0.495  -3.657  0.00  0.00    -0.153 OA
ATOM     25  O   UNL     1       1.423   1.801  -2.698  0.00  0.00    -0.153 OA
BRANCH  23  29
ATOM     26  C   UNL     1       5.900  -0.301  -1.383  0.00  0.00    -0.042 A 
ATOM     27  C   UNL     1       5.354   0.961  -1.237  0.00  0.00    +0.006 A 
ATOM     28  C   UNL     1       4.164   1.277  -1.864  0.00  0.00    +0.029 A 
ATOM     29  C   UNL     1       3.518   0.331  -2.638  0.00  0.00    +0.105 A 
ATOM     30  C   UNL     1       4.064  -0.931  -2.785  0.00  0.00    +0.029 A 
ATOM     31  C   UNL     1       5.257  -1.245  -2.162  0.00  0.00    +0.006 A 
BRANCH  26  33
ATOM     32  C   UNL     1       8.241  -1.030  -1.751  0.00  0.00    +0.015 C 
ATOM     33  C   UNL     1       7.198  -0.645  -0.700  0.00  0.00    -0.013 C 
ATOM     34  C   UNL     1       6.976  -1.821   0.254  0.00  0.00    +0.015 C 
ATOM     35  C   UNL     1       7.694   0.567   0.091  0.00  0.00    +0.015 C 
ENDBRANCH  26  33
ENDBRANCH  23  29
ENDBRANCH  21  23
ENDBRANCH  20  21
ENDBRANCH   1  20
TORSDOF 7
