REMARK  Name = ZINC12311204
REMARK  3 active torsions:
REMARK  status: ('A' for Active; 'I' for Inactive)
REMARK    1  A    between atoms: C_3  and  N_31
REMARK    2  A    between atoms: C_4  and  N_28
REMARK    3  A    between atoms: C_6  and  C_7
REMARK                            x       y       z     vdW  Elec       q    Type
REMARK                         _______ _______ _______ _____ _____    ______ ____
ROOT
ATOM      1  C   UNL     1       6.482  -0.140   0.141  0.00  0.00    +0.249 C 
ATOM      2  O   UNL     1       6.772  -0.020  -1.037  0.00  0.00    -0.270 OA
ATOM      3  N   UNL     1       5.365   0.419   0.614  0.00  0.00    -0.267 N 
ATOM      4  C   UNL     1       5.137   1.719   0.421  0.00  0.00    +0.117 A 
ATOM      5  C   UNL     1       3.804   2.219   0.334  0.00  0.00    +0.050 A 
ATOM      6  C   UNL     1       2.537   1.499   0.453  0.00  0.00    -0.025 A 
ATOM      7  C   UNL     1       1.408   2.231   0.355  0.00  0.00    -0.004 A 
ATOM      8  S   UNL     1       1.960   3.894   0.080  0.00  0.00    -0.073 S 
ATOM      9  C   UNL     1       3.712   3.603   0.102  0.00  0.00    +0.114 A 
ATOM     10  N   UNL     1       4.782   4.359  -0.042  0.00  0.00    -0.226 NA
ATOM     11  C   UNL     1       6.034   3.884   0.034  0.00  0.00    +0.112 A 
ATOM     12  N   UNL     1       6.183   2.605   0.302  0.00  0.00    -0.317 N 
ATOM     13  C   UNL     1       7.522   2.047   0.516  0.00  0.00    +0.125 C 
ATOM     14  C   UNL     1       8.630   3.075   0.419  0.00  0.00    +0.022 C 
ATOM     15  C   UNL     1       8.436   4.055   1.568  0.00  0.00    +0.002 C 
ATOM     16  C   UNL     1       7.820   5.386   1.024  0.00  0.00    +0.008 C 
ATOM     17  C   UNL     1       7.037   4.955  -0.224  0.00  0.00    +0.074 C 
ATOM     18  C   UNL     1       0.001   1.742   0.453  0.00  0.00    +0.043 C 
ATOM     19  C   UNL     1      -0.041   0.223   0.396  0.00  0.00    +0.005 C 
ATOM     20  C   UNL     1       1.098  -0.426   1.148  0.00  0.00    +0.005 C 
ATOM     21  C   UNL     1       2.474  -0.004   0.681  0.00  0.00    +0.037 C 
ATOM     22  H   UNL     1       4.633  -0.192   1.163  0.00  0.00    +0.157 HD
ENDROOT
BRANCH   1  28
ATOM     23  C   UNL     1       7.034  -1.045   2.395  0.00  0.00    +0.015 A 
ATOM     24  C   UNL     1       7.859  -1.759   3.236  0.00  0.00    +0.026 A 
ATOM     25  C   UNL     1       9.022  -2.342   2.741  0.00  0.00    +0.060 A 
ATOM     26  C   UNL     1       9.355  -2.205   1.397  0.00  0.00    +0.148 A 
ATOM     27  C   UNL     1       8.531  -1.496   0.551  0.00  0.00    +0.047 A 
ATOM     28  C   UNL     1       7.366  -0.906   1.046  0.00  0.00    +0.039 A 
BRANCH  25  29
ATOM     29  N   UNL     1       9.854  -3.062   3.593  0.00  0.00    -0.328 N 
ATOM     30  C   UNL     1       9.172  -4.255   4.110  0.00  0.00    +0.105 C 
ATOM     31  C   UNL     1      10.158  -5.097   4.922  0.00  0.00    +0.019 C 
ATOM     32  C   UNL     1      10.706  -4.258   6.080  0.00  0.00    +0.003 C 
ATOM     33  C   UNL     1      11.368  -2.997   5.517  0.00  0.00    +0.019 C 
ATOM     34  C   UNL     1      10.347  -2.216   4.688  0.00  0.00    +0.105 C 
ENDBRANCH  25  29
BRANCH  26  35
ATOM     35  N   UNL     1      10.593  -2.825   0.875  0.00  0.00    +0.058 N 
ATOM     36  O   UNL     1      10.885  -2.706  -0.302  0.00  0.00    -0.126 OA
ATOM     37  O   UNL     1      11.320  -3.456   1.621  0.00  0.00    -0.126 OA
ENDBRANCH  26  35
ENDBRANCH   1  28
TORSDOF 3
