REMARK  Name = ZINC39676497
REMARK  5 active torsions:
REMARK  status: ('A' for Active; 'I' for Inactive)
REMARK    1  A    between atoms: C_6  and  C_11
REMARK    2  A    between atoms: C_11  and  C_12
REMARK    3  A    between atoms: C_12  and  N_13
REMARK    4  A    between atoms: C_14  and  C_16
REMARK    5  A    between atoms: C_27  and  C_29
REMARK                            x       y       z     vdW  Elec       q    Type
REMARK                         _______ _______ _______ _____ _____    ______ ____
ROOT
ATOM      1  C   UNL     1      -8.085   0.283  -2.641  0.00  0.00    +0.100 C 
ATOM      2  C   UNL     1      -8.907   1.305  -1.825  0.00  0.00    +0.121 C 
ATOM      3  N   UNL     1      -9.046   2.476  -2.722  0.00  0.00    -0.300 N 
ATOM      4  C   UNL     1      -9.266   1.887  -4.065  0.00  0.00    +0.115 C 
ATOM      5  C   UNL     1      -8.326   0.666  -4.111  0.00  0.00    -0.004 C 
ATOM      6  C   UNL     1      -8.993  -0.487  -4.855  0.00  0.00    -0.010 C 
ATOM      7  C   UNL     1      -9.169  -0.104  -6.327  0.00  0.00    -0.082 C 
ATOM      8  N   UNL     1      -7.858   0.192  -6.918  0.00  0.00    +0.379 N 
ATOM      9  C   UNL     1      -7.265   1.361  -6.258  0.00  0.00    -0.082 C 
ATOM     10  C   UNL     1      -7.008   1.041  -4.782  0.00  0.00    -0.010 C 
ATOM     11  C   UNL     1      -8.988   3.781  -2.393  0.00  0.00    +0.219 C 
ATOM     12  O   UNL     1      -8.723   4.108  -1.255  0.00  0.00    -0.275 OA
ATOM     13  H   UNL     1      -7.250  -0.604  -6.801  0.00  0.00    -0.086 HD
ATOM     14  H   UNL     1      -7.970   0.385  -7.902  0.00  0.00    -0.086 HD
ENDROOT
BRANCH  11  15
ATOM     15  C   UNL     1      -9.250   4.835  -3.437  0.00  0.00    +0.079 C 
ATOM     16  C   UNL     1      -8.543   6.138  -3.044  0.00  0.00    +0.017 C 
ATOM     17  C   UNL     1      -8.677   7.130  -4.202  0.00  0.00    +0.027 C 
ATOM     18  C   UNL     1     -10.106   7.210  -4.651  0.00  0.00    -0.031 C 
ATOM     19  C   UNL     1     -11.009   6.329  -4.361  0.00  0.00    -0.030 C 
ATOM     20  C   UNL     1     -10.754   5.104  -3.530  0.00  0.00    +0.039 C 
ENDBRANCH  11  15
BRANCH   1  22
ATOM     21  N   UNL     1      -5.819  -0.682  -2.404  0.00  0.00    -0.315 N 
ATOM     22  C   UNL     1      -6.620   0.397  -2.303  0.00  0.00    +0.218 C 
ATOM     23  O   UNL     1      -6.163   1.460  -1.939  0.00  0.00    -0.275 OA
ATOM     24  H   UNL     1      -6.185  -1.532  -2.694  0.00  0.00    +0.149 HD
BRANCH  21  25
ATOM     25  C   UNL     1      -4.396  -0.570  -2.074  0.00  0.00    +0.109 C 
BRANCH  25  26
ATOM     26  C   UNL     1      -3.719  -1.928  -2.272  0.00  0.00    +0.056 C 
BRANCH  26  32
ATOM     27  C   UNL     1       0.041  -2.035   1.579  0.00  0.00    +0.022 A 
ATOM     28  C   UNL     1       0.569  -1.808   0.327  0.00  0.00    +0.027 A 
ATOM     29  C   UNL     1      -0.274  -1.752  -0.779  0.00  0.00    +0.047 A 
ATOM     30  N   UNL     1      -0.060  -1.548  -2.124  0.00  0.00    -0.360 N 
ATOM     31  C   UNL     1      -1.252  -1.588  -2.795  0.00  0.00    +0.087 A 
ATOM     32  C   UNL     1      -2.255  -1.814  -1.933  0.00  0.00    -0.021 A 
ATOM     33  C   UNL     1      -1.658  -1.928  -0.600  0.00  0.00    +0.004 A 
ATOM     34  C   UNL     1      -2.173  -2.156   0.677  0.00  0.00    +0.030 A 
ATOM     35  C   UNL     1      -1.326  -2.213   1.750  0.00  0.00    +0.042 A 
ATOM     36 CL   UNL     1      -1.966  -2.497   3.338  0.00  0.00    -0.084 Cl
ATOM     37  H   UNL     1       0.806  -1.397  -2.534  0.00  0.00    +0.165 HD
ENDBRANCH  26  32
ENDBRANCH  25  26
ENDBRANCH  21  25
ENDBRANCH   1  22
TORSDOF 5
