REMARK  Name = ZINC44714542
REMARK  8 active torsions:
REMARK  status: ('A' for Active; 'I' for Inactive)
REMARK    1  A    between atoms: C_1  and  C_2
REMARK    2  A    between atoms: C_3  and  C_14
REMARK    3  A    between atoms: C_6  and  C_12
REMARK    4  A    between atoms: C_14  and  C_15
REMARK    5  A    between atoms: C_15  and  N_16
REMARK    6  A    between atoms: C_17  and  C_19
REMARK    7  A    between atoms: C_30  and  C_32
REMARK    8  A    between atoms: C_38  and  C_40
REMARK                            x       y       z     vdW  Elec       q    Type
REMARK                         _______ _______ _______ _____ _____    ______ ____
ROOT
ATOM      1  C   UNL     1       2.623   1.148  -6.549  0.00  0.00    +0.100 C 
ATOM      2  C   UNL     1       1.827   2.469  -6.644  0.00  0.00    +0.121 C 
ATOM      3  N   UNL     1       2.852   3.532  -6.532  0.00  0.00    -0.300 N 
ATOM      4  C   UNL     1       4.002   3.020  -7.315  0.00  0.00    +0.115 C 
ATOM      5  C   UNL     1       4.049   1.513  -6.994  0.00  0.00    -0.004 C 
ATOM      6  C   UNL     1       4.434   0.719  -8.238  0.00  0.00    -0.010 C 
ATOM      7  C   UNL     1       5.877   1.056  -8.626  0.00  0.00    -0.082 C 
ATOM      8  N   UNL     1       6.775   0.726  -7.513  0.00  0.00    +0.379 N 
ATOM      9  C   UNL     1       6.457   1.561  -6.349  0.00  0.00    -0.082 C 
ATOM     10  C   UNL     1       5.039   1.245  -5.864  0.00  0.00    -0.010 C 
ATOM     11  C   UNL     1       2.760   4.702  -5.869  0.00  0.00    +0.219 C 
ATOM     12  O   UNL     1       3.694   5.476  -5.871  0.00  0.00    -0.275 OA
ATOM     13  H   UNL     1       6.663  -0.247  -7.269  0.00  0.00    -0.086 HD
ATOM     14  H   UNL     1       7.730   0.891  -7.793  0.00  0.00    -0.086 HD
ENDROOT
BRANCH  11  15
ATOM     15  C   UNL     1       1.496   5.048  -5.124  0.00  0.00    +0.078 C 
ATOM     16  C   UNL     1       0.321   5.083  -6.104  0.00  0.00    +0.032 C 
ATOM     17  C   UNL     1      -0.967   5.401  -5.338  0.00  0.00    +0.108 C 
ATOM     18  N   UNL     1      -0.773   6.647  -4.583  0.00  0.00    -0.302 N 
ATOM     19  C   UNL     1       0.380   6.753  -3.679  0.00  0.00    +0.108 C 
ATOM     20  C   UNL     1       1.653   6.420  -4.464  0.00  0.00    +0.032 C 
ATOM     21  C   UNL     1      -1.637   7.673  -4.718  0.00  0.00    +0.212 C 
ATOM     22  O   UNL     1      -1.411   8.731  -4.170  0.00  0.00    -0.276 OA
ATOM     23  C   UNL     1      -2.884   7.505  -5.548  0.00  0.00    +0.109 C 
ENDBRANCH  11  15
BRANCH   1  25
ATOM     24  N   UNL     1       2.690  -0.684  -4.889  0.00  0.00    -0.315 N 
ATOM     25  C   UNL     1       2.629   0.640  -5.130  0.00  0.00    +0.218 C 
ATOM     26  O   UNL     1       2.579   1.423  -4.206  0.00  0.00    -0.275 OA
ATOM     27  H   UNL     1       2.730  -1.311  -5.628  0.00  0.00    +0.149 HD
BRANCH  24  28
ATOM     28  C   UNL     1       2.696  -1.178  -3.509  0.00  0.00    +0.109 C 
BRANCH  28  29
ATOM     29  C   UNL     1       2.771  -2.706  -3.515  0.00  0.00    +0.056 C 
BRANCH  29  32
ATOM     30  C   UNL     1       0.274  -3.444  -1.825  0.00  0.00    +0.063 C 
ATOM     31  C   UNL     1       1.703  -3.535  -1.358  0.00  0.00    +0.017 A 
ATOM     32  C   UNL     1       2.777  -3.214  -2.096  0.00  0.00    -0.018 A 
ATOM     33  C   UNL     1       3.957  -3.451  -1.259  0.00  0.00    +0.004 A 
ATOM     34  C   UNL     1       5.328  -3.306  -1.458  0.00  0.00    +0.029 A 
ATOM     35  C   UNL     1       6.205  -3.629  -0.427  0.00  0.00    +0.052 A 
ATOM     36  C   UNL     1       5.708  -4.095   0.798  0.00  0.00    +0.021 A 
ATOM     37  C   UNL     1       4.366  -4.237   0.995  0.00  0.00    +0.027 A 
ATOM     38  C   UNL     1       3.470  -3.920  -0.024  0.00  0.00    +0.047 A 
ATOM     39  N   UNL     1       2.098  -3.954  -0.116  0.00  0.00    -0.358 N 
ATOM     40  H   UNL     1       1.499  -4.235   0.594  0.00  0.00    +0.166 HD
BRANCH  35  41
ATOM     41  C   UNL     1       7.617  -3.486  -0.618  0.00  0.00    +0.099 C 
ATOM     42  N   UNL     1       8.737  -3.373  -0.769  0.00  0.00    -0.191 NA
ENDBRANCH  35  41
ENDBRANCH  29  32
ENDBRANCH  28  29
ENDBRANCH  24  28
ENDBRANCH   1  25
TORSDOF 6
