REMARK  Name = ZINC21472658
REMARK  13 active torsions:
REMARK  status: ('A' for Active; 'I' for Inactive)
REMARK    1  A    between atoms: C_1  and  C_2
REMARK    2  A    between atoms: C_2  and  C_3
REMARK    3  A    between atoms: C_3  and  N_4
REMARK    4  A    between atoms: N_4  and  C_5
REMARK    5  A    between atoms: N_4  and  C_16
REMARK    6  A    between atoms: C_5  and  C_6
REMARK    7  A    between atoms: C_9  and  C_11
REMARK    8  A    between atoms: C_16  and  C_17
REMARK    9  A    between atoms: N_19  and  C_20
REMARK   10  A    between atoms: C_21  and  C_31
REMARK   11  A    between atoms: C_26  and  C_30
REMARK   12  A    between atoms: C_31  and  O_33
REMARK   13  A    between atoms: O_33  and  C_34
REMARK                            x       y       z     vdW  Elec       q    Type
REMARK                         _______ _______ _______ _____ _____    ______ ____
ROOT
ATOM      1  C   UNL     1      -0.680   1.554   3.790  0.00  0.00    +0.201 C 
ATOM      2  O   UNL     1      -1.642   2.285   3.690  0.00  0.00    -0.278 OA
ATOM      3  N   UNL     1      -0.252   1.167   5.008  0.00  0.00    -0.281 N 
ATOM      4  H   UNL     1       0.621   0.504   5.100  0.00  0.00    +0.155 HD
ENDROOT
BRANCH   3   5
ATOM      5  C   UNL     1      -0.911   1.605   6.146  0.00  0.00    +0.086 A 
ATOM      6  C   UNL     1      -0.624   1.319   7.474  0.00  0.00    +0.091 A 
ATOM      7  C   UNL     1      -1.479   1.912   8.489  0.00  0.00    -0.021 A 
ATOM      8  C   UNL     1      -2.477   2.689   8.017  0.00  0.00    -0.004 A 
ATOM      9  S   UNL     1      -2.290   2.649   6.257  0.00  0.00    -0.077 S 
ATOM     10  C   UNL     1      -3.507   3.424   8.819  0.00  0.00    +0.046 C 
ATOM     11  C   UNL     1      -3.494   2.865  10.250  0.00  0.00    -0.009 C 
ATOM     12  C   UNL     1      -2.044   2.795  10.739  0.00  0.00    +0.008 C 
ATOM     13  C   UNL     1      -1.294   1.695   9.986  0.00  0.00    +0.037 C 
ATOM     14  C   UNL     1      -4.304   3.783  11.167  0.00  0.00    +0.008 C 
BRANCH   6  15
ATOM     15  C   UNL     1       0.500   0.453   7.839  0.00  0.00    +0.342 C 
ATOM     16  O   UNL     1       1.600   0.934   8.034  0.00  0.00    -0.245 OA
BRANCH  15  17
ATOM     17  O   UNL     1       0.314  -0.877   7.959  0.00  0.00    -0.464 OA
ATOM     18  C   UNL     1       1.472  -1.674   8.323  0.00  0.00    +0.280 C 
ENDBRANCH  15  17
ENDBRANCH   6  15
ENDBRANCH   3   5
BRANCH   1  19
ATOM     19  C   UNL     1       0.037   1.077   2.553  0.00  0.00    +0.020 C 
BRANCH  19  20
ATOM     20  N   UNL     1      -0.698   1.520   1.361  0.00  0.00    +0.391 N 
ATOM     21  H   UNL     1      -0.955   2.580   1.497  0.00  0.00    -0.080 HD
BRANCH  20  22
ATOM     22  C   UNL     1      -1.949   0.768   1.204  0.00  0.00    -0.078 C 
BRANCH  22  24
ATOM     23  C   UNL     1      -2.934  -1.490   0.782  0.00  0.00    +0.002 C 
ATOM     24  C   UNL     1      -1.630  -0.708   0.956  0.00  0.00    -0.022 C 
ENDBRANCH  22  24
ENDBRANCH  20  22
BRANCH  20  25
ATOM     25  C   UNL     1       0.137   1.409   0.157  0.00  0.00    +0.021 C 
BRANCH  25  26
ATOM     26  C   UNL     1      -0.550   2.094  -0.996  0.00  0.00    +0.202 A 
ATOM     27  N   UNL     1      -0.426   3.347  -1.331  0.00  0.00    -0.114 NA
ATOM     28  N   UNL     1      -1.152   3.591  -2.365  0.00  0.00    -0.107 NA
ATOM     29  C   UNL     1      -1.778   2.492  -2.724  0.00  0.00    +0.255 A 
ATOM     30  O   UNL     1      -1.408   1.523  -1.861  0.00  0.00    -0.422 OA
BRANCH  29  31
ATOM     31  C   UNL     1      -2.708   2.346  -3.853  0.00  0.00    +0.076 A 
ATOM     32  C   UNL     1      -3.130   3.297  -4.764  0.00  0.00    +0.021 A 
ATOM     33  C   UNL     1      -4.013   2.916  -5.747  0.00  0.00    +0.008 A 
ATOM     34  C   UNL     1      -4.448   1.630  -5.787  0.00  0.00    +0.046 A 
ATOM     35  S   UNL     1      -3.594   0.896  -4.402  0.00  0.00    -0.092 S 
ENDBRANCH  29  31
ENDBRANCH  25  26
ENDBRANCH  20  25
ENDBRANCH  19  20
ENDBRANCH   1  19
TORSDOF 10
