REMARK  Name = ZINC12972666
REMARK  9 active torsions:
REMARK  status: ('A' for Active; 'I' for Inactive)
REMARK    1  A    between atoms: C_1  and  C_2
REMARK    2  A    between atoms: C_5  and  C_8
REMARK    3  A    between atoms: C_12  and  S_14
REMARK    4  A    between atoms: S_14  and  C_15
REMARK    5  A    between atoms: C_15  and  C_16
REMARK    6  A    between atoms: N_18  and  C_19
REMARK    7  A    between atoms: C_19  and  C_20
REMARK    8  A    between atoms: N_22  and  C_23
REMARK    9  A    between atoms: C_28  and  C_29
REMARK                            x       y       z     vdW  Elec       q    Type
REMARK                         _______ _______ _______ _____ _____    ______ ____
ROOT
ATOM      1  C   UNL     1       0.133  -8.063   4.470  0.00  0.00    +0.224 C 
ATOM      2  O   UNL     1       0.156  -9.224   4.121  0.00  0.00    -0.275 OA
ATOM      3  N   UNL     1       0.119  -7.753   5.782  0.00  0.00    -0.306 N 
ATOM      4  H   UNL     1       0.100  -6.825   6.061  0.00  0.00    +0.149 HD
ENDROOT
BRANCH   1   5
ATOM      5  C   UNL     1       0.120  -6.966   3.437  0.00  0.00    +0.173 C 
BRANCH   5   6
ATOM      6  S   UNL     1       0.145  -7.697   1.777  0.00  0.00    -0.077 S 
BRANCH   6  11
ATOM      7  C   UNL     1       0.096  -4.258  -0.022  0.00  0.00    +0.182 A 
ATOM      8  N   UNL     1       0.117  -5.016  -1.095  0.00  0.00    -0.152 NA
ATOM      9  H   UNL     1       0.155  -7.143  -1.209  0.00  0.00    +0.191 HD
ATOM     10  N   UNL     1       0.137  -6.348  -0.654  0.00  0.00    -0.253 N 
ATOM     11  C   UNL     1       0.127  -6.305   0.697  0.00  0.00    +0.185 A 
ATOM     12  N   UNL     1       0.108  -5.043   1.065  0.00  0.00    -0.201 NA
BRANCH   7  17
ATOM     13  C   UNL     1      -0.008   1.501   0.008  0.00  0.00    +0.044 C 
ATOM     14  C   UNL     1       0.019  -0.006   0.000  0.00  0.00    -0.050 A 
ATOM     15  C   UNL     1       0.034  -0.689  -1.203  0.00  0.00    +0.004 A 
ATOM     16  C   UNL     1       0.059  -2.068  -1.216  0.00  0.00    +0.012 A 
ATOM     17  C   UNL     1       0.070  -2.774  -0.015  0.00  0.00    +0.021 A 
ATOM     18  C   UNL     1       0.055  -2.081   1.194  0.00  0.00    +0.012 A 
ATOM     19  C   UNL     1       0.036  -0.701   1.196  0.00  0.00    +0.004 A 
ENDBRANCH   7  17
ENDBRANCH   6  11
ENDBRANCH   5   6
ENDBRANCH   1   5
BRANCH   3  20
ATOM     20  C   UNL     1       0.131  -8.820   6.786  0.00  0.00    +0.200 C 
BRANCH  20  21
ATOM     21  C   UNL     1       0.111  -8.212   8.165  0.00  0.00    +0.234 C 
ATOM     22  O   UNL     1       0.088  -7.006   8.296  0.00  0.00    -0.274 OA
ATOM     23  N   UNL     1       0.117  -9.008   9.252  0.00  0.00    -0.284 N 
ATOM     24  H   UNL     1       0.054  -9.970   9.149  0.00  0.00    +0.155 HD
BRANCH  23  25
ATOM     25  C   UNL     1       0.215  -8.446  10.530  0.00  0.00    +0.036 A 
ATOM     26  C   UNL     1       0.805  -7.200  10.699  0.00  0.00    +0.024 A 
ATOM     27  C   UNL     1       0.901  -6.647  11.961  0.00  0.00    +0.017 A 
ATOM     28  C   UNL     1       0.409  -7.334  13.057  0.00  0.00    +0.018 A 
ATOM     29  C   UNL     1      -0.179  -8.575  12.892  0.00  0.00    +0.020 A 
ATOM     30  C   UNL     1      -0.282  -9.130  11.631  0.00  0.00    -0.028 A 
ATOM     31  C   UNL     1      -0.928 -10.479  11.452  0.00  0.00    +0.046 C 
ATOM     32 BR   UNL     1       0.542  -6.575  14.784  0.00  0.00    -0.050 Br
ENDBRANCH  23  25
ENDBRANCH  20  21
ENDBRANCH   3  20
TORSDOF 7
