REMARK  Name = ZINC64482504
REMARK  10 active torsions:
REMARK  status: ('A' for Active; 'I' for Inactive)
REMARK    1  A    between atoms: C_1  and  C_2
REMARK    2  A    between atoms: C_5  and  C_7
REMARK    3  A    between atoms: C_7  and  C_8
REMARK    4  A    between atoms: N_10  and  N_11
REMARK    5  A    between atoms: C_12  and  C_14
REMARK    6  A    between atoms: C_14  and  N_15
REMARK    7  A    between atoms: N_15  and  C_16
REMARK    8  A    between atoms: N_15  and  C_22
REMARK    9  A    between atoms: C_16  and  C_17
REMARK   10  A    between atoms: C_22  and  C_23
REMARK                            x       y       z     vdW  Elec       q    Type
REMARK                         _______ _______ _______ _____ _____    ______ ____
ROOT
ATOM      1  N   UNL     1      -5.254  -3.247   5.171  0.00  0.00    -0.236 N 
ATOM      2  C   UNL     1      -5.010  -4.234   6.056  0.00  0.00    +0.213 C 
ATOM      3  O   UNL     1      -5.247  -4.066   7.233  0.00  0.00    -0.276 OA
ATOM      4  H   UNL     1      -5.065  -3.381   4.229  0.00  0.00    +0.173 HD
ENDROOT
BRANCH   1   7
ATOM      5  C   UNL     1      -6.027  -1.039   4.728  0.00  0.00    +0.235 C 
ATOM      6  O   UNL     1      -5.790  -1.207   3.551  0.00  0.00    -0.274 OA
ATOM      7  N   UNL     1      -5.782  -2.026   5.612  0.00  0.00    -0.234 N 
ATOM      8  H   UNL     1      -5.972  -1.892   6.554  0.00  0.00    +0.173 HD
BRANCH   5   9
ATOM      9  C   UNL     1      -6.594   0.274   5.203  0.00  0.00    +0.160 C 
BRANCH   9  14
ATOM     10  C   UNL     1      -9.025   2.361   1.359  0.00  0.00    +0.066 C 
ATOM     11  C   UNL     1      -7.823   2.198   2.252  0.00  0.00    +0.046 A 
ATOM     12  C   UNL     1      -6.695   2.929   2.065  0.00  0.00    +0.070 A 
ATOM     13  S   UNL     1      -5.673   2.304   3.389  0.00  0.00    -0.080 S 
ATOM     14  C   UNL     1      -6.772   1.199   4.026  0.00  0.00    +0.087 A 
ATOM     15  N   UNL     1      -7.821   1.342   3.255  0.00  0.00    -0.249 NA
ENDBRANCH   9  14
ENDBRANCH   5   9
ENDBRANCH   1   7
BRANCH   2  16
ATOM     16  C   UNL     1      -4.442  -5.547   5.581  0.00  0.00    +0.021 C 
BRANCH  16  17
ATOM     17  N   UNL     1      -4.410  -6.499   6.699  0.00  0.00    +0.392 N 
ATOM     18  H   UNL     1      -3.928  -6.082   7.482  0.00  0.00    -0.080 HD
BRANCH  17  19
ATOM     19  C   UNL     1      -3.705  -7.719   6.283  0.00  0.00    -0.002 C 
BRANCH  19  20
ATOM     20  C   UNL     1      -2.261  -7.393   6.001  0.00  0.00    +0.089 A 
ATOM     21  C   UNL     1      -1.275  -7.329   6.914  0.00  0.00    +0.042 A 
ATOM     22  C   UNL     1      -0.092  -6.995   6.217  0.00  0.00    +0.041 A 
ATOM     23  C   UNL     1      -0.424  -6.874   4.919  0.00  0.00    +0.195 A 
ATOM     24  O   UNL     1      -1.738  -7.122   4.793  0.00  0.00    -0.470 OA
ENDBRANCH  19  20
ENDBRANCH  17  19
BRANCH  17  25
ATOM     25  C   UNL     1      -5.784  -6.838   7.094  0.00  0.00    -0.046 C 
BRANCH  25  26
ATOM     26  C   UNL     1      -5.752  -7.731   8.336  0.00  0.00    +0.102 C 
ATOM     27  C   UNL     1      -7.184  -8.186   8.690  0.00  0.00    +0.032 C 
ATOM     28  C   UNL     1      -7.178  -8.117  10.242  0.00  0.00    +0.030 C 
ATOM     29  C   UNL     1      -6.247  -6.901  10.478  0.00  0.00    +0.160 C 
ATOM     30  O   UNL     1      -5.244  -6.991   9.453  0.00  0.00    -0.378 OA
ENDBRANCH  25  26
ENDBRANCH  17  25
ENDBRANCH  16  17
ENDBRANCH   2  16
TORSDOF 9
