REMARK  Name = ZINC15636084
REMARK  8 active torsions:
REMARK  status: ('A' for Active; 'I' for Inactive)
REMARK    1  A    between atoms: C_1  and  N_2
REMARK    2  A    between atoms: C_7  and  O_9
REMARK    3  A    between atoms: O_9  and  N_10
REMARK    4  A    between atoms: N_17  and  C_18
REMARK    5  A    between atoms: C_23  and  S_24
REMARK    6  A    between atoms: S_24  and  C_25
REMARK    7  A    between atoms: C_25  and  C_26
REMARK    8  A    between atoms: C_26  and  C_27
REMARK                            x       y       z     vdW  Elec       q    Type
REMARK                         _______ _______ _______ _____ _____    ______ ____
ROOT
ATOM      1  C   UNL     1      -3.470  -6.259  -0.521  0.00  0.00    +0.128 C 
ATOM      2  N   UNL     1      -3.491  -4.799  -0.402  0.00  0.00    -0.316 N 
ATOM      3  C   UNL     1      -2.306  -4.098  -0.304  0.00  0.00    +0.222 A 
ATOM      4  N   UNL     1      -2.324  -2.774  -0.191  0.00  0.00    -0.181 NA
ATOM      5  C   UNL     1      -1.183  -2.099  -0.103  0.00  0.00    +0.227 A 
ATOM      6  N   UNL     1      -0.023  -2.751  -0.117  0.00  0.00    -0.159 NA
ATOM      7  C   UNL     1      -0.006  -4.074  -0.225  0.00  0.00    +0.352 A 
ATOM      8  N   UNL     1      -1.146  -4.748  -0.318  0.00  0.00    -0.159 NA
ATOM      9  N   UNL     1      -1.200  -0.723   0.009  0.00  0.00    -0.282 N 
ATOM     10  H   UNL     1      -4.337  -4.325  -0.391  0.00  0.00    +0.149 HD
ATOM     11  H   UNL     1      -2.045  -0.255   0.105  0.00  0.00    +0.155 HD
ENDROOT
BRANCH   9  12
ATOM     12  C   UNL     1       0.001  -0.003  -0.017  0.00  0.00    +0.047 A 
ATOM     13  C   UNL     1       1.117  -0.534  -0.643  0.00  0.00    +0.024 A 
ATOM     14  C   UNL     1       2.302   0.178  -0.668  0.00  0.00    +0.002 A 
ATOM     15  C   UNL     1       2.378   1.422  -0.068  0.00  0.00    +0.001 A 
ATOM     16  C   UNL     1       1.270   1.961   0.559  0.00  0.00    +0.017 A 
ATOM     17  C   UNL     1       0.077   1.252   0.588  0.00  0.00    +0.035 A 
BRANCH  17  18
ATOM     18  S   UNL     1      -1.339   1.939   1.381  0.00  0.00    -0.044 S 
BRANCH  18  19
ATOM     19  C   UNL     1      -0.760   3.542   2.001  0.00  0.00    +0.370 C 
ATOM     20  F   UNL     1       0.298   3.343   2.894  0.00  0.00    -0.186 F 
ATOM     21  F   UNL     1      -0.324   4.328   0.928  0.00  0.00    -0.186 F 
BRANCH  19  22
ATOM     22  C   UNL     1      -1.907   4.255   2.721  0.00  0.00    +0.413 C 
ATOM     23  F   UNL     1      -2.966   4.454   1.829  0.00  0.00    -0.188 F 
ATOM     24  F   UNL     1      -2.343   3.469   3.794  0.00  0.00    -0.188 F 
BRANCH  22  25
ATOM     25  C   UNL     1      -1.419   5.607   3.244  0.00  0.00    +0.461 C 
ATOM     26  F   UNL     1      -0.983   6.392   2.172  0.00  0.00    -0.165 F 
ATOM     27  F   UNL     1      -2.468   6.258   3.903  0.00  0.00    -0.165 F 
ATOM     28  F   UNL     1      -0.360   5.407   4.137  0.00  0.00    -0.165 F 
ENDBRANCH  22  25
ENDBRANCH  19  22
ENDBRANCH  18  19
ENDBRANCH  17  18
ENDBRANCH   9  12
BRANCH   7  29
ATOM     29  O   UNL     1       1.174  -4.735  -0.239  0.00  0.00    -0.314 OA
BRANCH  29  30
ATOM     30  N   UNL     1       1.633  -5.122   1.043  0.00  0.00    -0.083 NA
ATOM     31  C   UNL     1       2.739  -5.756   1.163  0.00  0.00    +0.058 C 
ATOM     32  C   UNL     1       3.567  -6.106  -0.053  0.00  0.00    +0.054 C 
ATOM     33  C   UNL     1       5.007  -5.627   0.189  0.00  0.00    +0.006 C 
ATOM     34  C   UNL     1       5.526  -6.225   1.498  0.00  0.00    +0.001 C 
ATOM     35  C   UNL     1       4.696  -5.701   2.672  0.00  0.00    +0.006 C 
ATOM     36  C   UNL     1       3.247  -6.178   2.523  0.00  0.00    +0.054 C 
ENDBRANCH  29  30
ENDBRANCH   7  29
TORSDOF 7
