REMARK  Name = ZINC44020314
REMARK  6 active torsions:
REMARK  status: ('A' for Active; 'I' for Inactive)
REMARK    1  A    between atoms: C_1  and  C_2
REMARK    2  A    between atoms: N_12  and  C_13
REMARK    3  A    between atoms: N_17  and  C_22
REMARK    4  A    between atoms: C_22  and  C_23
REMARK    5  A    between atoms: C_22  and  C_24
REMARK    6  A    between atoms: C_22  and  C_25
REMARK                            x       y       z     vdW  Elec       q    Type
REMARK                         _______ _______ _______ _____ _____    ______ ____
ROOT
ATOM      1  C   UNL     1       0.048  -1.037   2.244  0.00  0.00    +0.112 A 
ATOM      2  C   UNL     1      -1.316  -1.127   2.215  0.00  0.00    +0.112 A 
ATOM      3  C   UNL     1      -1.985  -1.688   3.315  0.00  0.00    +0.259 A 
ATOM      4  O   UNL     1      -3.201  -1.779   3.311  0.00  0.00    -0.267 OA
ATOM      5  N   UNL     1      -1.276  -2.124   4.374  0.00  0.00    -0.256 N 
ATOM      6  C   UNL     1       0.066  -2.027   4.386  0.00  0.00    +0.331 A 
ATOM      7  O   UNL     1       0.687  -2.427   5.352  0.00  0.00    -0.246 OA
ATOM      8  N   UNL     1       0.732  -1.499   3.342  0.00  0.00    -0.295 N 
ATOM      9  H   UNL     1       1.700  -1.441   3.367  0.00  0.00    +0.172 HD
ENDROOT
BRANCH   1  20
ATOM     10  C   UNL     1       2.517   1.164   1.454  0.00  0.00    +0.028 C 
ATOM     11  C   UNL     1       1.034   0.943   1.148  0.00  0.00    +0.077 C 
ATOM     12  C   UNL     1       0.712   1.458  -0.261  0.00  0.00    +0.027 C 
ATOM     13  C   UNL     1       1.629   0.760  -1.264  0.00  0.00    +0.039 C 
ATOM     14  C   UNL     1       1.575  -0.734  -1.078  0.00  0.00    -0.023 A 
ATOM     15  C   UNL     1       1.969  -1.554  -2.122  0.00  0.00    +0.043 A 
ATOM     16  C   UNL     1       1.934  -2.929  -1.980  0.00  0.00    +0.124 A 
ATOM     17  C   UNL     1       1.503  -3.494  -0.791  0.00  0.00    +0.040 A 
ATOM     18  C   UNL     1       1.108  -2.682   0.252  0.00  0.00    +0.026 A 
ATOM     19  C   UNL     1       1.142  -1.300   0.111  0.00  0.00    +0.039 A 
ATOM     20  N   UNL     1       0.728  -0.494   1.182  0.00  0.00    -0.283 N 
ATOM     21  F   UNL     1       2.320  -3.723  -3.003  0.00  0.00    -0.205 F 
ENDBRANCH   1  20
BRANCH   5  22
ATOM     22  C   UNL     1      -1.971  -2.709   5.523  0.00  0.00    +0.045 C 
ATOM     23  C   UNL     1      -3.479  -2.704   5.263  0.00  0.00    +0.034 C 
ATOM     24  C   UNL     1      -1.494  -4.148   5.729  0.00  0.00    +0.034 C 
ATOM     25  C   UNL     1      -1.667  -1.887   6.776  0.00  0.00    +0.034 C 
ENDBRANCH   5  22
TORSDOF 2
