REMARK  Name = ZINC35969384
REMARK  9 active torsions:
REMARK  status: ('A' for Active; 'I' for Inactive)
REMARK    1  A    between atoms: C_1  and  C_2
REMARK    2  A    between atoms: C_5  and  C_8
REMARK    3  A    between atoms: N_13  and  C_16
REMARK    4  A    between atoms: C_16  and  C_18
REMARK    5  A    between atoms: C_16  and  C_24
REMARK    6  A    between atoms: N_26  and  C_27
REMARK    7  A    between atoms: C_27  and  C_28
REMARK    8  A    between atoms: N_34  and  C_38
REMARK    9  A    between atoms: C_38  and  C_39
REMARK                            x       y       z     vdW  Elec       q    Type
REMARK                         _______ _______ _______ _____ _____    ______ ____
ROOT
ATOM      1  C   UNL     1       0.051  -5.927  -1.040  0.00  0.00    +0.142 C 
ATOM      2  C   UNL     1       1.425  -5.473  -0.589  0.00  0.00    +0.058 C 
ATOM      3  C   UNL     1       1.506  -4.760   0.553  0.00  0.00    +0.043 C 
ATOM      4  C   UNL     1       2.971  -4.447   0.757  0.00  0.00    +0.160 C 
ATOM      5  N   UNL     1       3.652  -5.066  -0.390  0.00  0.00    -0.277 N 
ATOM      6  C   UNL     1       2.707  -5.652  -1.147  0.00  0.00    +0.247 C 
ATOM      7  O   UNL     1       2.930  -6.259  -2.178  0.00  0.00    -0.270 OA
ATOM      8  N   UNL     1       0.389  -4.457   1.278  0.00  0.00    -0.253 N 
ATOM      9  C   UNL     1      -0.848  -4.832   0.927  0.00  0.00    +0.307 C 
ATOM     10  O   UNL     1      -1.783  -4.515   1.636  0.00  0.00    -0.252 OA
ATOM     11  N   UNL     1      -1.089  -5.548  -0.188  0.00  0.00    -0.288 N 
ATOM     12  H   UNL     1      -1.993  -5.809  -0.424  0.00  0.00    +0.151 HD
ENDROOT
BRANCH   1  17
ATOM     13  C   UNL     1      -0.888  -3.786  -6.325  0.00  0.00    +0.044 C 
ATOM     14  C   UNL     1      -0.643  -4.344  -4.947  0.00  0.00    -0.050 A 
ATOM     15  C   UNL     1      -0.169  -5.634  -4.798  0.00  0.00    +0.004 A 
ATOM     16  C   UNL     1       0.056  -6.146  -3.534  0.00  0.00    +0.006 A 
ATOM     17  C   UNL     1      -0.193  -5.368  -2.418  0.00  0.00    -0.023 A 
ATOM     18  C   UNL     1      -0.666  -4.078  -2.567  0.00  0.00    +0.006 A 
ATOM     19  C   UNL     1      -0.887  -3.565  -3.832  0.00  0.00    +0.004 A 
ENDBRANCH   1  17
BRANCH   5  20
ATOM     20  C   UNL     1       5.093  -5.047  -0.659  0.00  0.00    +0.193 C 
BRANCH  20  21
ATOM     21  C   UNL     1       5.580  -3.621  -0.686  0.00  0.00    -0.018 A 
ATOM     22  C   UNL     1       5.378  -2.800   0.408  0.00  0.00    +0.006 A 
ATOM     23  C   UNL     1       5.825  -1.493   0.383  0.00  0.00    +0.000 A 
ATOM     24  C   UNL     1       6.474  -1.005  -0.737  0.00  0.00    +0.000 A 
ATOM     25  C   UNL     1       6.676  -1.826  -1.830  0.00  0.00    +0.000 A 
ATOM     26  C   UNL     1       6.233  -3.135  -1.803  0.00  0.00    +0.006 A 
ENDBRANCH  20  21
BRANCH  20  27
ATOM     27  C   UNL     1       5.816  -5.804   0.425  0.00  0.00    +0.238 C 
ATOM     28  O   UNL     1       5.190  -6.310   1.333  0.00  0.00    -0.273 OA
ATOM     29  N   UNL     1       7.158  -5.919   0.386  0.00  0.00    -0.311 N 
ATOM     30  H   UNL     1       7.659  -5.515  -0.340  0.00  0.00    +0.149 HD
BRANCH  29  31
ATOM     31  C   UNL     1       7.861  -6.655   1.440  0.00  0.00    +0.135 C 
BRANCH  31  32
ATOM     32  C   UNL     1       9.365  -6.636   1.159  0.00  0.00    +0.135 C 
ATOM     33  C   UNL     1      10.103  -7.510   2.196  0.00  0.00    +0.035 C 
ATOM     34  C   UNL     1      11.384  -6.678   2.475  0.00  0.00    +0.031 C 
ATOM     35  C   UNL     1      10.834  -5.236   2.343  0.00  0.00    +0.160 C 
ATOM     36  O   UNL     1       9.865  -5.299   1.282  0.00  0.00    -0.375 OA
ENDBRANCH  31  32
ENDBRANCH  29  31
ENDBRANCH  20  27
ENDBRANCH   5  20
BRANCH   8  37
ATOM     37  C   UNL     1       0.553  -3.678   2.509  0.00  0.00    +0.141 C 
BRANCH  37  38
ATOM     38  C   UNL     1       0.455  -2.209   2.191  0.00  0.00    -0.015 C 
ATOM     39  C   UNL     1      -0.413  -1.458   2.822  0.00  0.00    +0.005 C 
ENDBRANCH  37  38
ENDBRANCH   8  37
TORSDOF 8
