REMARK  Name = ZINC23435828
REMARK  13 active torsions:
REMARK  status: ('A' for Active; 'I' for Inactive)
REMARK    1  A    between atoms: C_1  and  C_2
REMARK    2  A    between atoms: C_5  and  C_9
REMARK    3  A    between atoms: C_6  and  C_8
REMARK    4  A    between atoms: C_12  and  C_23
REMARK    5  A    between atoms: N_13  and  C_14
REMARK    6  A    between atoms: C_17  and  C_20
REMARK    7  A    between atoms: C_20  and  C_21
REMARK    8  A    between atoms: C_23  and  C_24
REMARK    9  A    between atoms: C_24  and  C_25
REMARK   10  A    between atoms: N_27  and  C_28
REMARK   11  A    between atoms: C_28  and  C_29
REMARK   12  A    between atoms: C_29  and  C_30
REMARK   13  A    between atoms: N_35  and  C_36
REMARK                            x       y       z     vdW  Elec       q    Type
REMARK                         _______ _______ _______ _____ _____    ______ ____
ROOT
ATOM      1  C   UNL     1      -8.156  -0.131  -8.970  0.00  0.00    +0.054 A 
ATOM      2  C   UNL     1      -9.230   0.613  -8.586  0.00  0.00    +0.028 A 
ATOM      3  C   UNL     1      -8.767   1.589  -7.689  0.00  0.00    +0.024 A 
ATOM      4  C   UNL     1      -7.434   1.418  -7.548  0.00  0.00    +0.025 A 
ATOM      5  N   UNL     1      -7.047   0.370  -8.332  0.00  0.00    -0.313 N 
ENDROOT
BRANCH   1  10
ATOM      6  C   UNL     1      -8.240  -4.575 -12.625  0.00  0.00    +0.044 C 
ATOM      7  C   UNL     1      -8.219  -3.411 -11.668  0.00  0.00    -0.050 A 
ATOM      8  C   UNL     1      -7.297  -2.393 -11.842  0.00  0.00    +0.004 A 
ATOM      9  C   UNL     1      -7.272  -1.325 -10.970  0.00  0.00    +0.010 A 
ATOM     10  C   UNL     1      -8.178  -1.272  -9.909  0.00  0.00    +0.002 A 
ATOM     11  C   UNL     1      -9.101  -2.305  -9.736  0.00  0.00    -0.041 A 
ATOM     12  C   UNL     1      -9.119  -3.365 -10.619  0.00  0.00    +0.007 A 
ATOM     13  C   UNL     1     -10.079  -2.259  -8.590  0.00  0.00    +0.044 C 
ENDBRANCH   1  10
BRANCH   5  14
ATOM     14  C   UNL     1      -5.739  -0.114  -8.463  0.00  0.00    +0.047 A 
ATOM     15  C   UNL     1      -4.768   0.663  -9.080  0.00  0.00    +0.026 A 
ATOM     16  C   UNL     1      -3.478   0.184  -9.203  0.00  0.00    +0.006 A 
ATOM     17  C   UNL     1      -3.156  -1.071  -8.722  0.00  0.00    -0.033 A 
ATOM     18  C   UNL     1      -4.122  -1.850  -8.112  0.00  0.00    +0.006 A 
ATOM     19  C   UNL     1      -5.412  -1.375  -7.982  0.00  0.00    +0.026 A 
BRANCH  17  20
ATOM     20  C   UNL     1      -1.749  -1.593  -8.863  0.00  0.00    +0.153 C 
BRANCH  20  21
ATOM     21  C   UNL     1      -1.619  -2.317 -10.138  0.00  0.00    +0.067 C 
ATOM     22  N   UNL     1      -1.519  -2.876 -11.122  0.00  0.00    -0.196 NA
ENDBRANCH  20  21
ENDBRANCH  17  20
ENDBRANCH   5  14
BRANCH   4  23
ATOM     23  C   UNL     1      -6.527   2.248  -6.676  0.00  0.00    +0.063 C 
BRANCH  23  24
ATOM     24  C   UNL     1      -6.550   1.698  -5.248  0.00  0.00    +0.102 C 
BRANCH  24  25
ATOM     25  C   UNL     1      -5.643   2.528  -4.376  0.00  0.00    +0.213 C 
ATOM     26  O   UNL     1      -5.038   3.466  -4.850  0.00  0.00    -0.276 OA
ATOM     27  N   UNL     1      -5.504   2.228  -3.070  0.00  0.00    -0.315 N 
ATOM     28  H   UNL     1      -6.052   1.377  -2.640  0.00  0.00    +0.149 HD
BRANCH  27  29
ATOM     29  C   UNL     1      -4.622   3.034  -2.222  0.00  0.00    +0.102 C 
BRANCH  29  30
ATOM     30  C   UNL     1      -4.644   2.485  -0.794  0.00  0.00    +0.003 C 
BRANCH  30  31
ATOM     31  C   UNL     1      -3.773   3.365   0.104  0.00  0.00    -0.068 C 
ATOM     32  C   UNL     1      -4.389   4.775   0.214  0.00  0.00    -0.017 C 
ATOM     33  C   UNL     1      -4.133   5.155   1.699  0.00  0.00    -0.020 C 
ATOM     34  C   UNL     1      -4.307   3.786   2.403  0.00  0.00    -0.079 C 
ATOM     35  N   UNL     1      -3.727   2.801   1.466  0.00  0.00    +0.380 N 
ATOM     36  C   UNL     1      -4.450   1.524   1.531  0.00  0.00    -0.096 C 
ATOM     37  H   UNL     1      -2.684   2.590   1.743  0.00  0.00    -0.082 HD
ENDBRANCH  30  31
ENDBRANCH  29  30
ENDBRANCH  27  29
ENDBRANCH  24  25
ENDBRANCH  23  24
ENDBRANCH   4  23
TORSDOF 10
