REMARK  Name = ZINC06443707
REMARK  12 active torsions:
REMARK  status: ('A' for Active; 'I' for Inactive)
REMARK    1  A    between atoms: C_1  and  C_2
REMARK    2  A    between atoms: C_12  and  C_14
REMARK    3  A    between atoms: C_14  and  C_16
REMARK    4  A    between atoms: C_14  and  N_67
REMARK    5  A    between atoms: N_20  and  C_21
REMARK    6  A    between atoms: C_21  and  C_22
REMARK    7  A    between atoms: C_22  and  O_23
REMARK    8  A    between atoms: O_23  and  C_24
REMARK    9  A    between atoms: C_25  and  C_26
REMARK   10  A    between atoms: C_25  and  N_67
REMARK   11  A    between atoms: C_32  and  C_33
REMARK   12  A    between atoms: C_32  and  N_67
REMARK                            x       y       z     vdW  Elec       q    Type
REMARK                         _______ _______ _______ _____ _____    ______ ____
ROOT
ATOM      1  C   UNL     1      -0.444  -2.076   5.640  0.00  0.00    +0.039 C 
ENDROOT
BRANCH   1  13
ATOM      2  C   UNL     1      -2.198   2.708   1.489  0.00  0.00    +0.046 C 
ATOM      3  C   UNL     1      -1.740   1.294   1.241  0.00  0.00    -0.026 A 
ATOM      4  C   UNL     1      -1.641   0.815  -0.048  0.00  0.00    +0.005 A 
ATOM      5  C   UNL     1      -1.215  -0.484  -0.289  0.00  0.00    +0.001 A 
ATOM      6  C   UNL     1      -0.897  -1.316   0.747  0.00  0.00    +0.010 A 
ATOM      7  C   UNL     1      -0.996  -0.853   2.063  0.00  0.00    -0.001 A 
ATOM      8  C   UNL     1      -1.422   0.466   2.312  0.00  0.00    +0.052 A 
ATOM      9  N   UNL     1      -1.517   0.917   3.611  0.00  0.00    -0.322 N 
ATOM     10  H   UNL     1      -1.811   1.826   3.781  0.00  0.00    +0.169 HD
ATOM     11  C   UNL     1      -1.210   0.116   4.646  0.00  0.00    +0.251 A 
ATOM     12  O   UNL     1      -1.306   0.548   5.781  0.00  0.00    -0.268 OA
ATOM     13  C   UNL     1      -0.778  -1.214   4.451  0.00  0.00    +0.011 A 
ATOM     14  C   UNL     1      -0.664  -1.717   3.197  0.00  0.00    +0.017 A 
ENDBRANCH   1  13
BRANCH   1  15
ATOM     15  C   UNL     1       0.740  -1.493   6.367  0.00  0.00    +0.143 A 
ATOM     16  N   UNL     1       0.802  -0.318   6.945  0.00  0.00    -0.115 NA
ATOM     17  N   UNL     1       1.978  -0.188   7.457  0.00  0.00    -0.023 NA
ATOM     18  N   UNL     1       2.669  -1.247   7.215  0.00  0.00    -0.044 NA
ATOM     19  N   UNL     1       1.941  -2.075   6.545  0.00  0.00    -0.228 N 
BRANCH  19  20
ATOM     20  C   UNL     1       2.345  -3.399   6.067  0.00  0.00    +0.175 C 
BRANCH  20  21
ATOM     21  C   UNL     1       3.062  -3.260   4.723  0.00  0.00    +0.183 C 
BRANCH  21  22
ATOM     22  O   UNL     1       3.456  -4.552   4.257  0.00  0.00    -0.381 OA
ATOM     23  C   UNL     1       4.138  -4.535   3.001  0.00  0.00    +0.194 C 
ENDBRANCH  21  22
ENDBRANCH  20  21
ENDBRANCH  19  20
ENDBRANCH   1  15
BRANCH   1  24
ATOM     24  N   UNL     1      -1.606  -2.102   6.553  0.00  0.00    +0.395 N 
ATOM     25  H   UNL     1      -1.885  -1.137   6.765  0.00  0.00    -0.079 HD
BRANCH  24  26
ATOM     26  C   UNL     1      -2.739  -2.798   5.908  0.00  0.00    -0.041 C 
BRANCH  26  27
ATOM     27  C   UNL     1      -3.425  -1.838   4.971  0.00  0.00    -0.064 A 
ATOM     28  C   UNL     1      -4.135  -0.765   5.478  0.00  0.00    +0.002 A 
ATOM     29  C   UNL     1      -4.759   0.119   4.617  0.00  0.00    +0.000 A 
ATOM     30  C   UNL     1      -4.682  -0.076   3.251  0.00  0.00    +0.000 A 
ATOM     31  C   UNL     1      -3.977  -1.151   2.744  0.00  0.00    +0.000 A 
ATOM     32  C   UNL     1      -3.348  -2.032   3.604  0.00  0.00    +0.002 A 
ENDBRANCH  26  27
ENDBRANCH  24  26
BRANCH  24  33
ATOM     33  C   UNL     1      -1.244  -2.785   7.812  0.00  0.00    -0.040 C 
BRANCH  33  34
ATOM     34  C   UNL     1      -0.522  -1.806   8.702  0.00  0.00    -0.046 A 
ATOM     35  C   UNL     1       0.771  -2.069   9.114  0.00  0.00    +0.003 A 
ATOM     36  C   UNL     1       1.434  -1.168   9.926  0.00  0.00    +0.000 A 
ATOM     37  C   UNL     1       0.802  -0.009  10.334  0.00  0.00    +0.001 A 
ATOM     38  C   UNL     1      -0.492   0.253   9.927  0.00  0.00    +0.020 A 
ATOM     39  C   UNL     1      -1.156  -0.646   9.110  0.00  0.00    +0.042 A 
ATOM     40 CL   UNL     1      -2.782  -0.318   8.599  0.00  0.00    -0.083 Cl
ENDBRANCH  33  34
ENDBRANCH  24  33
ENDBRANCH   1  24
TORSDOF 10
