REMARK  Name = ZINC01111412
REMARK  8 active torsions:
REMARK  status: ('A' for Active; 'I' for Inactive)
REMARK    1  A    between atoms: C_1  and  O_2
REMARK    2  A    between atoms: O_2  and  C_3
REMARK    3  A    between atoms: C_5  and  C_12
REMARK    4  A    between atoms: C_8  and  O_9
REMARK    5  A    between atoms: O_9  and  C_10
REMARK    6  A    between atoms: C_15  and  C_26
REMARK    7  A    between atoms: C_21  and  N_25
REMARK    8  A    between atoms: C_22  and  C_23
REMARK                            x       y       z     vdW  Elec       q    Type
REMARK                         _______ _______ _______ _____ _____    ______ ____
ROOT
ATOM      1  C   UNL     1       2.402   0.380  -4.231  0.00  0.00    +0.103 C 
ATOM      2  C   UNL     1       3.471   1.269  -3.650  0.00  0.00    +0.055 A 
ATOM      3  C   UNL     1       4.745   0.931  -3.179  0.00  0.00    +0.107 A 
ATOM      4  N   UNL     1       5.330   2.039  -2.762  0.00  0.00    -0.170 NA
ATOM      5  N   UNL     1       4.443   3.108  -2.958  0.00  0.00    -0.246 N 
ATOM      6  H   UNL     1       4.613   4.038  -2.740  0.00  0.00    +0.192 HD
ATOM      7  C   UNL     1       3.311   2.616  -3.504  0.00  0.00    +0.223 A 
ATOM      8  O   UNL     1       2.176   3.263  -3.872  0.00  0.00    -0.423 OA
ATOM      9  C   UNL     1       1.297   2.593  -4.644  0.00  0.00    +0.200 C 
ATOM     10  C   UNL     1       1.346   1.258  -4.856  0.00  0.00    +0.098 C 
ENDROOT
BRANCH   1  13
ATOM     11  C   UNL     1       0.606  -0.608  -1.057  0.00  0.00    +0.162 A 
ATOM     12  C   UNL     1       1.173   0.159  -2.062  0.00  0.00    +0.055 A 
ATOM     13  C   UNL     1       1.787  -0.456  -3.138  0.00  0.00    -0.017 A 
ATOM     14  C   UNL     1       1.837  -1.836  -3.213  0.00  0.00    +0.026 A 
ATOM     15  C   UNL     1       1.273  -2.607  -2.212  0.00  0.00    +0.065 A 
ATOM     16  C   UNL     1       0.662  -1.996  -1.129  0.00  0.00    +0.163 A 
ATOM     17 BR   UNL     1       2.678  -2.671  -4.686  0.00  0.00    -0.050 Br
BRANCH  11  19
ATOM     18  C   UNL     1      -0.017   1.425   0.010  0.00  0.00    +0.277 C 
ATOM     19  O   UNL     1       0.002  -0.004   0.002  0.00  0.00    -0.491 OA
ENDBRANCH  11  19
BRANCH  16  20
ATOM     20  O   UNL     1       0.112  -2.752  -0.141  0.00  0.00    -0.491 OA
ATOM     21  C   UNL     1       0.207  -4.171  -0.282  0.00  0.00    +0.277 C 
ENDBRANCH  16  20
ENDBRANCH   1  13
BRANCH   3  22
ATOM     22  C   UNL     1       5.331  -0.427  -3.153  0.00  0.00    +0.040 A 
ATOM     23  C   UNL     1       6.633  -0.808  -3.338  0.00  0.00    +0.018 A 
ATOM     24  C   UNL     1       6.947  -2.148  -3.268  0.00  0.00    +0.008 A 
ATOM     25  C   UNL     1       5.961  -3.046  -3.018  0.00  0.00    +0.046 A 
ATOM     26  S   UNL     1       4.527  -1.994  -2.864  0.00  0.00    -0.095 S 
ENDBRANCH   3  22
BRANCH   9  27
ATOM     27  N   UNL     1       0.295   3.307  -5.252  0.00  0.00    -0.328 N 
ATOM     28  H   UNL     1       0.234   4.266  -5.120  0.00  0.00    +0.145 HD
ATOM     29  H   UNL     1      -0.352   2.852  -5.814  0.00  0.00    +0.145 HD
ENDBRANCH   9  27
BRANCH  10  30
ATOM     30  C   UNL     1       0.360   0.655  -5.702  0.00  0.00    +0.101 C 
ATOM     31  N   UNL     1      -0.421   0.177  -6.373  0.00  0.00    -0.191 NA
ENDBRANCH  10  30
TORSDOF 6
