REMARK  Name = ZINC14398376
REMARK  5 active torsions:
REMARK  status: ('A' for Active; 'I' for Inactive)
REMARK    1  A    between atoms: C_1  and  C_2
REMARK    2  A    between atoms: C_9  and  C_11
REMARK    3  A    between atoms: N_13  and  N_14
REMARK    4  A    between atoms: C_15  and  C_17
REMARK    5  A    between atoms: C_21  and  N_23
REMARK                            x       y       z     vdW  Elec       q    Type
REMARK                         _______ _______ _______ _____ _____    ______ ____
ROOT
ATOM      1  N   UNL     1       5.671   6.423  -0.754  0.00  0.00    -0.230 N 
ATOM      2  C   UNL     1       5.440   7.708  -1.089  0.00  0.00    +0.260 C 
ATOM      3  O   UNL     1       4.302   8.093  -1.272  0.00  0.00    -0.269 OA
ATOM      4  H   UNL     1       6.580   6.116  -0.607  0.00  0.00    +0.173 HD
ENDROOT
BRANCH   2   5
ATOM      5  C   UNL     1       6.571   8.650  -1.233  0.00  0.00    +0.040 A 
ATOM      6  C   UNL     1       7.879   8.210  -1.023  0.00  0.00    +0.013 A 
ATOM      7  C   UNL     1       8.933   9.091  -1.158  0.00  0.00    +0.003 A 
ATOM      8  C   UNL     1       8.698  10.409  -1.501  0.00  0.00    +0.025 A 
ATOM      9  C   UNL     1       7.400  10.857  -1.713  0.00  0.00    +0.052 A 
ATOM     10  C   UNL     1       6.334   9.978  -1.585  0.00  0.00    +0.037 A 
BRANCH   9  11
ATOM     11  N   UNL     1       7.168  12.190  -2.059  0.00  0.00    -0.207 N 
ATOM     12  C   UNL     1       5.932  12.963  -1.839  0.00  0.00    +0.133 C 
ATOM     13  C   UNL     1       6.252  14.462  -1.660  0.00  0.00    +0.045 C 
ATOM     14  C   UNL     1       7.259  14.796  -2.801  0.00  0.00    +0.190 C 
ATOM     15  S   UNL     1       8.235  13.237  -2.818  0.00  0.00    +0.046 S 
ATOM     16  O   UNL     1       9.354  13.334  -1.948  0.00  0.00    -0.155 OA
ATOM     17  O   UNL     1       8.373  12.744  -4.143  0.00  0.00    -0.155 OA
ENDBRANCH   9  11
ENDBRANCH   2   5
BRANCH   1  20
ATOM     18  C   UNL     1       4.832   4.246  -0.282  0.00  0.00    +0.267 C 
ATOM     19  O   UNL     1       5.971   3.861  -0.098  0.00  0.00    -0.268 OA
ATOM     20  N   UNL     1       4.600   5.531  -0.617  0.00  0.00    -0.230 N 
ATOM     21  H   UNL     1       3.692   5.838  -0.763  0.00  0.00    +0.173 HD
BRANCH  18  29
ATOM     22  C   UNL     1       0.830  -1.998   1.260  0.00  0.00    +0.008 C 
ATOM     23  C   UNL     1       0.991  -0.489   1.066  0.00  0.00    -0.009 C 
ATOM     24  C   UNL     1       0.002  -0.004   0.002  0.00  0.00    +0.009 C 
ATOM     25  C   UNL     1      -0.019   1.531   0.011  0.00  0.00    +0.043 C 
ATOM     26  C   UNL     1       1.396   2.023  -0.000  0.00  0.00    -0.006 A 
ATOM     27  C   UNL     1       2.522   1.297   0.266  0.00  0.00    -0.036 A 
ATOM     28  C   UNL     1       3.730   1.971   0.194  0.00  0.00    +0.024 A 
ATOM     29  C   UNL     1       3.711   3.313  -0.139  0.00  0.00    +0.076 A 
ATOM     30  S   UNL     1       1.963   3.611  -0.348  0.00  0.00    -0.088 S 
ATOM     31  C   UNL     1       2.423  -0.183   0.625  0.00  0.00    +0.039 C 
ENDBRANCH  18  29
ENDBRANCH   1  20
TORSDOF 4
