REMARK  Name = ZINC22808046
REMARK  7 active torsions:
REMARK  status: ('A' for Active; 'I' for Inactive)
REMARK    1  A    between atoms: C_1  and  C_2
REMARK    2  A    between atoms: C_2  and  O_3
REMARK    3  A    between atoms: O_3  and  C_4
REMARK    4  A    between atoms: C_8  and  N_10
REMARK    5  A    between atoms: C_14  and  N_18
REMARK    6  A    between atoms: N_21  and  C_24
REMARK    7  A    between atoms: C_24  and  C_25
REMARK                            x       y       z     vdW  Elec       q    Type
REMARK                         _______ _______ _______ _____ _____    ______ ____
ROOT
ATOM      1  N   UNL     1      -6.282  -6.741   1.103  0.00  0.00    -0.295 NA
ATOM      2  C   UNL     1      -7.740  -6.812   1.272  0.00  0.00    +0.066 C 
ATOM      3  C   UNL     1      -8.066  -7.636   2.520  0.00  0.00    -0.063 C 
ATOM      4  N   UNL     1      -7.507  -8.986   2.376  0.00  0.00    +0.384 N 
ATOM      5  C   UNL     1      -6.047  -8.900   2.232  0.00  0.00    -0.063 C 
ATOM      6  C   UNL     1      -5.705  -8.087   0.982  0.00  0.00    +0.066 C 
ATOM      7  H   UNL     1      -7.899  -9.427   1.557  0.00  0.00    -0.081 HD
ENDROOT
BRANCH   1  12
ATOM      8  N   UNL     1      -4.218  -4.332   0.008  0.00  0.00    -0.209 N 
ATOM      9  C   UNL     1      -5.328  -3.591   0.109  0.00  0.00    +0.228 C 
ATOM     10  O   UNL     1      -5.360  -2.383   0.207  0.00  0.00    -0.275 OA
ATOM     11  C   UNL     1      -6.537  -4.500   0.082  0.00  0.00    +0.125 C 
ATOM     12  C   UNL     1      -5.927  -5.909  -0.055  0.00  0.00    +0.153 C 
ATOM     13  C   UNL     1      -4.437  -5.648  -0.095  0.00  0.00    +0.244 C 
ATOM     14  O   UNL     1      -3.578  -6.497  -0.202  0.00  0.00    -0.273 OA
BRANCH   8  19
ATOM     15  C   UNL     1      -0.882  -3.277  -1.143  0.00  0.00    +0.122 A 
ATOM     16  C   UNL     1      -0.390  -2.671   0.005  0.00  0.00    +0.046 A 
ATOM     17  C   UNL     1      -1.166  -2.618   1.147  0.00  0.00    +0.005 A 
ATOM     18  C   UNL     1      -2.434  -3.167   1.150  0.00  0.00    +0.024 A 
ATOM     19  C   UNL     1      -2.931  -3.774   0.004  0.00  0.00    +0.047 A 
ATOM     20  C   UNL     1      -2.156  -3.824  -1.145  0.00  0.00    +0.069 A 
BRANCH  15  21
ATOM     21  O   UNL     1      -0.118  -3.328  -2.266  0.00  0.00    -0.492 OA
BRANCH  21  23
ATOM     22  C   UNL     1       1.889  -2.897  -3.541  0.00  0.00    +0.048 C 
ATOM     23  C   UNL     1       1.184  -2.744  -2.192  0.00  0.00    +0.225 C 
ENDBRANCH  21  23
ENDBRANCH  15  21
ENDBRANCH   8  19
ENDBRANCH   1  12
BRANCH   4  24
ATOM     24  C   UNL     1      -7.835  -9.782   3.566  0.00  0.00    -0.043 C 
BRANCH  24  25
ATOM     25  C   UNL     1      -7.369 -11.201   3.366  0.00  0.00    -0.060 A 
ATOM     26  C   UNL     1      -8.213 -12.130   2.788  0.00  0.00    +0.005 A 
ATOM     27  C   UNL     1      -7.790 -13.433   2.602  0.00  0.00    +0.050 A 
ATOM     28  C   UNL     1      -6.516 -13.810   2.995  0.00  0.00    +0.166 A 
ATOM     29  C   UNL     1      -5.665 -12.874   3.577  0.00  0.00    +0.166 A 
ATOM     30  C   UNL     1      -6.094 -11.569   3.755  0.00  0.00    +0.051 A 
ATOM     31  O   UNL     1      -4.481 -13.486   3.873  0.00  0.00    -0.453 OA
ATOM     32  C   UNL     1      -4.759 -14.898   3.841  0.00  0.00    +0.466 C 
ATOM     33  O   UNL     1      -5.865 -15.008   2.926  0.00  0.00    -0.453 OA
ENDBRANCH  24  25
ENDBRANCH   4  24
TORSDOF 6
