REMARK  Name = ZINC15906615
REMARK  7 active torsions:
REMARK  status: ('A' for Active; 'I' for Inactive)
REMARK    1  A    between atoms: C_1  and  C_2
REMARK    2  A    between atoms: C_2  and  C_37
REMARK    3  A    between atoms: C_4  and  N_32
REMARK    4  A    between atoms: N_8  and  C_25
REMARK    5  A    between atoms: P_9  and  N_20
REMARK    6  A    between atoms: N_10  and  C_11
REMARK    7  A    between atoms: C_16  and  N_17
REMARK                            x       y       z     vdW  Elec       q    Type
REMARK                         _______ _______ _______ _____ _____    ______ ____
ROOT
ATOM      1  C   UNL     1       0.222   1.917  -0.380  0.00  0.00    +0.011 C 
ATOM      2  C   UNL     1       0.135   0.549   0.300  0.00  0.00    -0.024 C 
ATOM      3  C   UNL     1       0.779  -0.500  -0.603  0.00  0.00    +0.058 C 
ATOM      4  C   UNL     1       2.232  -0.153  -0.863  0.00  0.00    +0.021 C 
ATOM      5  C   UNL     1       2.889   0.481   0.091  0.00  0.00    +0.065 C 
ATOM      6  C   UNL     1       2.310   0.901   1.391  0.00  0.00    +0.073 C 
ATOM      7  N   UNL     1       3.149   1.490   2.153  0.00  0.00    -0.177 NA
ATOM      8  N   UNL     1       4.478   1.718   1.776  0.00  0.00    -0.171 N 
ATOM      9  P   UNL     1       4.602   1.073   0.243  0.00  0.00    +0.172 P 
ATOM     10  N   UNL     1       4.930   2.163  -0.814  0.00  0.00    -0.225 NA
ATOM     11  C   UNL     1       0.839   0.617   1.661  0.00  0.00    +0.064 C 
ATOM     12  C   UNL     1      -1.337   0.188   0.514  0.00  0.00    +0.011 C 
ENDROOT
BRANCH  10  13
ATOM     13  C   UNL     1       3.961   2.825  -1.393  0.00  0.00    +0.096 A 
ATOM     14  C   UNL     1       2.849   3.389  -0.603  0.00  0.00    +0.030 A 
ATOM     15  C   UNL     1       1.865   4.070  -1.248  0.00  0.00    +0.002 A 
ATOM     16  C   UNL     1       1.896   4.239  -2.628  0.00  0.00    +0.002 A 
ATOM     17  C   UNL     1       2.923   3.725  -3.413  0.00  0.00    +0.035 A 
ATOM     18  C   UNL     1       3.953   3.035  -2.854  0.00  0.00    +0.151 A 
BRANCH  18  19
ATOM     19  N   UNL     1       5.045   2.499  -3.697  0.00  0.00    +0.059 N 
ATOM     20  O   UNL     1       5.027   2.693  -5.000  0.00  0.00    -0.126 OA
ATOM     21  O   UNL     1       6.035   1.828  -3.145  0.00  0.00    -0.126 OA
ENDBRANCH  18  19
ENDBRANCH  10  13
BRANCH   8  22
ATOM     22  C   UNL     1       5.477   2.346   2.519  0.00  0.00    +0.059 A 
ATOM     23  C   UNL     1       6.752   2.496   1.985  0.00  0.00    +0.025 A 
ATOM     24  C   UNL     1       7.739   3.119   2.723  0.00  0.00    +0.002 A 
ATOM     25  C   UNL     1       7.460   3.593   3.992  0.00  0.00    +0.000 A 
ATOM     26  C   UNL     1       6.193   3.446   4.526  0.00  0.00    +0.002 A 
ATOM     27  C   UNL     1       5.200   2.830   3.792  0.00  0.00    +0.025 A 
ENDBRANCH   8  22
BRANCH   9  28
ATOM     28  N   UNL     1       5.679  -0.162   0.189  0.00  0.00    -0.250 NA
ATOM     29  C   UNL     1       5.444  -1.477  -0.426  0.00  0.00    +0.092 C 
ATOM     30  C   UNL     1       6.721  -2.317  -0.212  0.00  0.00    +0.017 C 
ATOM     31  C   UNL     1       7.393  -1.625   1.003  0.00  0.00    +0.017 C 
ATOM     32  C   UNL     1       7.045  -0.136   0.743  0.00  0.00    +0.092 C 
ENDBRANCH   9  28
BRANCH   4  33
ATOM     33  N   UNL     1       2.847  -0.488  -2.055  0.00  0.00    -0.332 N 
ATOM     34  C   UNL     1       3.610   0.430  -2.913  0.00  0.00    +0.105 C 
ATOM     35  C   UNL     1       4.084  -0.378  -4.140  0.00  0.00    +0.020 C 
ATOM     36  C   UNL     1       3.083  -1.563  -4.184  0.00  0.00    +0.020 C 
ATOM     37  C   UNL     1       2.851  -1.827  -2.673  0.00  0.00    +0.105 C 
ENDBRANCH   4  33
TORSDOF 5
