REMARK  Name = ZINC59333677
REMARK  9 active torsions:
REMARK  status: ('A' for Active; 'I' for Inactive)
REMARK    1  A    between atoms: C_1  and  C_2
REMARK    2  A    between atoms: C_2  and  C_3
REMARK    3  A    between atoms: N_12  and  C_13
REMARK    4  A    between atoms: C_13  and  C_14
REMARK    5  A    between atoms: C_14  and  C_15
REMARK    6  A    between atoms: C_15  and  C_16
REMARK    7  A    between atoms: C_17  and  C_29
REMARK    8  A    between atoms: C_18  and  N_28
REMARK    9  A    between atoms: N_19  and  C_21
REMARK                            x       y       z     vdW  Elec       q    Type
REMARK                         _______ _______ _______ _____ _____    ______ ____
ROOT
ATOM      1  C   UNL     1       9.569  -1.823  -0.824  0.00  0.00    +0.083 A 
ATOM      2  C   UNL     1      10.274  -0.636  -0.516  0.00  0.00    +0.114 A 
ATOM      3  C   UNL     1      11.049  -0.903   0.610  0.00  0.00    +0.138 A 
ATOM      4  N   UNL     1      10.816  -2.189   0.957  0.00  0.00    -0.217 N 
ATOM      5  N   UNL     1       9.893  -2.730   0.056  0.00  0.00    -0.168 NA
ENDROOT
BRANCH   4   6
ATOM      6  C   UNL     1      11.397  -2.864   2.040  0.00  0.00    +0.068 A 
ATOM      7  C   UNL     1      12.705  -2.585   2.412  0.00  0.00    +0.030 A 
ATOM      8  C   UNL     1      13.276  -3.250   3.479  0.00  0.00    +0.040 A 
ATOM      9  C   UNL     1      12.544  -4.196   4.178  0.00  0.00    +0.124 A 
ATOM     10  C   UNL     1      11.239  -4.476   3.808  0.00  0.00    +0.040 A 
ATOM     11  C   UNL     1      10.663  -3.808   2.746  0.00  0.00    +0.030 A 
ATOM     12  F   UNL     1      13.104  -4.847   5.221  0.00  0.00    -0.205 F 
ENDBRANCH   4   6
BRANCH   3  13
ATOM     13  N   UNL     1      11.895  -0.019   1.252  0.00  0.00    -0.342 N 
ATOM     14  H   UNL     1      11.991   0.887   0.922  0.00  0.00    +0.144 HD
ATOM     15  H   UNL     1      12.393  -0.306   2.034  0.00  0.00    +0.144 HD
ENDBRANCH   3  13
BRANCH   2  16
ATOM     16  C   UNL     1      10.205   0.604  -1.228  0.00  0.00    +0.104 C 
ATOM     17  N   UNL     1      10.150   1.588  -1.792  0.00  0.00    -0.191 NA
ENDBRANCH   2  16
BRANCH   1  18
ATOM     18  C   UNL     1       8.605  -2.007  -1.967  0.00  0.00    +0.060 C 
BRANCH  18  19
ATOM     19  C   UNL     1       7.193  -1.637  -1.507  0.00  0.00    +0.025 C 
BRANCH  19  20
ATOM     20  C   UNL     1       6.214  -1.823  -2.668  0.00  0.00    +0.103 C 
BRANCH  20  30
ATOM     21  C   UNL     1       0.707  -0.490  -1.238  0.00  0.00    -0.008 A 
ATOM     22  C   UNL     1       2.012  -0.753  -1.401  0.00  0.00    +0.024 A 
ATOM     23  C   UNL     1       2.486  -1.217  -2.694  0.00  0.00    +0.048 A 
ATOM     24  C   UNL     1       3.802  -1.558  -3.112  0.00  0.00    +0.130 A 
ATOM     25  N   UNL     1       3.999  -1.963  -4.356  0.00  0.00    -0.220 NA
ATOM     26  C   UNL     1       3.012  -2.061  -5.229  0.00  0.00    +0.224 A 
ATOM     27  N   UNL     1       1.771  -1.758  -4.901  0.00  0.00    -0.228 NA
ATOM     28  C   UNL     1       1.484  -1.347  -3.681  0.00  0.00    +0.113 A 
ATOM     29  S   UNL     1       0.005  -0.859  -2.834  0.00  0.00    -0.074 S 
ATOM     30  N   UNL     1       4.862  -1.469  -2.228  0.00  0.00    -0.328 N 
ATOM     31  H   UNL     1       4.711  -1.171  -1.317  0.00  0.00    +0.147 HD
BRANCH  21  33
ATOM     32  C   UNL     1      -0.019   1.526   0.010  0.00  0.00    +0.009 C 
ATOM     33  C   UNL     1       0.002  -0.004   0.002  0.00  0.00    +0.039 C 
ENDBRANCH  21  33
ENDBRANCH  20  30
ENDBRANCH  19  20
ENDBRANCH  18  19
ENDBRANCH   1  18
TORSDOF 8
