REMARK  Name = ZINC31807903
REMARK  4 active torsions:
REMARK  status: ('A' for Active; 'I' for Inactive)
REMARK    1  A    between atoms: C_1  and  N_2
REMARK    2  A    between atoms: C_7  and  N_23
REMARK    3  A    between atoms: C_11  and  N_22
REMARK    4  A    between atoms: C_12  and  C_14
REMARK                            x       y       z     vdW  Elec       q    Type
REMARK                         _______ _______ _______ _____ _____    ______ ____
ROOT
ATOM      1  C   UNL     1      12.032  -1.533   3.124  0.00  0.00    +0.105 C 
ATOM      2  N   UNL     1      10.637  -1.114   2.931  0.00  0.00    -0.301 NA
ATOM      3  C   UNL     1       9.953  -1.987   1.963  0.00  0.00    +0.089 C 
ATOM      4  C   UNL     1       8.448  -1.735   2.065  0.00  0.00    +0.051 C 
ATOM      5  C   UNL     1       8.170  -0.257   2.001  0.00  0.00    -0.027 A 
ATOM      6  C   UNL     1       9.137   0.672   2.207  0.00  0.00    +0.009 A 
ATOM      7  C   UNL     1       8.819   2.037   2.149  0.00  0.00    +0.104 A 
ATOM      8  N   UNL     1       7.582   2.430   1.892  0.00  0.00    -0.337 N 
ATOM      9  C   UNL     1       6.619   1.558   1.682  0.00  0.00    +0.089 A 
ATOM     10  C   UNL     1       6.842   0.164   1.720  0.00  0.00    +0.031 A 
ATOM     11  C   UNL     1       5.669  -0.656   1.465  0.00  0.00    +0.054 A 
ATOM     12  C   UNL     1       4.470  -0.022   1.216  0.00  0.00    +0.097 A 
ATOM     13  S   UNL     1       4.889   1.707   1.310  0.00  0.00    -0.064 S 
ATOM     14  C   UNL     1      10.564   0.284   2.494  0.00  0.00    +0.123 C 
ATOM     15  H   UNL     1       7.344   3.503   1.850  0.00  0.00    +0.168 HD
ENDROOT
BRANCH  12  16
ATOM     16  C   UNL     1       3.209  -0.606   0.945  0.00  0.00    +0.255 C 
ATOM     17  O   UNL     1       3.146  -1.710   0.435  0.00  0.00    -0.269 OA
ATOM     18  N   UNL     1       2.078   0.061   1.250  0.00  0.00    -0.297 N 
ATOM     19  C   UNL     1       2.135   1.348   1.956  0.00  0.00    +0.108 C 
ATOM     20  C   UNL     1       1.242   1.269   3.198  0.00  0.00    +0.019 C 
ATOM     21  C   UNL     1      -0.168   0.843   2.781  0.00  0.00    +0.003 C 
ATOM     22  C   UNL     1      -0.114  -0.544   2.136  0.00  0.00    +0.019 C 
ATOM     23  C   UNL     1       0.764  -0.486   0.882  0.00  0.00    +0.108 C 
ENDBRANCH  12  16
BRANCH   7  24
ATOM     24  N   UNL     1       9.810   2.983   2.364  0.00  0.00    -0.312 N 
ATOM     25  C   UNL     1       9.453   3.876   3.475  0.00  0.00    +0.134 C 
ATOM     26  C   UNL     1      10.598   4.864   3.717  0.00  0.00    +0.178 C 
ATOM     27  O   UNL     1      10.864   5.582   2.509  0.00  0.00    -0.377 OA
ATOM     28  C   UNL     1      11.215   4.743   1.405  0.00  0.00    +0.178 C 
ATOM     29  C   UNL     1      10.076   3.754   1.141  0.00  0.00    +0.134 C 
ENDBRANCH   7  24
BRANCH  11  30
ATOM     30  N   UNL     1       5.754  -2.041   1.472  0.00  0.00    -0.356 N 
ATOM     31  H   UNL     1       4.857  -2.648   1.278  0.00  0.00    +0.142 HD
ATOM     32  H   UNL     1       6.718  -2.532   1.672  0.00  0.00    +0.142 HD
ENDBRANCH  11  30
TORSDOF 3
