REMARK  Name = ZINC64726169
REMARK  2 active torsions:
REMARK  status: ('A' for Active; 'I' for Inactive)
REMARK    1  A    between atoms: C_7  and  C_10
REMARK    2  A    between atoms: N_13  and  C_16
REMARK                            x       y       z     vdW  Elec       q    Type
REMARK                         _______ _______ _______ _____ _____    ______ ____
ROOT
ATOM      1  C   UNL     1       0.691  -3.186  -0.024  0.00  0.00    +0.020 C 
ATOM      2  C   UNL     1       0.947  -4.041   1.219  0.00  0.00    +0.027 C 
ATOM      3  C   UNL     1      -0.035  -5.218   1.235  0.00  0.00    +0.106 C 
ATOM      4  N   UNL     1       0.081  -5.948  -0.035  0.00  0.00    -0.327 N 
ATOM      5  C   UNL     1      -0.058  -5.202  -1.293  0.00  0.00    +0.106 C 
ATOM      6  C   UNL     1       0.924  -4.026  -1.281  0.00  0.00    +0.027 C 
ENDROOT
BRANCH   1  13
ATOM      7  C   UNL     1      -0.016   1.348   0.009  0.00  0.00    +0.001 A 
ATOM      8  C   UNL     1       1.166   2.101   0.002  0.00  0.00    +0.002 A 
ATOM      9  C   UNL     1       2.391   1.535  -0.013  0.00  0.00    +0.026 A 
ATOM     10  C   UNL     1       2.529   0.120  -0.022  0.00  0.00    +0.043 A 
ATOM     11  N   UNL     1       3.587  -0.654  -0.037  0.00  0.00    -0.380 N 
ATOM     12  C   UNL     1       3.143  -2.053  -0.041  0.00  0.00    +0.145 C 
ATOM     13  C   UNL     1       1.631  -2.008  -0.025  0.00  0.00    -0.038 C 
ATOM     14  C   UNL     1       1.295  -0.698  -0.014  0.00  0.00    -0.001 A 
ATOM     15  C   UNL     1       0.002  -0.004   0.002  0.00  0.00    +0.010 A 
ATOM     16  H   UNL     1       4.509  -0.353  -0.045  0.00  0.00    +0.160 HD
ENDBRANCH   1  13
BRANCH   4  17
ATOM     17  C   UNL     1       0.319  -7.320  -0.045  0.00  0.00    +0.074 A 
ATOM     18  C   UNL     1      -0.736  -8.234  -0.046  0.00  0.00    +0.159 A 
ATOM     19  N   UNL     1      -0.483  -9.526  -0.057  0.00  0.00    -0.152 NA
ATOM     20  N   UNL     1       0.712  -9.993  -0.066  0.00  0.00    -0.105 NA
ATOM     21  C   UNL     1       1.778  -9.207  -0.065  0.00  0.00    +0.308 A 
ATOM     22  O   UNL     1       3.023  -9.749  -0.075  0.00  0.00    -0.263 OA
ATOM     23  C   UNL     1       1.619  -7.826  -0.060  0.00  0.00    +0.131 A 
ATOM     24 CL   UNL     1       2.994  -6.765  -0.066  0.00  0.00    -0.076 Cl
ENDBRANCH   4  17
TORSDOF 2
