REMARK  Name = ZINC39729128
REMARK  13 active torsions:
REMARK  status: ('A' for Active; 'I' for Inactive)
REMARK    1  A    between atoms: C_1  and  C_2
REMARK    2  A    between atoms: C_2  and  C_3
REMARK    3  A    between atoms: C_3  and  C_4
REMARK    4  A    between atoms: C_4  and  C_5
REMARK    5  A    between atoms: C_5  and  C_7
REMARK    6  A    between atoms: C_5  and  C_9
REMARK    7  A    between atoms: C_7  and  C_8
REMARK    8  A    between atoms: C_9  and  N_10
REMARK    9  A    between atoms: C_14  and  C_15
REMARK   10  A    between atoms: C_16  and  N_27
REMARK   11  A    between atoms: C_19  and  C_26
REMARK   12  A    between atoms: N_27  and  C_28
REMARK   13  A    between atoms: C_28  and  C_29
REMARK                            x       y       z     vdW  Elec       q    Type
REMARK                         _______ _______ _______ _____ _____    ______ ____
ROOT
ATOM      1  C   UNL     1       0.107  -4.714  -8.263  0.00  0.00    +0.081 A 
ATOM      2  C   UNL     1      -0.327  -4.976  -9.584  0.00  0.00    +0.134 A 
ATOM      3  N   UNL     1      -1.565  -4.663  -9.940  0.00  0.00    -0.214 NA
ATOM      4  C   UNL     1      -2.418  -4.102  -9.082  0.00  0.00    +0.145 A 
ATOM      5  C   UNL     1      -3.719  -3.791  -9.517  0.00  0.00    -0.007 A 
ATOM      6  C   UNL     1      -4.599  -3.218  -8.648  0.00  0.00    +0.008 A 
ATOM      7  C   UNL     1      -4.195  -2.947  -7.333  0.00  0.00    +0.019 A 
ATOM      8  C   UNL     1      -2.941  -3.252  -6.933  0.00  0.00    +0.096 A 
ATOM      9  N   UNL     1      -2.053  -3.826  -7.794  0.00  0.00    -0.267 N 
ATOM     10  C   UNL     1      -0.810  -4.124  -7.360  0.00  0.00    +0.267 A 
ATOM     11  O   UNL     1      -0.480  -3.885  -6.211  0.00  0.00    -0.267 OA
ATOM     12  C   UNL     1      -4.137  -4.089 -10.934  0.00  0.00    +0.047 C 
ENDROOT
BRANCH   1  17
ATOM     13  N   UNL     1       3.166  -1.866  -7.286  0.00  0.00    -0.255 N 
ATOM     14  C   UNL     1       2.151  -2.631  -7.650  0.00  0.00    +0.258 C 
ATOM     15  O   UNL     1       1.114  -2.142  -8.063  0.00  0.00    -0.269 OA
ATOM     16  C   UNL     1       2.305  -4.043  -7.547  0.00  0.00    +0.077 C 
ATOM     17  C   UNL     1       1.421  -5.037  -7.854  0.00  0.00    +0.037 C 
ATOM     18  S   UNL     1       3.970  -4.160  -6.907  0.00  0.00    -0.061 S 
ATOM     19  C   UNL     1       4.318  -2.409  -6.834  0.00  0.00    +0.121 C 
ATOM     20  S   UNL     1       5.748  -1.619  -6.321  0.00  0.00    -0.027 S 
BRANCH  13  21
ATOM     21  C   UNL     1       3.041  -0.410  -7.380  0.00  0.00    +0.118 C 
BRANCH  21  22
ATOM     22  C   UNL     1       3.641   0.070  -8.703  0.00  0.00    +0.007 C 
BRANCH  22  23
ATOM     23  C   UNL     1       3.584   1.597  -8.765  0.00  0.00    +0.002 C 
ATOM     24  C   UNL     1       4.500   2.185  -7.690  0.00  0.00    +0.004 C 
ENDBRANCH  22  23
BRANCH  22  25
ATOM     25  C   UNL     1       2.841  -0.518  -9.868  0.00  0.00    +0.005 C 
BRANCH  25  26
ATOM     26  C   UNL     1       3.513  -0.141 -11.190  0.00  0.00    +0.000 C 
BRANCH  26  28
ATOM     27  C   UNL     1       3.385  -0.352 -13.676  0.00  0.00    +0.004 C 
ATOM     28  C   UNL     1       2.713  -0.729 -12.354  0.00  0.00    -0.003 C 
ENDBRANCH  26  28
ENDBRANCH  25  26
ENDBRANCH  22  25
ENDBRANCH  21  22
ENDBRANCH  13  21
ENDBRANCH   1  17
BRANCH   2  29
ATOM     29  N   UNL     1       0.531  -5.554 -10.494  0.00  0.00    -0.326 N 
ATOM     30  H   UNL     1       1.436  -5.782 -10.230  0.00  0.00    +0.148 HD
BRANCH  29  31
ATOM     31  C   UNL     1       0.076  -5.824 -11.860  0.00  0.00    +0.134 C 
BRANCH  31  32
ATOM     32  C   UNL     1       1.214  -6.463 -12.659  0.00  0.00    +0.135 C 
ATOM     33  C   UNL     1       0.764  -6.725 -14.119  0.00  0.00    +0.035 C 
ATOM     34  C   UNL     1       2.133  -6.728 -14.853  0.00  0.00    +0.031 C 
ATOM     35  C   UNL     1       2.936  -5.680 -14.053  0.00  0.00    +0.160 C 
ATOM     36  O   UNL     1       2.322  -5.555 -12.763  0.00  0.00    -0.375 OA
ENDBRANCH  31  32
ENDBRANCH  29  31
ENDBRANCH   2  29
TORSDOF 10
