REMARK  Name = ZINC12887165
REMARK  9 active torsions:
REMARK  status: ('A' for Active; 'I' for Inactive)
REMARK    1  A    between atoms: C_1  and  C_2
REMARK    2  A    between atoms: C_2  and  C_3
REMARK    3  A    between atoms: C_3  and  C_5
REMARK    4  A    between atoms: C_3  and  C_6
REMARK    5  A    between atoms: C_6  and  C_8
REMARK    6  A    between atoms: C_6  and  N_18
REMARK    7  A    between atoms: N_10  and  C_11
REMARK    8  A    between atoms: C_11  and  C_12
REMARK    9  A    between atoms: C_19  and  C_21
REMARK                            x       y       z     vdW  Elec       q    Type
REMARK                         _______ _______ _______ _____ _____    ______ ____
ROOT
ATOM      1  C   UNL     1       2.891   3.582  -0.195  0.00  0.00    +0.167 C 
ATOM      2  C   UNL     1       4.258   3.819  -0.853  0.00  0.00    +0.069 C 
ATOM      3  C   UNL     1       5.362   3.634   0.156  0.00  0.00    -0.015 A 
ATOM      4  C   UNL     1       6.777   3.452  -0.113  0.00  0.00    +0.003 A 
ATOM      5  C   UNL     1       7.510   3.382  -1.301  0.00  0.00    +0.010 A 
ATOM      6  C   UNL     1       8.866   3.201  -1.183  0.00  0.00    +0.001 A 
ATOM      7  C   UNL     1       9.489   3.091   0.049  0.00  0.00    +0.002 A 
ATOM      8  C   UNL     1       8.788   3.155   1.241  0.00  0.00    +0.026 A 
ATOM      9  C   UNL     1       7.409   3.339   1.151  0.00  0.00    +0.047 A 
ATOM     10  N   UNL     1       6.436   3.441   2.102  0.00  0.00    -0.356 N 
ATOM     11  H   UNL     1       6.584   3.402   3.060  0.00  0.00    +0.166 HD
ATOM     12  C   UNL     1       5.218   3.608   1.500  0.00  0.00    +0.046 A 
ATOM     13  C   UNL     1       3.879   3.728   2.186  0.00  0.00    +0.155 C 
ATOM     14  N   UNL     1       2.926   4.178   1.144  0.00  0.00    -0.273 N 
ATOM     15  C   UNL     1       2.198   5.187   1.641  0.00  0.00    +0.248 C 
ATOM     16  O   UNL     1       1.183   5.633   1.141  0.00  0.00    -0.270 OA
ATOM     17  C   UNL     1       2.813   5.671   2.881  0.00  0.00    +0.042 A 
ATOM     18  C   UNL     1       3.870   4.775   3.246  0.00  0.00    -0.009 A 
ATOM     19  C   UNL     1       4.647   4.961   4.368  0.00  0.00    +0.006 A 
ATOM     20  C   UNL     1       4.351   6.061   5.167  0.00  0.00    +0.000 A 
ATOM     21  C   UNL     1       3.325   6.931   4.858  0.00  0.00    +0.001 A 
ATOM     22  C   UNL     1       2.509   6.775   3.681  0.00  0.00    +0.013 A 
ENDROOT
BRANCH   1  24
ATOM     23  N   UNL     1       2.568   1.345  -1.201  0.00  0.00    -0.302 N 
ATOM     24  C   UNL     1       2.627   2.102  -0.087  0.00  0.00    +0.235 C 
ATOM     25  O   UNL     1       2.466   1.592   1.001  0.00  0.00    -0.274 OA
ATOM     26  H   UNL     1       2.771   1.737  -2.065  0.00  0.00    +0.150 HD
BRANCH  23  27
ATOM     27  C   UNL     1       2.199  -0.070  -1.107  0.00  0.00    +0.162 C 
BRANCH  27  28
ATOM     28  C   UNL     1       2.917  -0.849  -2.178  0.00  0.00    +0.234 C 
ATOM     29  O   UNL     1       3.672  -0.281  -2.938  0.00  0.00    -0.274 OA
ATOM     30  N   UNL     1       2.721  -2.178  -2.291  0.00  0.00    -0.311 N 
ATOM     31  H   UNL     1       2.063  -2.620  -1.732  0.00  0.00    +0.149 HD
BRANCH  30  32
ATOM     32  C   UNL     1       3.501  -2.954  -3.258  0.00  0.00    +0.135 C 
BRANCH  32  33
ATOM     33  C   UNL     1       3.086  -4.425  -3.185  0.00  0.00    +0.135 C 
ATOM     34  C   UNL     1       3.985  -5.269  -4.113  0.00  0.00    +0.035 C 
ATOM     35  C   UNL     1       2.975  -6.283  -4.717  0.00  0.00    +0.031 C 
ATOM     36  C   UNL     1       1.699  -5.409  -4.805  0.00  0.00    +0.160 C 
ATOM     37  O   UNL     1       1.735  -4.572  -3.637  0.00  0.00    -0.375 OA
ENDBRANCH  32  33
ENDBRANCH  30  32
ENDBRANCH  27  28
BRANCH  27  38
ATOM     38  C   UNL     1       0.688  -0.216  -1.297  0.00  0.00    +0.015 C 
ATOM     39  C   UNL     1      -0.040   0.434  -0.118  0.00  0.00    +0.010 C 
BRANCH  38  41
ATOM     40  C   UNL     1       0.827  -0.305  -3.790  0.00  0.00    +0.004 C 
ATOM     41  C   UNL     1       0.268   0.473  -2.597  0.00  0.00    +0.002 C 
ENDBRANCH  38  41
ENDBRANCH  27  38
ENDBRANCH  23  27
ENDBRANCH   1  24
TORSDOF 7
