REMARK  Name = ZINC66717539
REMARK  6 active torsions:
REMARK  status: ('A' for Active; 'I' for Inactive)
REMARK    1  A    between atoms: C_1  and  N_2
REMARK    2  A    between atoms: N_2  and  C_3
REMARK    3  A    between atoms: C_7  and  S_9
REMARK    4  A    between atoms: S_9  and  C_12
REMARK    5  A    between atoms: C_12  and  C_13
REMARK    6  A    between atoms: C_15  and  C_18
REMARK                            x       y       z     vdW  Elec       q    Type
REMARK                         _______ _______ _______ _____ _____    ______ ____
ROOT
ATOM      1  C   UNL     1       1.879  -4.973  -5.927  0.00  0.00    +0.249 A 
ATOM      2  N   UNL     1       1.935  -4.777  -7.214  0.00  0.00    -0.190 NA
ATOM      3  C   UNL     1       2.042  -5.955  -7.855  0.00  0.00    +0.202 A 
ATOM      4  N   UNL     1       2.055  -6.916  -6.964  0.00  0.00    -0.056 NA
ATOM      5  O   UNL     1       1.954  -6.290  -5.694  0.00  0.00    -0.336 OA
ENDROOT
BRANCH   3   6
ATOM      6  C   UNL     1       2.131  -6.135  -9.324  0.00  0.00    +0.026 A 
ATOM      7  C   UNL     1       2.112  -5.025 -10.166  0.00  0.00    +0.015 A 
ATOM      8  C   UNL     1       2.195  -5.193 -11.533  0.00  0.00    +0.050 A 
ATOM      9  C   UNL     1       2.297  -6.467 -12.074  0.00  0.00    +0.166 A 
ATOM     10  C   UNL     1       2.316  -7.581 -11.236  0.00  0.00    +0.167 A 
ATOM     11  C   UNL     1       2.240  -7.415  -9.865  0.00  0.00    +0.061 A 
ATOM     12  O   UNL     1       2.421  -8.703 -12.006  0.00  0.00    -0.453 OA
ATOM     13  C   UNL     1       2.054  -8.292 -13.336  0.00  0.00    +0.466 C 
ATOM     14  O   UNL     1       2.390  -6.893 -13.367  0.00  0.00    -0.453 OA
ENDBRANCH   3   6
BRANCH   1  15
ATOM     15  C   UNL     1       1.756  -3.898  -4.878  0.00  0.00    +0.272 C 
BRANCH  15  16
ATOM     16  S   UNL     1       0.003  -3.579  -4.541  0.00  0.00    +0.031 S 
ATOM     17  O   UNL     1      -0.587  -4.706  -3.906  0.00  0.00    -0.167 OA
ATOM     18  O   UNL     1      -0.612  -2.982  -5.674  0.00  0.00    -0.167 OA
BRANCH  16  25
ATOM     19  C   UNL     1      -0.018   1.461   0.010  0.00  0.00    +0.131 C 
ATOM     20  N   UNL     1       0.002  -0.004   0.002  0.00  0.00    -0.314 N 
ATOM     21  C   UNL     1       0.024  -0.743   1.267  0.00  0.00    +0.131 C 
ATOM     22  C   UNL     1       0.000  -0.691  -1.203  0.00  0.00    +0.185 A 
ATOM     23  N   UNL     1      -0.012  -0.232  -2.447  0.00  0.00    -0.124 NA
ATOM     24  N   UNL     1      -0.012  -1.007  -3.442  0.00  0.00    -0.121 NA
ATOM     25  C   UNL     1       0.000  -2.318  -3.311  0.00  0.00    +0.239 A 
ATOM     26  S   UNL     1       0.021  -2.452  -1.525  0.00  0.00    -0.012 S 
ENDBRANCH  16  25
ENDBRANCH  15  16
ENDBRANCH   1  15
TORSDOF 4
