REMARK  Name = ZINC03954017
REMARK  9 active torsions:
REMARK  status: ('A' for Active; 'I' for Inactive)
REMARK    1  A    between atoms: C_1  and  C_2
REMARK    2  A    between atoms: N_7  and  C_26
REMARK    3  A    between atoms: C_17  and  C_25
REMARK    4  A    between atoms: C_22  and  C_23
REMARK    5  A    between atoms: C_22  and  O_24
REMARK    6  A    between atoms: C_26  and  C_27
REMARK    7  A    between atoms: C_27  and  N_65
REMARK    8  A    between atoms: C_28  and  N_65
REMARK    9  A    between atoms: C_29  and  N_65
REMARK                            x       y       z     vdW  Elec       q    Type
REMARK                         _______ _______ _______ _____ _____    ______ ____
ROOT
ATOM      1  C   UNL     1       0.255  -5.149  -1.059  0.00  0.00    +0.018 C 
ATOM      2  C   UNL     1       1.079  -4.929   0.214  0.00  0.00    +0.009 C 
ATOM      3  C   UNL     1       0.444  -5.737   1.338  0.00  0.00    +0.022 C 
ATOM      4  C   UNL     1      -1.022  -5.334   1.499  0.00  0.00    +0.097 C 
ATOM      5  C   UNL     1      -1.214  -3.856   1.364  0.00  0.00    +0.220 C 
ATOM      6  O   UNL     1      -2.304  -3.397   1.638  0.00  0.00    -0.275 OA
ATOM      7  N   UNL     1      -0.265  -2.996   0.959  0.00  0.00    -0.277 N 
ATOM      8  C   UNL     1       0.990  -3.462   0.550  0.00  0.00    +0.016 C 
ATOM      9  C   UNL     1       2.007  -2.635   0.486  0.00  0.00    -0.007 C 
ATOM     10  C   UNL     1       3.388  -3.109   0.074  0.00  0.00    +0.033 C 
ATOM     11  C   UNL     1       3.507  -4.529   0.631  0.00  0.00    +0.000 C 
ATOM     12  C   UNL     1       2.485  -5.393  -0.107  0.00  0.00    +0.004 C 
ATOM     13  C   UNL     1       2.725  -6.861   0.190  0.00  0.00    +0.005 C 
ATOM     14  C   UNL     1       4.087  -7.333  -0.349  0.00  0.00    +0.010 C 
ATOM     15  C   UNL     1       5.043  -6.189  -0.518  0.00  0.00    -0.000 C 
ATOM     16  C   UNL     1       4.876  -5.122   0.583  0.00  0.00    +0.001 C 
ATOM     17  C   UNL     1       6.042  -4.167   0.281  0.00  0.00    +0.007 C 
ATOM     18  C   UNL     1       7.190  -5.120  -0.148  0.00  0.00    +0.035 C 
ATOM     19  C   UNL     1       6.544  -6.513  -0.379  0.00  0.00    +0.069 C 
ATOM     20  C   UNL     1       6.831  -7.427   0.804  0.00  0.00    +0.042 C 
ATOM     21  C   UNL     1       4.887  -5.577  -1.921  0.00  0.00    +0.014 C 
ENDROOT
BRANCH  19  22
ATOM     22  O   UNL     1       7.026  -7.086  -1.594  0.00  0.00    -0.388 OA
ATOM     23  H   UNL     1       7.966  -7.314  -1.575  0.00  0.00    +0.210 HD
ENDBRANCH  19  22
BRANCH   7  24
ATOM     24  C   UNL     1      -0.579  -1.566   0.985  0.00  0.00    +0.095 C 
BRANCH  24  25
ATOM     25  C   UNL     1      -1.161  -1.147  -0.366  0.00  0.00    -0.060 C 
BRANCH  25  28
ATOM     26  C   UNL     1      -0.252   1.093  -0.222  0.00  0.00    -0.097 C 
ATOM     27  C   UNL     1      -2.249   0.679  -1.526  0.00  0.00    -0.097 C 
ATOM     28  N   UNL     1      -1.491   0.293  -0.317  0.00  0.00    +0.377 N 
ATOM     29  H   UNL     1      -2.070   0.474   0.511  0.00  0.00    -0.083 HD
ENDBRANCH  25  28
ENDBRANCH  24  25
ENDBRANCH   7  24
TORSDOF 4
