REMARK  Name = ZINC40149178
REMARK  5 active torsions:
REMARK  status: ('A' for Active; 'I' for Inactive)
REMARK    1  A    between atoms: N_9  and  C_12
REMARK    2  A    between atoms: C_12  and  C_13
REMARK    3  A    between atoms: N_16  and  C_19
REMARK    4  A    between atoms: C_19  and  N_20
REMARK    5  A    between atoms: C_25  and  C_27
REMARK                            x       y       z     vdW  Elec       q    Type
REMARK                         _______ _______ _______ _____ _____    ______ ____
ROOT
ATOM      1  C   UNL     1       3.959  -3.857  -1.501  0.00  0.00    +0.003 C 
ATOM      2  C   UNL     1       2.625  -4.195  -2.172  0.00  0.00    -0.014 C 
ATOM      3  C   UNL     1       2.888  -4.698  -3.593  0.00  0.00    -0.076 C 
ATOM      4  N   UNL     1       3.731  -5.899  -3.542  0.00  0.00    +0.393 N 
ATOM      5  C   UNL     1       5.038  -5.566  -2.965  0.00  0.00    -0.076 C 
ATOM      6  C   UNL     1       4.858  -5.096  -1.520  0.00  0.00    -0.014 C 
ATOM      7  H   UNL     1       3.281  -6.600  -2.972  0.00  0.00    -0.079 HD
ENDROOT
BRANCH   1   8
ATOM      8  C   UNL     1       3.709  -3.428  -0.053  0.00  0.00    +0.120 C 
BRANCH   8  17
ATOM      9  C   UNL     1      -0.017   1.382   0.010  0.00  0.00    +0.001 A 
ATOM     10  C   UNL     1       1.165   2.099   0.002  0.00  0.00    +0.001 A 
ATOM     11  C   UNL     1       2.385   1.442  -0.013  0.00  0.00    +0.014 A 
ATOM     12  C   UNL     1       2.420   0.056  -0.021  0.00  0.00    +0.049 A 
ATOM     13  C   UNL     1       1.215  -0.675  -0.013  0.00  0.00    +0.049 A 
ATOM     14  C   UNL     1       0.002  -0.004   0.002  0.00  0.00    +0.014 A 
ATOM     15  C   UNL     1       1.606  -2.100  -0.025  0.00  0.00    +0.254 C 
ATOM     16  O   UNL     1       0.843  -3.045  -0.023  0.00  0.00    -0.270 OA
ATOM     17  N   UNL     1       2.949  -2.175  -0.039  0.00  0.00    -0.234 N 
ATOM     18  C   UNL     1       3.503  -0.949  -0.038  0.00  0.00    +0.254 C 
ATOM     19  O   UNL     1       4.693  -0.709  -0.049  0.00  0.00    -0.270 OA
ENDBRANCH   8  17
ENDBRANCH   1   8
BRANCH   4  20
ATOM     20  C   UNL     1       3.917  -6.423  -4.902  0.00  0.00    +0.072 C 
BRANCH  20  21
ATOM     21  N   UNL     1       4.656  -7.686  -4.841  0.00  0.00    -0.257 N 
ATOM     22  C   UNL     1       5.954  -7.867  -5.163  0.00  0.00    +0.174 A 
ATOM     23  S   UNL     1       7.035  -6.661  -5.716  0.00  0.00    -0.012 S 
ATOM     24  N   UNL     1       6.245  -9.169  -4.970  0.00  0.00    -0.317 N 
ATOM     25  H   UNL     1       7.107  -9.587  -5.121  0.00  0.00    +0.169 HD
ATOM     26  C   UNL     1       5.105  -9.805  -4.519  0.00  0.00    +0.160 A 
ATOM     27  N   UNL     1       4.146  -8.926  -4.433  0.00  0.00    -0.153 NA
BRANCH  26  28
ATOM     28  C   UNL     1       4.993 -11.242  -4.186  0.00  0.00    +0.019 A 
ATOM     29  C   UNL     1       6.102 -12.079  -4.311  0.00  0.00    +0.013 A 
ATOM     30  C   UNL     1       5.992 -13.418  -3.997  0.00  0.00    +0.021 A 
ATOM     31  C   UNL     1       4.783 -13.932  -3.559  0.00  0.00    +0.041 A 
ATOM     32  C   UNL     1       3.679 -13.106  -3.433  0.00  0.00    +0.021 A 
ATOM     33  C   UNL     1       3.779 -11.765  -3.739  0.00  0.00    +0.013 A 
ATOM     34 CL   UNL     1       4.651 -15.618  -3.168  0.00  0.00    -0.084 Cl
ENDBRANCH  26  28
ENDBRANCH  20  21
ENDBRANCH   4  20
TORSDOF 5
