REMARK  Name = ZINC36602648
REMARK  12 active torsions:
REMARK  status: ('A' for Active; 'I' for Inactive)
REMARK    1  A    between atoms: C_1  and  C_2
REMARK    2  A    between atoms: C_3  and  C_4
REMARK    3  A    between atoms: C_4  and  C_6
REMARK    4  A    between atoms: C_4  and  N_20
REMARK    5  A    between atoms: N_8  and  C_9
REMARK    6  A    between atoms: C_9  and  S_10
REMARK    7  A    between atoms: S_10  and  C_13
REMARK    8  A    between atoms: C_16  and  C_19
REMARK    9  A    between atoms: N_20  and  C_21
REMARK   10  A    between atoms: C_21  and  C_22
REMARK   11  A    between atoms: C_25  and  C_27
REMARK   12  A    between atoms: C_28  and  C_30
REMARK                            x       y       z     vdW  Elec       q    Type
REMARK                         _______ _______ _______ _____ _____    ______ ____
ROOT
ATOM      1  C   UNL     1       2.470  -3.555  -2.379  0.00  0.00    +0.186 C 
ENDROOT
BRANCH   1   2
ATOM      2  C   UNL     1       1.602  -3.954  -3.545  0.00  0.00    +0.239 C 
ATOM      3  O   UNL     1       0.852  -4.902  -3.445  0.00  0.00    -0.273 OA
ATOM      4  N   UNL     1       1.661  -3.259  -4.698  0.00  0.00    -0.294 N 
ATOM      5  H   UNL     1       2.353  -2.591  -4.827  0.00  0.00    +0.150 HD
BRANCH   4   6
ATOM      6  C   UNL     1       0.679  -3.511  -5.756  0.00  0.00    +0.278 C 
BRANCH   6   7
ATOM      7  S   UNL     1      -0.656  -2.288  -5.646  0.00  0.00    +0.013 S 
ATOM      8  O   UNL     1      -1.604  -2.504  -6.683  0.00  0.00    -0.168 OA
ATOM      9  O   UNL     1      -1.078  -2.144  -4.297  0.00  0.00    -0.168 OA
BRANCH   7  10
ATOM     10  C   UNL     1       0.105  -0.750  -6.046  0.00  0.00    +0.090 A 
ATOM     11  C   UNL     1       0.101   0.282  -5.126  0.00  0.00    +0.027 A 
ATOM     12  C   UNL     1       0.698   1.489  -5.440  0.00  0.00    +0.005 A 
ATOM     13  C   UNL     1       1.299   1.663  -6.672  0.00  0.00    -0.050 A 
ATOM     14  C   UNL     1       1.304   0.631  -7.591  0.00  0.00    +0.005 A 
ATOM     15  C   UNL     1       0.711  -0.578  -7.276  0.00  0.00    +0.027 A 
ATOM     16  C   UNL     1       1.949   2.979  -7.014  0.00  0.00    +0.044 C 
ENDBRANCH   7  10
ENDBRANCH   6   7
ENDBRANCH   4   6
ENDBRANCH   1   2
BRANCH   1  19
ATOM     17  C   UNL     1       0.984  -1.253   0.312  0.00  0.00    +0.035 C 
ATOM     18  C   UNL     1       1.601  -2.434  -0.392  0.00  0.00    -0.032 C 
ATOM     19  C   UNL     1       1.853  -2.373  -1.676  0.00  0.00    +0.000 C 
ENDBRANCH   1  19
BRANCH   1  20
ATOM     20  N   UNL     1       2.579  -4.678  -1.444  0.00  0.00    -0.275 N 
ATOM     21  C   UNL     1       1.465  -5.269  -0.969  0.00  0.00    +0.249 C 
ATOM     22  O   UNL     1       1.493  -6.438  -0.635  0.00  0.00    -0.270 OA
BRANCH  21  23
ATOM     23  C   UNL     1       0.211  -4.497  -0.853  0.00  0.00    +0.055 A 
ATOM     24  C   UNL     1      -0.038  -3.429  -1.717  0.00  0.00    +0.014 A 
ATOM     25  C   UNL     1      -1.211  -2.713  -1.604  0.00  0.00    +0.001 A 
ATOM     26  C   UNL     1      -2.142  -3.050  -0.636  0.00  0.00    +0.001 A 
ATOM     27  C   UNL     1      -1.903  -4.107   0.224  0.00  0.00    +0.021 A 
ATOM     28  C   UNL     1      -0.735  -4.837   0.118  0.00  0.00    +0.053 A 
ATOM     29 CL   UNL     1      -0.440  -6.168   1.193  0.00  0.00    -0.083 Cl
ENDBRANCH  21  23
BRANCH  20  30
ATOM     30  C   UNL     1       3.899  -5.157  -1.026  0.00  0.00    +0.183 C 
BRANCH  30  31
ATOM     31  C   UNL     1       4.335  -4.413   0.209  0.00  0.00    +0.122 A 
ATOM     32  C   UNL     1       4.094  -4.787   1.479  0.00  0.00    +0.046 A 
ATOM     33  C   UNL     1       4.679  -3.806   2.313  0.00  0.00    +0.045 A 
ATOM     34  C   UNL     1       5.242  -2.892   1.503  0.00  0.00    +0.102 A 
ATOM     35  O   UNL     1       5.036  -3.268   0.230  0.00  0.00    -0.463 OA
ATOM     36  C   UNL     1       5.984  -1.658   1.949  0.00  0.00    +0.086 C 
ENDBRANCH  30  31
ENDBRANCH  20  30
ENDBRANCH   1  20
TORSDOF 9
