REMARK  Name = ZINC15015798
REMARK  8 active torsions:
REMARK  status: ('A' for Active; 'I' for Inactive)
REMARK    1  A    between atoms: C_1  and  C_2
REMARK    2  A    between atoms: C_2  and  S_3
REMARK    3  A    between atoms: S_3  and  C_4
REMARK    4  A    between atoms: C_17  and  C_20
REMARK    5  A    between atoms: C_22  and  O_29
REMARK    6  A    between atoms: C_23  and  O_27
REMARK    7  A    between atoms: O_27  and  C_28
REMARK    8  A    between atoms: O_29  and  C_30
REMARK                            x       y       z     vdW  Elec       q    Type
REMARK                         _______ _______ _______ _____ _____    ______ ____
ROOT
ATOM      1  C   UNL     1      -3.901   0.312  -2.019  0.00  0.00    +0.212 A 
ATOM      2  N   UNL     1      -2.573   0.376  -1.982  0.00  0.00    -0.184 NA
ATOM      3  C   UNL     1      -1.991   1.332  -1.280  0.00  0.00    +0.248 A 
ATOM      4  C   UNL     1      -2.804   2.255  -0.584  0.00  0.00    +0.156 A 
ATOM      5  N   UNL     1      -4.121   2.139  -0.666  0.00  0.00    -0.141 NA
ATOM      6  N   UNL     1      -4.647   1.193  -1.364  0.00  0.00    -0.122 NA
ATOM      7  C   UNL     1      -2.174   3.323   0.219  0.00  0.00    +0.029 A 
ATOM      8  C   UNL     1      -2.584   4.647   0.119  0.00  0.00    +0.027 A 
ATOM      9  C   UNL     1      -1.977   5.614   0.897  0.00  0.00    +0.019 A 
ATOM     10  C   UNL     1      -0.963   5.272   1.777  0.00  0.00    +0.017 A 
ATOM     11  C   UNL     1      -0.542   3.959   1.882  0.00  0.00    +0.025 A 
ATOM     12  C   UNL     1      -1.135   2.981   1.105  0.00  0.00    +0.040 A 
ATOM     13  N   UNL     1      -0.712   1.649   1.159  0.00  0.00    -0.305 N 
ATOM     14  C   UNL     1      -0.013   1.086   0.008  0.00  0.00    +0.295 C 
ATOM     15  O   UNL     1      -0.643   1.441  -1.218  0.00  0.00    -0.449 OA
ATOM     16 BR   UNL     1      -2.534   7.416   0.761  0.00  0.00    -0.050 Br
ATOM     17  H   UNL     1      -0.879   1.110   1.948  0.00  0.00    +0.150 HD
ENDROOT
BRANCH  14  18
ATOM     18  C   UNL     1       1.405   1.596  -0.003  0.00  0.00    +0.033 A 
ATOM     19  C   UNL     1       1.742   2.683  -0.788  0.00  0.00    +0.059 A 
ATOM     20  C   UNL     1       3.045   3.153  -0.800  0.00  0.00    +0.162 A 
ATOM     21  C   UNL     1       4.014   2.529  -0.019  0.00  0.00    +0.163 A 
ATOM     22  C   UNL     1       3.671   1.440   0.766  0.00  0.00    +0.069 A 
ATOM     23  C   UNL     1       2.367   0.979   0.777  0.00  0.00    +0.053 A 
ATOM     24 CL   UNL     1       1.937  -0.381   1.767  0.00  0.00    -0.083 Cl
BRANCH  21  25
ATOM     25  O   UNL     1       5.294   2.987  -0.028  0.00  0.00    -0.491 OA
ATOM     26  C   UNL     1       6.235   2.297   0.797  0.00  0.00    +0.277 C 
ENDBRANCH  21  25
BRANCH  20  27
ATOM     27  O   UNL     1       3.377   4.222  -1.572  0.00  0.00    -0.491 OA
ATOM     28  C   UNL     1       2.331   4.812  -2.348  0.00  0.00    +0.277 C 
ENDBRANCH  20  27
ENDBRANCH  14  18
BRANCH   1  29
ATOM     29  S   UNL     1      -4.683  -0.961  -2.954  0.00  0.00    -0.085 S 
BRANCH  29  31
ATOM     30  C   UNL     1      -7.314  -1.559  -3.376  0.00  0.00    +0.016 C 
ATOM     31  C   UNL     1      -6.420  -0.558  -2.643  0.00  0.00    +0.074 C 
ENDBRANCH  29  31
ENDBRANCH   1  29
TORSDOF 5
