REMARK  Name = ZINC40008264
REMARK  6 active torsions:
REMARK  status: ('A' for Active; 'I' for Inactive)
REMARK    1  A    between atoms: C_1  and  C_2
REMARK    2  A    between atoms: C_2  and  C_3
REMARK    3  A    between atoms: C_3  and  O_4
REMARK    4  A    between atoms: O_4  and  C_5
REMARK    5  A    between atoms: C_8  and  C_11
REMARK    6  A    between atoms: C_18  and  C_37
REMARK                            x       y       z     vdW  Elec       q    Type
REMARK                         _______ _______ _______ _____ _____    ______ ____
ROOT
ATOM      1  C   UNL     1      -6.397  -4.588   0.038  0.00  0.00    +0.151 C 
ATOM      2  C   UNL     1      -6.738  -5.064  -1.336  0.00  0.00    +0.072 A 
ATOM      3  C   UNL     1      -6.949  -4.331  -2.588  0.00  0.00    +0.199 A 
ATOM      4  O   UNL     1      -6.695  -3.147  -2.719  0.00  0.00    -0.287 OA
ATOM      5  C   UNL     1      -7.500  -5.170  -3.682  0.00  0.00    +0.065 A 
ATOM      6  C   UNL     1      -7.941  -4.584  -4.868  0.00  0.00    +0.018 A 
ATOM      7  C   UNL     1      -8.451  -5.370  -5.864  0.00  0.00    -0.050 A 
ATOM      8  C   UNL     1      -8.531  -6.745  -5.697  0.00  0.00    +0.007 A 
ATOM      9  C   UNL     1      -8.099  -7.341  -4.534  0.00  0.00    +0.047 A 
ATOM     10  C   UNL     1      -7.572  -6.561  -3.504  0.00  0.00    +0.139 A 
ATOM     11  O   UNL     1      -7.144  -7.168  -2.373  0.00  0.00    -0.450 OA
ATOM     12  C   UNL     1      -6.849  -6.425  -1.289  0.00  0.00    +0.199 A 
ATOM     13  C   UNL     1      -6.595  -6.862   0.095  0.00  0.00    +0.289 C 
ATOM     14  O   UNL     1      -6.621  -8.015   0.476  0.00  0.00    -0.266 OA
ATOM     15  N   UNL     1      -6.330  -5.795   0.878  0.00  0.00    -0.232 N 
ATOM     16  C   UNL     1      -6.043  -5.829   2.231  0.00  0.00    +0.169 A 
ATOM     17  N   UNL     1      -5.783  -4.830   3.043  0.00  0.00    -0.224 NA
ATOM     18  C   UNL     1      -5.518  -5.011   4.355  0.00  0.00    +0.080 A 
ATOM     19  C   UNL     1      -5.224  -4.030   5.330  0.00  0.00    +0.030 A 
ATOM     20  C   UNL     1      -4.976  -4.386   6.630  0.00  0.00    +0.022 A 
ATOM     21  C   UNL     1      -5.005  -5.713   7.036  0.00  0.00    +0.042 A 
ATOM     22  C   UNL     1      -5.290  -6.699   6.109  0.00  0.00    +0.037 A 
ATOM     23  C   UNL     1      -5.539  -6.351   4.804  0.00  0.00    +0.042 A 
ATOM     24  S   UNL     1      -5.942  -7.242   3.321  0.00  0.00    -0.052 S 
ATOM     25 CL   UNL     1      -4.686  -6.131   8.691  0.00  0.00    -0.084 Cl
ATOM     26  C   UNL     1      -8.929  -4.740  -7.147  0.00  0.00    +0.044 C 
ENDROOT
BRANCH   1  30
ATOM     27  C   UNL     1      -2.616  -2.596   0.013  0.00  0.00    +0.121 A 
ATOM     28  C   UNL     1      -3.791  -1.857   0.022  0.00  0.00    +0.046 A 
ATOM     29  C   UNL     1      -5.012  -2.504   0.030  0.00  0.00    +0.009 A 
ATOM     30  C   UNL     1      -5.064  -3.885   0.029  0.00  0.00    -0.022 A 
ATOM     31  C   UNL     1      -3.895  -4.624   0.020  0.00  0.00    +0.009 A 
ATOM     32  C   UNL     1      -2.671  -3.982   0.006  0.00  0.00    +0.046 A 
BRANCH  27  33
ATOM     33  O   UNL     1      -1.414  -1.962   0.005  0.00  0.00    -0.492 OA
BRANCH  33  34
ATOM     34  C   UNL     1      -1.433  -0.534   0.013  0.00  0.00    +0.229 C 
BRANCH  34  36
ATOM     35  C   UNL     1      -0.019   1.526   0.010  0.00  0.00    +0.007 C 
ATOM     36  C   UNL     1       0.002  -0.004   0.002  0.00  0.00    +0.038 C 
ENDBRANCH  34  36
ENDBRANCH  33  34
ENDBRANCH  27  33
ENDBRANCH   1  30
TORSDOF 4
