REMARK  Name = ZINC20990103
REMARK  10 active torsions:
REMARK  status: ('A' for Active; 'I' for Inactive)
REMARK    1  A    between atoms: C_1  and  C_2
REMARK    2  A    between atoms: C_5  and  C_8
REMARK    3  A    between atoms: C_8  and  N_9
REMARK    4  A    between atoms: C_12  and  C_15
REMARK    5  A    between atoms: C_15  and  N_16
REMARK    6  A    between atoms: N_16  and  S_17
REMARK    7  A    between atoms: S_17  and  C_20
REMARK    8  A    between atoms: C_25  and  C_26
REMARK    9  A    between atoms: C_32  and  C_36
REMARK   10  A    between atoms: C_32  and  C_37
REMARK                            x       y       z     vdW  Elec       q    Type
REMARK                         _______ _______ _______ _____ _____    ______ ____
ROOT
ATOM      1  S   UNL     1      -3.098   1.507  -0.031  0.00  0.00    +0.059 S 
ATOM      2  O   UNL     1      -2.891   0.125  -0.286  0.00  0.00    -0.153 OA
ATOM      3  O   UNL     1      -4.374   2.039   0.299  0.00  0.00    -0.153 OA
ENDROOT
BRANCH   1   4
ATOM      4  C   UNL     1      -2.015   1.944   1.289  0.00  0.00    +0.110 A 
ATOM      5  C   UNL     1      -1.241   0.973   1.887  0.00  0.00    +0.055 A 
ATOM      6  C   UNL     1      -0.388   1.308   2.932  0.00  0.00    +0.049 A 
ATOM      7  C   UNL     1      -0.321   2.645   3.366  0.00  0.00    +0.011 A 
ATOM      8  C   UNL     1      -1.106   3.615   2.748  0.00  0.00    +0.016 A 
ATOM      9  C   UNL     1      -1.944   3.262   1.713  0.00  0.00    -0.023 A 
ATOM     10  C   UNL     1      -2.793   4.312   1.044  0.00  0.00    +0.046 C 
ATOM     11  C   UNL     1       0.653   2.653   4.460  0.00  0.00    +0.046 A 
ATOM     12  C   UNL     1       1.100   1.348   4.605  0.00  0.00    +0.028 A 
ATOM     13  N   UNL     1       0.483   0.567   3.709  0.00  0.00    -0.357 N 
ATOM     14  H   UNL     1       0.588  -0.515   3.539  0.00  0.00    +0.166 HD
ATOM     15  C   UNL     1       2.130   0.969   5.644  0.00  0.00    +0.060 C 
ATOM     16  C   UNL     1       2.988   2.206   5.935  0.00  0.00    -0.023 C 
ATOM     17  C   UNL     1       2.109   3.379   6.367  0.00  0.00    +0.086 C 
ATOM     18  C   UNL     1       1.119   3.715   5.272  0.00  0.00    +0.166 C 
ATOM     19  O   UNL     1       0.739   4.854   5.096  0.00  0.00    -0.292 OA
ATOM     20  C   UNL     1       3.762   2.592   4.673  0.00  0.00    +0.011 C 
ATOM     21  C   UNL     1       3.979   1.880   7.054  0.00  0.00    +0.011 C 
ENDBRANCH   1   4
BRANCH   1  22
ATOM     22  N   UNL     1      -2.581   2.320  -1.378  0.00  0.00    -0.190 NA
ATOM     23  H   UNL     1      -3.137   3.206  -1.718  0.00  0.00    +0.148 HD
BRANCH  22  24
ATOM     24  C   UNL     1      -1.283   1.997  -1.975  0.00  0.00    +0.107 C 
BRANCH  24  28
ATOM     25  N   UNL     1       0.619   3.371  -4.804  0.00  0.00    +0.383 N 
ATOM     26  C   UNL     1      -0.323   4.492  -4.600  0.00  0.00    -0.078 C 
ATOM     27  C   UNL     1      -1.051   4.162  -3.273  0.00  0.00    -0.016 C 
ATOM     28  C   UNL     1      -1.193   2.620  -3.369  0.00  0.00    -0.014 C 
ATOM     29  C   UNL     1       0.112   2.194  -4.075  0.00  0.00    -0.074 C 
ATOM     30  H   UNL     1       1.613   3.644  -4.419  0.00  0.00    -0.081 HD
BRANCH  25  31
ATOM     31  C   UNL     1       0.783   3.075  -6.233  0.00  0.00    -0.043 C 
BRANCH  31  36
ATOM     32  C   UNL     1       3.633   7.407  -8.782  0.00  0.00    +0.044 C 
ATOM     33  C   UNL     1       2.889   6.277  -8.118  0.00  0.00    -0.050 A 
ATOM     34  C   UNL     1       3.588   5.213  -7.580  0.00  0.00    +0.003 A 
ATOM     35  C   UNL     1       2.906   4.176  -6.970  0.00  0.00    +0.002 A 
ATOM     36  C   UNL     1       1.526   4.204  -6.898  0.00  0.00    -0.064 A 
ATOM     37  C   UNL     1       0.827   5.266  -7.441  0.00  0.00    +0.002 A 
ATOM     38  C   UNL     1       1.509   6.305  -8.047  0.00  0.00    +0.003 A 
ENDBRANCH  31  36
ENDBRANCH  25  31
ENDBRANCH  24  28
ENDBRANCH  22  24
ENDBRANCH   1  22
TORSDOF 6
