REMARK  Name = ZINC57642239
REMARK  11 active torsions:
REMARK  status: ('A' for Active; 'I' for Inactive)
REMARK    1  A    between atoms: C_1  and  C_2
REMARK    2  A    between atoms: C_2  and  C_3
REMARK    3  A    between atoms: C_3  and  C_5
REMARK    4  A    between atoms: C_3  and  N_16
REMARK    5  A    between atoms: N_9  and  C_10
REMARK    6  A    between atoms: N_16  and  C_17
REMARK    7  A    between atoms: N_16  and  C_27
REMARK    8  A    between atoms: C_17  and  C_18
REMARK    9  A    between atoms: C_27  and  C_28
REMARK   10  A    between atoms: C_31  and  C_41
REMARK   11  A    between atoms: C_34  and  C_40
REMARK                            x       y       z     vdW  Elec       q    Type
REMARK                         _______ _______ _______ _____ _____    ______ ____
ROOT
ATOM      1  N   UNL     1       1.842   0.082  -1.047  0.00  0.00    -0.284 NA
ENDROOT
BRANCH   1   2
ATOM      2  C   UNL     1       0.592  -0.563  -1.469  0.00  0.00    +0.127 C 
BRANCH   2   3
ATOM      3  C   UNL     1      -0.500  -0.234  -0.484  0.00  0.00    +0.169 A 
ATOM      4  N   UNL     1      -0.791   0.950  -0.004  0.00  0.00    -0.112 NA
ATOM      5  N   UNL     1      -1.784   0.819   0.806  0.00  0.00    -0.023 NA
ATOM      6  N   UNL     1      -2.135  -0.419   0.855  0.00  0.00    -0.044 NA
ATOM      7  N   UNL     1      -1.371  -1.099   0.069  0.00  0.00    -0.225 N 
BRANCH   7   8
ATOM      8  C   UNL     1      -1.436  -2.543  -0.173  0.00  0.00    +0.111 C 
ATOM      9  C   UNL     1      -2.808  -2.902  -0.746  0.00  0.00    +0.027 C 
ATOM     10  C   UNL     1      -2.876  -4.410  -0.998  0.00  0.00    +0.002 C 
ATOM     11  C   UNL     1      -2.662  -5.158   0.319  0.00  0.00    +0.000 C 
ATOM     12  C   UNL     1      -1.289  -4.798   0.892  0.00  0.00    +0.002 C 
ATOM     13  C   UNL     1      -1.221  -3.291   1.145  0.00  0.00    +0.027 C 
ENDBRANCH   7   8
ENDBRANCH   2   3
BRANCH   2  15
ATOM     14  C   UNL     1       1.269  -0.456  -3.872  0.00  0.00    +0.006 C 
ATOM     15  C   UNL     1       0.198  -0.053  -2.857  0.00  0.00    +0.023 C 
ENDBRANCH   2  15
ENDBRANCH   1   2
BRANCH   1  16
ATOM     16  C   UNL     1       2.372  -0.544   0.172  0.00  0.00    +0.120 C 
BRANCH  16  17
ATOM     17  C   UNL     1       3.006  -1.865  -0.176  0.00  0.00    -0.030 A 
ATOM     18  C   UNL     1       2.233  -3.011  -0.223  0.00  0.00    +0.009 A 
ATOM     19  C   UNL     1       2.811  -4.226  -0.543  0.00  0.00    +0.050 A 
ATOM     20  C   UNL     1       4.167  -4.298  -0.817  0.00  0.00    +0.166 A 
ATOM     21  C   UNL     1       4.945  -3.144  -0.770  0.00  0.00    +0.167 A 
ATOM     22  C   UNL     1       4.359  -1.929  -0.455  0.00  0.00    +0.054 A 
ATOM     23  O   UNL     1       6.234  -3.475  -1.075  0.00  0.00    -0.453 OA
ATOM     24  C   UNL     1       6.314  -4.903  -0.909  0.00  0.00    +0.466 C 
ATOM     25  O   UNL     1       4.967  -5.351  -1.152  0.00  0.00    -0.453 OA
ENDBRANCH  16  17
ENDBRANCH   1  16
BRANCH   1  26
ATOM     26  C   UNL     1       1.652   1.526  -0.858  0.00  0.00    +0.126 C 
BRANCH  26  27
ATOM     27  C   UNL     1       2.993   2.212  -0.846  0.00  0.00    +0.032 A 
ATOM     28  C   UNL     1       3.499   2.725  -1.995  0.00  0.00    +0.020 A 
ATOM     29  C   UNL     1       4.805   3.386  -1.950  0.00  0.00    +0.002 A 
ATOM     30  C   UNL     1       5.378   3.936  -3.102  0.00  0.00    -0.041 A 
ATOM     31  C   UNL     1       6.598   4.546  -3.026  0.00  0.00    +0.004 A 
ATOM     32  C   UNL     1       7.274   4.626  -1.817  0.00  0.00    +0.005 A 
ATOM     33  C   UNL     1       6.729   4.092  -0.669  0.00  0.00    -0.026 A 
ATOM     34  C   UNL     1       5.487   3.466  -0.722  0.00  0.00    +0.052 A 
ATOM     35  N   UNL     1       4.918   2.924   0.411  0.00  0.00    -0.322 N 
ATOM     36  H   UNL     1       5.389   2.980   1.257  0.00  0.00    +0.169 HD
ATOM     37  C   UNL     1       3.716   2.324   0.361  0.00  0.00    +0.254 A 
ATOM     38  O   UNL     1       3.240   1.860   1.383  0.00  0.00    -0.268 OA
ATOM     39  C   UNL     1       7.474   4.186   0.637  0.00  0.00    +0.046 C 
ATOM     40  C   UNL     1       4.653   3.853  -4.421  0.00  0.00    +0.044 C 
ENDBRANCH  26  27
ENDBRANCH   1  26
TORSDOF 8
