REMARK  Name = ZINC35890804
REMARK  13 active torsions:
REMARK  status: ('A' for Active; 'I' for Inactive)
REMARK    1  A    between atoms: C_1  and  C_2
REMARK    2  A    between atoms: C_6  and  O_8
REMARK    3  A    between atoms: O_8  and  C_9
REMARK    4  A    between atoms: C_9  and  C_11
REMARK    5  A    between atoms: C_9  and  C_30
REMARK    6  A    between atoms: C_11  and  N_12
REMARK    7  A    between atoms: N_12  and  C_13
REMARK    8  A    between atoms: N_12  and  C_23
REMARK    9  A    between atoms: C_13  and  C_14
REMARK   10  A    between atoms: C_23  and  C_24
REMARK   11  A    between atoms: N_32  and  C_33
REMARK   12  A    between atoms: N_32  and  C_34
REMARK   13  A    between atoms: C_34  and  C_35
REMARK                            x       y       z     vdW  Elec       q    Type
REMARK                         _______ _______ _______ _____ _____    ______ ____
ROOT
ATOM      1  C   UNL     1      -0.156  -5.044   2.373  0.00  0.00    +0.242 C 
ENDROOT
BRANCH   1   2
ATOM      2  C   UNL     1      -0.017  -5.274   3.856  0.00  0.00    +0.254 C 
ATOM      3  O   UNL     1       0.399  -4.387   4.571  0.00  0.00    -0.272 OA
ATOM      4  N   UNL     1      -0.356  -6.465   4.388  0.00  0.00    -0.297 N 
ATOM      5  C   UNL     1      -0.737  -7.577   3.513  0.00  0.00    +0.132 C 
BRANCH   4   6
ATOM      6  C   UNL     1      -0.342  -6.649   5.841  0.00  0.00    +0.142 C 
BRANCH   6   7
ATOM      7  C   UNL     1      -1.695  -6.297   6.405  0.00  0.00    -0.030 A 
ATOM      8  C   UNL     1      -1.964  -5.000   6.798  0.00  0.00    +0.005 A 
ATOM      9  C   UNL     1      -3.205  -4.677   7.315  0.00  0.00    +0.000 A 
ATOM     10  C   UNL     1      -4.177  -5.652   7.438  0.00  0.00    +0.000 A 
ATOM     11  C   UNL     1      -3.909  -6.949   7.044  0.00  0.00    +0.000 A 
ATOM     12  C   UNL     1      -2.669  -7.271   6.523  0.00  0.00    +0.005 A 
ENDBRANCH   6   7
ENDBRANCH   4   6
ENDBRANCH   1   2
BRANCH   1  13
ATOM     13  O   UNL     1       0.522  -3.840   2.012  0.00  0.00    -0.481 OA
BRANCH  13  19
ATOM     14  C   UNL     1       4.672  -1.704   0.584  0.00  0.00    +0.044 C 
ATOM     15  C   UNL     1       3.896  -2.926   1.002  0.00  0.00    -0.047 A 
ATOM     16  C   UNL     1       4.526  -4.156   1.069  0.00  0.00    +0.003 A 
ATOM     17  C   UNL     1       3.817  -5.279   1.453  0.00  0.00    +0.004 A 
ATOM     18  C   UNL     1       2.476  -5.175   1.769  0.00  0.00    +0.046 A 
ATOM     19  C   UNL     1       1.841  -3.944   1.702  0.00  0.00    +0.122 A 
ATOM     20  C   UNL     1       2.557  -2.817   1.323  0.00  0.00    +0.049 A 
ENDBRANCH  13  19
ENDBRANCH   1  13
BRANCH   1  21
ATOM     21  C   UNL     1      -1.638  -4.923   2.013  0.00  0.00    -0.023 C 
BRANCH  21  22
ATOM     22  N   UNL     1      -1.770  -4.611   0.583  0.00  0.00    +0.387 N 
ATOM     23  H   UNL     1      -1.226  -3.789   0.366  0.00  0.00    -0.081 HD
BRANCH  22  24
ATOM     24  C   UNL     1      -3.182  -4.362   0.265  0.00  0.00    -0.043 C 
BRANCH  24  25
ATOM     25  C   UNL     1      -3.308  -3.967  -1.185  0.00  0.00    -0.060 A 
ATOM     26  C   UNL     1      -3.172  -2.642  -1.553  0.00  0.00    +0.005 A 
ATOM     27  C   UNL     1      -3.287  -2.275  -2.881  0.00  0.00    +0.050 A 
ATOM     28  C   UNL     1      -3.538  -3.236  -3.846  0.00  0.00    +0.166 A 
ATOM     29  C   UNL     1      -3.676  -4.572  -3.475  0.00  0.00    +0.166 A 
ATOM     30  C   UNL     1      -3.554  -4.932  -2.143  0.00  0.00    +0.051 A 
ATOM     31  O   UNL     1      -3.917  -5.313  -4.596  0.00  0.00    -0.453 OA
ATOM     32  C   UNL     1      -4.331  -4.369  -5.600  0.00  0.00    +0.466 C 
ATOM     33  O   UNL     1      -3.694  -3.141  -5.199  0.00  0.00    -0.453 OA
ENDBRANCH  24  25
ENDBRANCH  22  24
BRANCH  22  34
ATOM     34  C   UNL     1      -1.282  -5.745  -0.212  0.00  0.00    -0.046 C 
BRANCH  34  35
ATOM     35  C   UNL     1      -2.061  -7.006   0.166  0.00  0.00    +0.102 C 
ATOM     36  C   UNL     1      -1.407  -8.242  -0.489  0.00  0.00    +0.032 C 
ATOM     37  C   UNL     1      -2.642  -9.085  -0.910  0.00  0.00    +0.030 C 
ATOM     38  C   UNL     1      -3.650  -7.966  -1.274  0.00  0.00    +0.160 C 
ATOM     39  O   UNL     1      -3.403  -6.914  -0.325  0.00  0.00    -0.378 OA
ENDBRANCH  34  35
ENDBRANCH  22  34
ENDBRANCH  21  22
ENDBRANCH   1  21
TORSDOF 11
