REMARK  Name = ZINC20136715
REMARK  11 active torsions:
REMARK  status: ('A' for Active; 'I' for Inactive)
REMARK    1  A    between atoms: C_1  and  C_2
REMARK    2  A    between atoms: C_2  and  O_3
REMARK    3  A    between atoms: O_3  and  C_4
REMARK    4  A    between atoms: C_4  and  C_6
REMARK    5  A    between atoms: C_7  and  C_31
REMARK    6  A    between atoms: C_9  and  S_20
REMARK    7  A    between atoms: C_10  and  C_18
REMARK    8  A    between atoms: C_11  and  C_13
REMARK    9  A    between atoms: S_20  and  C_21
REMARK   10  A    between atoms: C_21  and  C_22
REMARK   11  A    between atoms: N_24  and  C_25
REMARK                            x       y       z     vdW  Elec       q    Type
REMARK                         _______ _______ _______ _____ _____    ______ ____
ROOT
ATOM      1  C   UNL     1       1.881  -0.426   9.407  0.00  0.00    +0.074 C 
ATOM      2  C   UNL     1       2.226  -0.871   8.170  0.00  0.00    +0.050 C 
ATOM      3  N   UNL     1       1.258  -1.164   7.234  0.00  0.00    -0.308 N 
ATOM      4  C   UNL     1      -0.018  -0.672   7.387  0.00  0.00    +0.080 C 
ATOM      5  C   UNL     1      -0.447  -0.219   8.595  0.00  0.00    +0.072 C 
ATOM      6  C   UNL     1       0.445  -0.239   9.803  0.00  0.00    +0.136 C 
ATOM      7  H   UNL     1       1.506  -1.790   6.364  0.00  0.00    +0.153 HD
ENDROOT
BRANCH   2   8
ATOM      8  C   UNL     1       3.651  -1.049   7.829  0.00  0.00    -0.003 A 
ATOM      9  C   UNL     1       4.243  -0.248   6.849  0.00  0.00    +0.010 A 
ATOM     10  C   UNL     1       5.577  -0.416   6.540  0.00  0.00    +0.001 A 
ATOM     11  C   UNL     1       6.325  -1.382   7.188  0.00  0.00    +0.000 A 
ATOM     12  C   UNL     1       5.744  -2.184   8.155  0.00  0.00    +0.001 A 
ATOM     13  C   UNL     1       4.412  -2.023   8.479  0.00  0.00    +0.010 A 
ENDBRANCH   2   8
BRANCH   6  14
ATOM     14  C   UNL     1       0.030  -1.373  10.706  0.00  0.00    +0.118 A 
ATOM     15  C   UNL     1      -0.389  -1.252  11.979  0.00  0.00    +0.045 A 
ATOM     16  C   UNL     1      -0.672  -2.557  12.442  0.00  0.00    +0.041 A 
ATOM     17  C   UNL     1      -0.409  -3.398  11.425  0.00  0.00    +0.195 A 
ATOM     18  O   UNL     1       0.010  -2.674  10.374  0.00  0.00    -0.467 OA
ENDBRANCH   6  14
BRANCH   1  19
ATOM     19  C   UNL     1       2.895  -0.133  10.339  0.00  0.00    +0.338 C 
ATOM     20  O   UNL     1       4.064  -0.166   9.998  0.00  0.00    -0.245 OA
BRANCH  19  21
ATOM     21  O   UNL     1       2.572   0.185  11.611  0.00  0.00    -0.462 OA
BRANCH  21  23
ATOM     22  C   UNL     1       3.093   0.807  13.887  0.00  0.00    +0.048 C 
ATOM     23  C   UNL     1       3.651   0.471  12.503  0.00  0.00    +0.229 C 
ENDBRANCH  21  23
ENDBRANCH  19  21
ENDBRANCH   1  19
BRANCH   5  24
ATOM     24  C   UNL     1      -1.780   0.290   8.718  0.00  0.00    +0.098 C 
ATOM     25  N   UNL     1      -2.837   0.694   8.816  0.00  0.00    -0.191 NA
ENDBRANCH   5  24
BRANCH   4  26
ATOM     26  S   UNL     1      -1.111  -0.636   6.005  0.00  0.00    -0.100 S 
BRANCH  26  27
ATOM     27  C   UNL     1      -0.029  -1.334   4.732  0.00  0.00    +0.171 C 
BRANCH  27  28
ATOM     28  C   UNL     1      -0.773  -1.402   3.423  0.00  0.00    +0.223 C 
ATOM     29  O   UNL     1      -1.921  -1.016   3.358  0.00  0.00    -0.275 OA
ATOM     30  N   UNL     1      -0.163  -1.891   2.326  0.00  0.00    -0.312 N 
ATOM     31  H   UNL     1       0.878  -2.241   2.385  0.00  0.00    +0.149 HD
BRANCH  30  32
ATOM     32  C   UNL     1      -0.886  -1.957   1.053  0.00  0.00    +0.073 C 
ATOM     33  C   UNL     1      -0.278  -3.054   0.177  0.00  0.00    +0.022 C 
ATOM     34  C   UNL     1      -1.033  -3.122  -1.152  0.00  0.00    +0.002 C 
ATOM     35  C   UNL     1      -0.924  -1.776  -1.871  0.00  0.00    +0.000 C 
ATOM     36  C   UNL     1      -1.533  -0.679  -0.994  0.00  0.00    +0.002 C 
ATOM     37  C   UNL     1      -0.777  -0.611   0.335  0.00  0.00    +0.022 C 
ENDBRANCH  30  32
ENDBRANCH  27  28
ENDBRANCH  26  27
ENDBRANCH   4  26
TORSDOF 10
