REMARK  Name = ZINC09948723
REMARK  6 active torsions:
REMARK  status: ('A' for Active; 'I' for Inactive)
REMARK    1  A    between atoms: C_1  and  C_2
REMARK    2  A    between atoms: C_5  and  O_8
REMARK    3  A    between atoms: O_8  and  C_9
REMARK    4  A    between atoms: C_9  and  C_10
REMARK    5  A    between atoms: N_12  and  N_13
REMARK    6  A    between atoms: N_13  and  C_14
REMARK                            x       y       z     vdW  Elec       q    Type
REMARK                         _______ _______ _______ _____ _____    ______ ____
ROOT
ATOM      1  N   UNL     1       0.123  -8.492   1.916  0.00  0.00    -0.271 N 
ATOM      2  H   UNL     1       0.123  -8.858   1.018  0.00  0.00    +0.169 HD
ENDROOT
BRANCH   1   3
ATOM      3  C   UNL     1       0.139  -9.313   2.973  0.00  0.00    +0.100 C 
ATOM      4  C   UNL     1       0.156 -10.702   2.782  0.00  0.00    +0.053 C 
ATOM      5  C   UNL     1       0.162 -11.240   1.488  0.00  0.00    +0.024 C 
ATOM      6  C   UNL     1       0.180 -12.634   1.353  0.00  0.00    -0.003 A 
ATOM      7  C   UNL     1       0.187 -13.246   0.085  0.00  0.00    +0.010 A 
ATOM      8  C   UNL     1       0.205 -14.603  -0.003  0.00  0.00    +0.001 A 
ATOM      9  C   UNL     1       0.215 -15.406   1.134  0.00  0.00    +0.002 A 
ATOM     10  C   UNL     1       0.208 -14.873   2.387  0.00  0.00    +0.024 A 
ATOM     11  C   UNL     1       0.191 -13.477   2.550  0.00  0.00    +0.041 A 
ATOM     12  N   UNL     1       0.184 -12.928   3.767  0.00  0.00    -0.281 N 
ATOM     13  C   UNL     1       0.174 -11.613   3.937  0.00  0.00    +0.250 C 
ATOM     14  O   UNL     1       0.173 -11.152   5.069  0.00  0.00    -0.270 OA
ATOM     15  H   UNL     1       0.192 -13.506   4.546  0.00  0.00    +0.155 HD
ENDBRANCH   1   3
BRANCH   1  18
ATOM     16  C   UNL     1       0.090  -6.277   1.043  0.00  0.00    +0.267 C 
ATOM     17  O   UNL     1       0.090  -6.735  -0.080  0.00  0.00    -0.271 OA
ATOM     18  N   UNL     1       0.106  -7.104   2.108  0.00  0.00    -0.234 N 
ATOM     19  H   UNL     1       0.106  -6.738   3.006  0.00  0.00    +0.173 HD
BRANCH  16  20
ATOM     20  C   UNL     1       0.072  -4.785   1.249  0.00  0.00    +0.326 C 
BRANCH  20  21
ATOM     21  O   UNL     1       0.057  -4.129  -0.021  0.00  0.00    -0.483 OA
BRANCH  21  26
ATOM     22  C   UNL     1      -0.018   1.503   0.010  0.00  0.00    +0.044 C 
ATOM     23  C   UNL     1       0.002  -0.004   0.002  0.00  0.00    -0.050 A 
ATOM     24  C   UNL     1       0.006  -0.688  -1.200  0.00  0.00    +0.007 A 
ATOM     25  C   UNL     1       0.024  -2.069  -1.210  0.00  0.00    +0.046 A 
ATOM     26  C   UNL     1       0.039  -2.770  -0.013  0.00  0.00    +0.121 A 
ATOM     27  C   UNL     1       0.036  -2.082   1.191  0.00  0.00    +0.046 A 
ATOM     28  C   UNL     1       0.023  -0.701   1.196  0.00  0.00    +0.007 A 
ENDBRANCH  21  26
ENDBRANCH  20  21
ENDBRANCH  16  20
ENDBRANCH   1  18
TORSDOF 5
