REMARK  Name = ZINC17102254
REMARK  8 active torsions:
REMARK  status: ('A' for Active; 'I' for Inactive)
REMARK    1  A    between atoms: C_1  and  C_2
REMARK    2  A    between atoms: C_2  and  N_3
REMARK    3  A    between atoms: C_6  and  C_8
REMARK    4  A    between atoms: C_15  and  C_32
REMARK    5  A    between atoms: C_16  and  C_27
REMARK    6  A    between atoms: C_27  and  O_29
REMARK    7  A    between atoms: O_29  and  C_30
REMARK    8  A    between atoms: C_30  and  C_31
REMARK                            x       y       z     vdW  Elec       q    Type
REMARK                         _______ _______ _______ _____ _____    ______ ____
ROOT
ATOM      1  C   UNL     1      -2.321   6.292  -2.030  0.00  0.00    +0.050 C 
ATOM      2  C   UNL     1      -1.614   5.309  -1.419  0.00  0.00    +0.082 A 
ATOM      3  C   UNL     1      -1.965   3.892  -1.219  0.00  0.00    +0.268 A 
ATOM      4  O   UNL     1      -3.026   3.446  -1.615  0.00  0.00    -0.266 OA
ATOM      5  N   UNL     1      -1.085   3.116  -0.592  0.00  0.00    -0.278 N 
ATOM      6  C   UNL     1       0.097   3.688  -0.136  0.00  0.00    +0.176 A 
ATOM      7  N   UNL     1       1.038   3.083   0.509  0.00  0.00    -0.214 NA
ATOM      8  C   UNL     1       0.876   1.668   0.856  0.00  0.00    +0.217 C 
ATOM      9  C   UNL     1      -0.614   1.333   0.983  0.00  0.00    +0.191 C 
ATOM     10  C   UNL     1      -1.300   1.680  -0.349  0.00  0.00    +0.146 C 
ATOM     11  C   UNL     1      -0.546   0.985  -1.462  0.00  0.00    +0.018 A 
ATOM     12  C   UNL     1      -1.202   0.720  -2.650  0.00  0.00    +0.009 A 
ATOM     13  C   UNL     1      -0.536   0.095  -3.686  0.00  0.00    +0.001 A 
ATOM     14  C   UNL     1       0.790  -0.266  -3.535  0.00  0.00    +0.004 A 
ATOM     15  C   UNL     1       1.447  -0.005  -2.350  0.00  0.00    +0.046 A 
ATOM     16  C   UNL     1       0.778   0.620  -1.301  0.00  0.00    +0.129 A 
ATOM     17  O   UNL     1       1.457   0.845  -0.147  0.00  0.00    -0.464 OA
ATOM     18  C   UNL     1       1.568   1.395   2.193  0.00  0.00    +0.084 C 
ATOM     19  S   UNL     1      -0.007   5.385  -0.640  0.00  0.00    -0.046 S 
ENDROOT
BRANCH   1  23
ATOM     20  N   UNL     1      -5.158   4.866  -3.801  0.00  0.00    -0.271 N 
ATOM     21  C   UNL     1      -5.403   6.187  -3.993  0.00  0.00    +0.109 A 
ATOM     22  C   UNL     1      -4.422   6.886  -3.386  0.00  0.00    +0.049 A 
ATOM     23  C   UNL     1      -3.533   5.961  -2.794  0.00  0.00    +0.087 A 
ATOM     24  N   UNL     1      -3.980   4.745  -3.053  0.00  0.00    -0.172 NA
BRANCH  20  26
ATOM     25  C   UNL     1      -5.109   2.805  -5.117  0.00  0.00    +0.029 C 
ATOM     26  C   UNL     1      -5.980   3.759  -4.295  0.00  0.00    +0.140 C 
ENDBRANCH  20  26
ENDBRANCH   1  23
BRANCH   9  27
ATOM     27  C   UNL     1      -1.225   2.143   2.097  0.00  0.00    +0.318 C 
ATOM     28  O   UNL     1      -2.125   2.913   1.860  0.00  0.00    -0.250 OA
BRANCH  27  29
ATOM     29  O   UNL     1      -0.768   2.010   3.352  0.00  0.00    -0.465 OA
BRANCH  29  30
ATOM     30  C   UNL     1      -1.403   2.822   4.374  0.00  0.00    +0.229 C 
ATOM     31  C   UNL     1      -0.754   2.535   5.730  0.00  0.00    +0.048 C 
ENDBRANCH  29  30
ENDBRANCH  27  29
ENDBRANCH   9  27
TORSDOF 5
