REMARK  Name = ZINC36735010
REMARK  4 active torsions:
REMARK  status: ('A' for Active; 'I' for Inactive)
REMARK    1  A    between atoms: C_2  and  C_3
REMARK    2  A    between atoms: C_3  and  N_4
REMARK    3  A    between atoms: C_6  and  C_13
REMARK    4  A    between atoms: C_13  and  N_14
REMARK                            x       y       z     vdW  Elec       q    Type
REMARK                         _______ _______ _______ _____ _____    ______ ____
ROOT
ATOM      1  N   UNL     1       4.446   4.852   1.268  0.00  0.00    +0.386 N 
ATOM      2  C   UNL     1       5.502   5.152   2.247  0.00  0.00    -0.073 C 
ATOM      3  C   UNL     1       5.719   6.666   2.278  0.00  0.00    +0.024 C 
ATOM      4  C   UNL     1       4.397   7.367   2.443  0.00  0.00    +0.034 A 
ATOM      5  C   UNL     1       3.228   6.742   2.224  0.00  0.00    +0.011 A 
ATOM      6  N   UNL     1       2.060   7.440   2.386  0.00  0.00    -0.333 N 
ATOM      7  C   UNL     1       2.080   8.742   2.768  0.00  0.00    +0.199 A 
ATOM      8  N   UNL     1       3.217   9.369   2.990  0.00  0.00    -0.177 NA
ATOM      9  C   UNL     1       4.386   8.731   2.843  0.00  0.00    +0.278 A 
ATOM     10  O   UNL     1       5.436   9.319   3.051  0.00  0.00    -0.265 OA
ATOM     11  N   UNL     1       0.898   9.416   2.924  0.00  0.00    -0.297 N 
ATOM     12  C   UNL     1      -0.392   8.718   2.810  0.00  0.00    +0.136 C 
ATOM     13  C   UNL     1      -1.239   9.064   4.041  0.00  0.00    +0.179 C 
ATOM     14  O   UNL     1      -1.296  10.485   4.189  0.00  0.00    -0.377 OA
ATOM     15  C   UNL     1      -0.027  11.101   4.422  0.00  0.00    +0.179 C 
ATOM     16  C   UNL     1       0.881  10.858   3.217  0.00  0.00    +0.136 C 
ATOM     17  C   UNL     1       3.158   5.298   1.807  0.00  0.00    -0.024 C 
ATOM     18  H   UNL     1       1.211   6.999   2.227  0.00  0.00    +0.168 HD
ATOM     19  H   UNL     1       4.636   5.337   0.404  0.00  0.00    -0.081 HD
ENDROOT
BRANCH   1  20
ATOM     20  C   UNL     1       4.400   3.405   1.021  0.00  0.00    -0.040 C 
BRANCH  20  23
ATOM     21  N   UNL     1       1.522   2.519  -1.097  0.00  0.00    -0.335 N 
ATOM     22  C   UNL     1       2.137   2.671   0.115  0.00  0.00    +0.089 A 
ATOM     23  C   UNL     1       3.393   3.111  -0.061  0.00  0.00    -0.039 A 
ATOM     24  C   UNL     1       3.599   3.252  -1.505  0.00  0.00    +0.001 A 
ATOM     25  C   UNL     1       2.390   2.860  -2.109  0.00  0.00    +0.050 A 
ATOM     26  C   UNL     1       2.283   2.884  -3.496  0.00  0.00    +0.026 A 
ATOM     27  C   UNL     1       3.358   3.286  -4.259  0.00  0.00    +0.002 A 
ATOM     28  C   UNL     1       4.549   3.668  -3.658  0.00  0.00    +0.001 A 
ATOM     29  C   UNL     1       4.673   3.660  -2.296  0.00  0.00    +0.010 A 
BRANCH  21  30
ATOM     30  C   UNL     1       0.145   2.055  -1.290  0.00  0.00    +0.210 C 
BRANCH  30  32
ATOM     31  C   UNL     1       0.146  -0.555  -1.722  0.00  0.00    +0.005 C 
ATOM     32  C   UNL     1       0.145   0.603  -1.530  0.00  0.00    -0.084 C 
ENDBRANCH  30  32
ENDBRANCH  21  30
ENDBRANCH  20  23
ENDBRANCH   1  20
TORSDOF 4
