REMARK  Name = ZINC36877569
REMARK  8 active torsions:
REMARK  status: ('A' for Active; 'I' for Inactive)
REMARK    1  A    between atoms: C_1  and  C_2
REMARK    2  A    between atoms: C_2  and  N_3
REMARK    3  A    between atoms: N_6  and  C_9
REMARK    4  A    between atoms: C_12  and  N_16
REMARK    5  A    between atoms: C_13  and  C_15
REMARK    6  A    between atoms: C_17  and  C_19
REMARK    7  A    between atoms: C_19  and  N_20
REMARK    8  A    between atoms: C_26  and  C_29
REMARK                            x       y       z     vdW  Elec       q    Type
REMARK                         _______ _______ _______ _____ _____    ______ ____
ROOT
ATOM      1  N   UNL     1      -6.574  -5.462   4.084  0.00  0.00    -0.284 N 
ATOM      2  C   UNL     1      -6.762  -5.193   5.391  0.00  0.00    +0.235 C 
ATOM      3  O   UNL     1      -6.353  -4.153   5.862  0.00  0.00    -0.274 OA
ATOM      4  H   UNL     1      -6.950  -6.267   3.695  0.00  0.00    +0.155 HD
ENDROOT
BRANCH   1   8
ATOM      5  C   UNL     1      -4.370  -2.834   1.711  0.00  0.00    +0.030 A 
ATOM      6  C   UNL     1      -5.016  -2.367   2.849  0.00  0.00    +0.025 A 
ATOM      7  C   UNL     1      -5.745  -3.237   3.634  0.00  0.00    +0.025 A 
ATOM      8  C   UNL     1      -5.833  -4.579   3.287  0.00  0.00    +0.036 A 
ATOM      9  C   UNL     1      -5.187  -5.046   2.150  0.00  0.00    -0.028 A 
ATOM     10  C   UNL     1      -4.463  -4.175   1.360  0.00  0.00    +0.028 A 
ATOM     11  C   UNL     1      -5.282  -6.502   1.773  0.00  0.00    +0.046 C 
BRANCH   5  15
ATOM     12  N   UNL     1      -1.486  -0.418  -0.011  0.00  0.00    +0.382 N 
ATOM     13  C   UNL     1      -2.156  -0.039   1.240  0.00  0.00    -0.060 C 
ATOM     14  C   UNL     1      -3.614  -0.509   1.199  0.00  0.00    +0.086 C 
ATOM     15  N   UNL     1      -3.631  -1.953   0.915  0.00  0.00    -0.333 N 
ATOM     16  C   UNL     1      -2.848  -2.443  -0.230  0.00  0.00    +0.086 C 
ATOM     17  C   UNL     1      -1.426  -1.881  -0.123  0.00  0.00    -0.060 C 
ATOM     18  H   UNL     1      -2.001  -0.043  -0.793  0.00  0.00    -0.082 HD
BRANCH  12  20
ATOM     19  C   UNL     1      -0.185   1.656  -0.028  0.00  0.00    -0.017 C 
ATOM     20  C   UNL     1      -0.122   0.128  -0.018  0.00  0.00    -0.082 C 
ENDBRANCH  12  20
ENDBRANCH   5  15
ENDBRANCH   1   8
BRANCH   2  21
ATOM     21  C   UNL     1      -7.482  -6.185   6.268  0.00  0.00    +0.214 C 
BRANCH  21  22
ATOM     22  N   UNL     1      -7.558  -5.663   7.635  0.00  0.00    -0.215 N 
ATOM     23  C   UNL     1      -6.622  -5.880   8.583  0.00  0.00    +0.247 C 
ATOM     24  O   UNL     1      -5.598  -6.520   8.470  0.00  0.00    -0.273 OA
ATOM     25  C   UNL     1      -7.119  -5.159   9.814  0.00  0.00    +0.113 C 
ATOM     26  C   UNL     1      -6.131  -4.073  10.229  0.00  0.00    +0.035 C 
ATOM     27  C   UNL     1      -6.668  -3.335  11.458  0.00  0.00    +0.006 C 
ATOM     28  C   UNL     1      -6.868  -4.331  12.602  0.00  0.00    -0.014 C 
ATOM     29  C   UNL     1      -7.878  -5.399  12.180  0.00  0.00    +0.006 C 
ATOM     30  C   UNL     1      -7.347  -6.146  10.953  0.00  0.00    +0.035 C 
ATOM     31  C   UNL     1      -7.393  -3.592  13.835  0.00  0.00    +0.007 C 
ATOM     32  N   UNL     1      -8.391  -4.561   9.388  0.00  0.00    -0.285 N 
ATOM     33  C   UNL     1      -8.561  -4.907   8.097  0.00  0.00    +0.310 C 
ATOM     34  O   UNL     1      -9.519  -4.572   7.428  0.00  0.00    -0.252 OA
ATOM     35  H   UNL     1      -8.989  -4.022   9.928  0.00  0.00    +0.151 HD
ENDBRANCH  21  22
ENDBRANCH   2  21
TORSDOF 5
