REMARK  Name = ZINC32529287
REMARK  12 active torsions:
REMARK  status: ('A' for Active; 'I' for Inactive)
REMARK    1  A    between atoms: C_1  and  C_2
REMARK    2  A    between atoms: C_4  and  C_36
REMARK    3  A    between atoms: C_8  and  C_35
REMARK    4  A    between atoms: C_10  and  S_12
REMARK    5  A    between atoms: S_12  and  C_13
REMARK    6  A    between atoms: C_13  and  C_15
REMARK    7  A    between atoms: C_13  and  C_16
REMARK    8  A    between atoms: N_18  and  C_19
REMARK    9  A    between atoms: C_22  and  S_25
REMARK   10  A    between atoms: S_25  and  N_28
REMARK   11  A    between atoms: N_28  and  C_29
REMARK   12  A    between atoms: C_29  and  C_30
REMARK                            x       y       z     vdW  Elec       q    Type
REMARK                         _______ _______ _______ _____ _____    ______ ____
ROOT
ATOM      1  C   UNL     1       6.384   5.165   0.094  0.00  0.00    +0.230 C 
ATOM      2  O   UNL     1       6.636   6.317  -0.189  0.00  0.00    -0.274 OA
ATOM      3  N   UNL     1       7.368   4.341   0.503  0.00  0.00    -0.285 N 
ATOM      4  H   UNL     1       7.128   3.319   0.833  0.00  0.00    +0.155 HD
ENDROOT
BRANCH   3   5
ATOM      5  C   UNL     1       8.695   4.784   0.509  0.00  0.00    +0.034 A 
ATOM      6  C   UNL     1       9.726   3.902   0.213  0.00  0.00    +0.025 A 
ATOM      7  C   UNL     1      11.034   4.344   0.214  0.00  0.00    +0.030 A 
ATOM      8  C   UNL     1      11.319   5.662   0.522  0.00  0.00    +0.105 A 
ATOM      9  C   UNL     1      10.296   6.542   0.823  0.00  0.00    +0.030 A 
ATOM     10  C   UNL     1       8.985   6.107   0.818  0.00  0.00    +0.025 A 
BRANCH   8  11
ATOM     11  S   UNL     1      12.990   6.220   0.530  0.00  0.00    +0.059 S 
ATOM     12  O   UNL     1      13.717   5.340  -0.317  0.00  0.00    -0.153 OA
ATOM     13  O   UNL     1      12.950   7.624   0.315  0.00  0.00    -0.153 OA
BRANCH  11  14
ATOM     14  N   UNL     1      13.575   5.993   2.062  0.00  0.00    -0.183 NA
ATOM     15  H   UNL     1      13.700   6.862   2.724  0.00  0.00    +0.148 HD
BRANCH  14  16
ATOM     16  C   UNL     1      13.714   4.637   2.599  0.00  0.00    +0.180 C 
BRANCH  16  17
ATOM     17  C   UNL     1      14.589   4.669   3.826  0.00  0.00    +0.120 A 
ATOM     18  C   UNL     1      14.164   4.843   5.090  0.00  0.00    +0.046 A 
ATOM     19  C   UNL     1      15.311   4.806   5.916  0.00  0.00    +0.041 A 
ATOM     20  C   UNL     1      16.368   4.612   5.107  0.00  0.00    +0.195 A 
ATOM     21  O   UNL     1      15.924   4.524   3.843  0.00  0.00    -0.466 OA
ENDBRANCH  16  17
ENDBRANCH  14  16
ENDBRANCH  11  14
ENDBRANCH   8  11
ENDBRANCH   3   5
BRANCH   1  22
ATOM     22  C   UNL     1       4.970   4.656  -0.012  0.00  0.00    +0.136 C 
ATOM     23  C   UNL     1       4.805   3.874  -1.317  0.00  0.00    +0.029 C 
BRANCH  22  24
ATOM     24  S   UNL     1       3.822   6.055   0.002  0.00  0.00    -0.093 S 
BRANCH  24  34
ATOM     25  C   UNL     1      -2.524   0.969   0.075  0.00  0.00    +0.044 C 
ATOM     26  C   UNL     1      -1.241   1.759   0.064  0.00  0.00    -0.050 A 
ATOM     27  C   UNL     1      -0.021   1.088   0.054  0.00  0.00    +0.008 A 
ATOM     28  C   UNL     1       1.157   1.771   0.038  0.00  0.00    -0.024 A 
ATOM     29  C   UNL     1       1.147   3.177   0.037  0.00  0.00    +0.075 A 
ATOM     30  C   UNL     1      -0.095   3.857   0.053  0.00  0.00    +0.004 A 
ATOM     31  C   UNL     1      -1.289   3.120   0.070  0.00  0.00    +0.013 A 
ATOM     32  C   UNL     1      -0.105   5.267   0.052  0.00  0.00    -0.039 A 
ATOM     33  C   UNL     1       1.089   5.922   0.037  0.00  0.00    +0.038 A 
ATOM     34  C   UNL     1       2.286   5.191   0.022  0.00  0.00    +0.099 A 
ATOM     35  N   UNL     1       2.289   3.873   0.022  0.00  0.00    -0.240 NA
ATOM     36  C   UNL     1      -1.405   6.030   0.069  0.00  0.00    +0.044 C 
ATOM     37  C   UNL     1       2.465   1.024   0.022  0.00  0.00    +0.046 C 
ENDBRANCH  24  34
ENDBRANCH  22  24
ENDBRANCH   1  22
TORSDOF 8
