REMARK  Name = ZINC34978556
REMARK  11 active torsions:
REMARK  status: ('A' for Active; 'I' for Inactive)
REMARK    1  A    between atoms: C_1  and  C_2
REMARK    2  A    between atoms: N_11  and  C_12
REMARK    3  A    between atoms: C_12  and  C_13
REMARK    4  A    between atoms: C_12  and  C_14
REMARK    5  A    between atoms: C_15  and  C_17
REMARK    6  A    between atoms: C_17  and  C_19
REMARK    7  A    between atoms: C_17  and  N_26
REMARK    8  A    between atoms: C_19  and  C_20
REMARK    9  A    between atoms: C_27  and  C_29
REMARK   10  A    between atoms: C_29  and  O_30
REMARK   11  A    between atoms: O_30  and  C_31
REMARK                            x       y       z     vdW  Elec       q    Type
REMARK                         _______ _______ _______ _____ _____    ______ ____
ROOT
ATOM      1  C   UNL     1      -4.076   0.724   2.458  0.00  0.00    +0.163 C 
ENDROOT
BRANCH   1  12
ATOM      2  C   UNL     1      -0.011   2.050   0.260  0.00  0.00    +0.030 C 
ATOM      3  C   UNL     1       0.295   0.577   0.540  0.00  0.00    +0.092 C 
ATOM      4  C   UNL     1      -0.989  -0.251   0.400  0.00  0.00    +0.130 C 
ATOM      5  N   UNL     1      -1.881   0.073   1.523  0.00  0.00    -0.297 N 
ATOM      6  C   UNL     1      -1.374  -0.074   2.895  0.00  0.00    +0.127 C 
ATOM      7  C   UNL     1      -0.090   0.753   3.034  0.00  0.00    +0.128 C 
ATOM      8  N   UNL     1       0.805   0.431   1.910  0.00  0.00    -0.280 N 
ATOM      9  C   UNL     1       2.065   0.006   2.131  0.00  0.00    +0.303 C 
ATOM     10  O   UNL     1       2.819  -0.174   1.194  0.00  0.00    -0.253 OA
ATOM     11  N   UNL     1       2.490  -0.218   3.390  0.00  0.00    -0.297 N 
ATOM     12  C   UNL     1      -3.140   0.496   1.299  0.00  0.00    +0.236 C 
ATOM     13  O   UNL     1      -3.520   0.695   0.164  0.00  0.00    -0.274 OA
ATOM     14  H   UNL     1       1.869  -0.143   4.132  0.00  0.00    +0.150 HD
BRANCH  11  15
ATOM     15  C   UNL     1       3.889  -0.574   3.639  0.00  0.00    +0.068 C 
ATOM     16  C   UNL     1       4.271  -0.175   5.065  0.00  0.00    +0.027 C 
ATOM     17  C   UNL     1       4.069  -2.084   3.466  0.00  0.00    +0.027 C 
ENDBRANCH  11  15
ENDBRANCH   1  12
BRANCH   1  18
ATOM     18  N   UNL     1      -5.244   1.482   2.001  0.00  0.00    -0.301 N 
ATOM     19  C   UNL     1      -5.947   2.229   2.875  0.00  0.00    +0.251 C 
ATOM     20  O   UNL     1      -5.612   2.274   4.040  0.00  0.00    -0.272 OA
ATOM     21  H   UNL     1      -5.511   1.446   1.069  0.00  0.00    +0.150 HD
BRANCH  19  22
ATOM     22  C   UNL     1      -7.148   3.008   2.405  0.00  0.00    +0.324 C 
BRANCH  22  23
ATOM     23  O   UNL     1      -7.719   3.714   3.509  0.00  0.00    -0.483 OA
BRANCH  23  24
ATOM     24  C   UNL     1      -8.818   4.472   3.254  0.00  0.00    +0.121 A 
ATOM     25  C   UNL     1      -9.339   4.530   1.970  0.00  0.00    +0.047 A 
ATOM     26  C   UNL     1     -10.457   5.300   1.712  0.00  0.00    +0.023 A 
ATOM     27  C   UNL     1     -11.056   6.015   2.735  0.00  0.00    +0.041 A 
ATOM     28  C   UNL     1     -10.537   5.959   4.016  0.00  0.00    +0.023 A 
ATOM     29  C   UNL     1      -9.424   5.184   4.279  0.00  0.00    +0.047 A 
ATOM     30 CL   UNL     1     -12.459   6.983   2.409  0.00  0.00    -0.084 Cl
ENDBRANCH  23  24
ENDBRANCH  22  23
ENDBRANCH  19  22
ENDBRANCH   1  18
BRANCH   1  31
ATOM     31  C   UNL     1      -4.531  -0.624   3.019  0.00  0.00    +0.067 C 
BRANCH  31  32
ATOM     32  C   UNL     1      -5.346  -0.400   4.266  0.00  0.00    -0.045 A 
ATOM     33  C   UNL     1      -4.724  -0.352   5.500  0.00  0.00    +0.004 A 
ATOM     34  C   UNL     1      -5.471  -0.147   6.644  0.00  0.00    +0.000 A 
ATOM     35  C   UNL     1      -6.842   0.011   6.555  0.00  0.00    +0.000 A 
ATOM     36  C   UNL     1      -7.464  -0.036   5.321  0.00  0.00    +0.000 A 
ATOM     37  C   UNL     1      -6.716  -0.237   4.177  0.00  0.00    +0.004 A 
ENDBRANCH  31  32
ENDBRANCH   1  31
TORSDOF 8
