REMARK  Name = ZINC02586846
REMARK  3 active torsions:
REMARK  status: ('A' for Active; 'I' for Inactive)
REMARK    1  A    between atoms: C_1  and  C_2
REMARK    2  A    between atoms: C_5  and  C_8
REMARK    3  A    between atoms: C_10  and  C_18
REMARK                            x       y       z     vdW  Elec       q    Type
REMARK                         _______ _______ _______ _____ _____    ______ ____
ROOT
ATOM      1  C   UNL     1       0.060  -4.245  -0.021  0.00  0.00    +0.055 C 
ATOM      2  C   UNL     1       0.071  -4.973   1.293  0.00  0.00    +0.087 C 
ATOM      3  C   UNL     1      -0.700  -6.295   1.201  0.00  0.00    +0.147 C 
ATOM      4  N   UNL     1      -0.352  -6.935  -0.067  0.00  0.00    -0.222 N 
ATOM      5  C   UNL     1      -0.002  -6.223  -1.181  0.00  0.00    +0.249 A 
ATOM      6  N   UNL     1       0.231  -7.083  -2.142  0.00  0.00    -0.198 NA
ATOM      7  C   UNL     1       0.053  -8.324  -1.685  0.00  0.00    +0.247 A 
ATOM      8  N   UNL     1      -0.301  -8.279  -0.422  0.00  0.00    -0.156 NA
ATOM      9  N   UNL     1       0.063  -4.865  -1.170  0.00  0.00    -0.215 NA
ENDROOT
BRANCH   1  14
ATOM     10  C   UNL     1      -0.018   1.503   0.010  0.00  0.00    +0.044 C 
ATOM     11  C   UNL     1       0.002  -0.004   0.002  0.00  0.00    -0.050 A 
ATOM     12  C   UNL     1       0.006  -0.686  -1.202  0.00  0.00    +0.004 A 
ATOM     13  C   UNL     1       0.025  -2.064  -1.218  0.00  0.00    +0.010 A 
ATOM     14  C   UNL     1       0.041  -2.774  -0.013  0.00  0.00    -0.004 A 
ATOM     15  C   UNL     1       0.037  -2.078   1.200  0.00  0.00    +0.010 A 
ATOM     16  C   UNL     1       0.023  -0.699   1.199  0.00  0.00    +0.004 A 
ENDBRANCH   1  14
BRANCH   3  17
ATOM     17  C   UNL     1      -2.182  -6.025   1.247  0.00  0.00    -0.023 A 
ATOM     18  C   UNL     1      -2.771  -5.237   0.276  0.00  0.00    +0.007 A 
ATOM     19  C   UNL     1      -4.130  -4.989   0.318  0.00  0.00    +0.020 A 
ATOM     20  C   UNL     1      -4.901  -5.529   1.331  0.00  0.00    +0.041 A 
ATOM     21  C   UNL     1      -4.311  -6.318   2.303  0.00  0.00    +0.020 A 
ATOM     22  C   UNL     1      -2.952  -6.570   2.257  0.00  0.00    +0.007 A 
ATOM     23 CL   UNL     1      -6.607  -5.218   1.384  0.00  0.00    -0.084 Cl
ENDBRANCH   3  17
TORSDOF 2
