REMARK  Name = ZINC03008749
REMARK  6 active torsions:
REMARK  status: ('A' for Active; 'I' for Inactive)
REMARK    1  A    between atoms: C_1  and  C_2
REMARK    2  A    between atoms: C_5  and  N_8
REMARK    3  A    between atoms: C_9  and  N_18
REMARK    4  A    between atoms: C_19  and  C_21
REMARK    5  A    between atoms: C_24  and  S_27
REMARK    6  A    between atoms: S_27  and  N_30
REMARK                            x       y       z     vdW  Elec       q    Type
REMARK                         _______ _______ _______ _____ _____    ______ ____
ROOT
ATOM      1  N   UNL     1      -1.008  -1.274   0.357  0.00  0.00    -0.266 N 
ATOM      2  C   UNL     1      -0.683  -2.580   0.412  0.00  0.00    +0.249 C 
ATOM      3  O   UNL     1       0.485  -2.917   0.390  0.00  0.00    -0.270 OA
ATOM      4  H   UNL     1      -1.935  -1.000   0.447  0.00  0.00    +0.157 HD
ENDROOT
BRANCH   1   6
ATOM      5  N   UNL     1      -0.056   0.974   0.592  0.00  0.00    -0.218 N 
ATOM      6  C   UNL     1      -0.014  -0.315   0.172  0.00  0.00    +0.134 A 
ATOM      7  C   UNL     1       1.189  -0.505  -0.469  0.00  0.00    +0.038 A 
ATOM      8  C   UNL     1       1.882   0.694  -0.433  0.00  0.00    +0.091 A 
ATOM      9  N   UNL     1       1.137   1.586   0.205  0.00  0.00    -0.168 NA
ATOM     10  C   UNL     1       3.259   0.711  -1.093  0.00  0.00    +0.223 C 
ATOM     11  S   UNL     1       3.212  -0.826  -2.104  0.00  0.00    -0.021 S 
ATOM     12  O   UNL     1       2.746  -0.517  -3.410  0.00  0.00    -0.174 OA
ATOM     13  O   UNL     1       4.431  -1.536  -1.938  0.00  0.00    -0.174 OA
ATOM     14  C   UNL     1       1.875  -1.675  -1.171  0.00  0.00    +0.206 C 
BRANCH   5  19
ATOM     15  C   UNL     1      -4.316   3.438   3.418  0.00  0.00    +0.044 C 
ATOM     16  C   UNL     1      -3.185   2.783   2.668  0.00  0.00    -0.050 A 
ATOM     17  C   UNL     1      -1.876   3.043   3.030  0.00  0.00    +0.005 A 
ATOM     18  C   UNL     1      -0.837   2.445   2.344  0.00  0.00    +0.028 A 
ATOM     19  C   UNL     1      -1.108   1.582   1.290  0.00  0.00    +0.067 A 
ATOM     20  C   UNL     1      -2.423   1.328   0.926  0.00  0.00    +0.028 A 
ATOM     21  C   UNL     1      -3.458   1.925   1.619  0.00  0.00    +0.005 A 
ENDBRANCH   5  19
ENDBRANCH   1   6
BRANCH   2  22
ATOM     22  C   UNL     1      -1.746  -3.604   0.500  0.00  0.00    +0.037 A 
ATOM     23  C   UNL     1      -3.087  -3.220   0.532  0.00  0.00    +0.015 A 
ATOM     24  C   UNL     1      -4.074  -4.180   0.609  0.00  0.00    +0.029 A 
ATOM     25  C   UNL     1      -3.737  -5.521   0.665  0.00  0.00    +0.106 A 
ATOM     26  C   UNL     1      -2.409  -5.908   0.639  0.00  0.00    +0.029 A 
ATOM     27  C   UNL     1      -1.412  -4.958   0.557  0.00  0.00    +0.015 A 
BRANCH  25  28
ATOM     28  S   UNL     1      -5.004  -6.741   0.769  0.00  0.00    +0.061 S 
ATOM     29  O   UNL     1      -6.179  -6.154   0.228  0.00  0.00    -0.153 OA
ATOM     30  O   UNL     1      -4.450  -7.946   0.260  0.00  0.00    -0.153 OA
BRANCH  28  31
ATOM     31  N   UNL     1      -5.303  -7.000   2.377  0.00  0.00    -0.177 NA
ATOM     32  C   UNL     1      -4.564  -8.032   3.119  0.00  0.00    +0.109 C 
ATOM     33  C   UNL     1      -3.936  -7.384   4.362  0.00  0.00    +0.017 C 
ATOM     34  C   UNL     1      -5.029  -6.686   5.175  0.00  0.00    +0.003 C 
ATOM     35  C   UNL     1      -5.671  -5.584   4.330  0.00  0.00    +0.017 C 
ATOM     36  C   UNL     1      -6.315  -6.207   3.088  0.00  0.00    +0.109 C 
ENDBRANCH  28  31
ENDBRANCH  25  28
ENDBRANCH   2  22
TORSDOF 5
