REMARK  Name = ZINC38607688
REMARK  7 active torsions:
REMARK  status: ('A' for Active; 'I' for Inactive)
REMARK    1  A    between atoms: C_1  and  C_2
REMARK    2  A    between atoms: C_3  and  C_28
REMARK    3  A    between atoms: N_6  and  C_25
REMARK    4  A    between atoms: C_10  and  C_11
REMARK    5  A    between atoms: C_14  and  C_16
REMARK    6  A    between atoms: C_19  and  N_22
REMARK    7  A    between atoms: C_25  and  C_26
REMARK                            x       y       z     vdW  Elec       q    Type
REMARK                         _______ _______ _______ _____ _____    ______ ____
ROOT
ATOM      1  C   UNL     1      -0.203   1.402  -0.041  0.00  0.00    +0.046 C 
ATOM      2  C   UNL     1       0.248  -0.035   0.012  0.00  0.00    -0.016 C 
ATOM      3  C   UNL     1       0.580  -0.716  -1.153  0.00  0.00    +0.117 C 
ATOM      4  C   UNL     1       1.015  -2.111  -1.075  0.00  0.00    +0.264 C 
ATOM      5  O   UNL     1       1.307  -2.709  -2.094  0.00  0.00    -0.269 OA
ATOM      6  N   UNL     1       1.098  -2.740   0.111  0.00  0.00    -0.230 N 
ATOM      7  C   UNL     1       0.785  -2.113   1.259  0.00  0.00    +0.254 C 
ATOM      8  O   UNL     1       0.870  -2.709   2.317  0.00  0.00    -0.270 OA
ATOM      9  C   UNL     1       0.346  -0.711   1.244  0.00  0.00    +0.045 C 
ATOM     10  C   UNL     1       0.025  -0.056   2.440  0.00  0.00    +0.059 C 
ENDROOT
BRANCH  10  11
ATOM     11  C   UNL     1      -0.059  -0.780   3.631  0.00  0.00    +0.129 A 
ATOM     12  C   UNL     1       0.405  -0.361   4.877  0.00  0.00    +0.050 A 
ATOM     13  C   UNL     1       0.118  -1.383   5.776  0.00  0.00    +0.050 A 
ATOM     14  C   UNL     1      -0.507  -2.388   5.062  0.00  0.00    +0.136 A 
ATOM     15  O   UNL     1      -0.609  -2.005   3.778  0.00  0.00    -0.455 OA
BRANCH  14  16
ATOM     16  C   UNL     1      -0.988  -3.667   5.618  0.00  0.00    +0.017 A 
ATOM     17  C   UNL     1      -0.833  -3.943   6.980  0.00  0.00    +0.014 A 
ATOM     18  C   UNL     1      -1.285  -5.140   7.493  0.00  0.00    +0.033 A 
ATOM     19  C   UNL     1      -1.891  -6.067   6.664  0.00  0.00    +0.126 A 
ATOM     20  C   UNL     1      -2.049  -5.801   5.315  0.00  0.00    +0.033 A 
ATOM     21  C   UNL     1      -1.607  -4.606   4.788  0.00  0.00    +0.014 A 
BRANCH  19  22
ATOM     22  N   UNL     1      -2.374  -7.351   7.222  0.00  0.00    +0.056 N 
ATOM     23  O   UNL     1      -2.237  -7.587   8.400  0.00  0.00    -0.126 OA
ATOM     24  O   UNL     1      -2.904  -8.163   6.500  0.00  0.00    -0.126 OA
ENDBRANCH  19  22
ENDBRANCH  14  16
ENDBRANCH  10  11
BRANCH   3  25
ATOM     25  C   UNL     1       0.495  -0.057  -2.422  0.00  0.00    +0.105 C 
ATOM     26  N   UNL     1       0.429   0.465  -3.429  0.00  0.00    -0.191 NA
ENDBRANCH   3  25
BRANCH   6  27
ATOM     27  C   UNL     1       1.539  -4.136   0.153  0.00  0.00    +0.143 C 
BRANCH  27  28
ATOM     28  C   UNL     1       3.038  -4.186   0.301  0.00  0.00    -0.015 C 
ATOM     29  C   UNL     1       3.577  -4.859   1.287  0.00  0.00    +0.005 C 
ENDBRANCH  27  28
ENDBRANCH   6  27
TORSDOF 6
