REMARK  Name = ZINC00958428
REMARK  11 active torsions:
REMARK  status: ('A' for Active; 'I' for Inactive)
REMARK    1  A    between atoms: C_1  and  C_2
REMARK    2  A    between atoms: C_5  and  N_9
REMARK    3  A    between atoms: C_6  and  C_8
REMARK    4  A    between atoms: C_10  and  C_12
REMARK    5  A    between atoms: C_13  and  C_36
REMARK    6  A    between atoms: N_19  and  C_22
REMARK    7  A    between atoms: C_22  and  C_24
REMARK    8  A    between atoms: C_22  and  C_25
REMARK    9  A    between atoms: C_25  and  O_27
REMARK   10  A    between atoms: O_27  and  C_28
REMARK   11  A    between atoms: C_28  and  C_29
REMARK                            x       y       z     vdW  Elec       q    Type
REMARK                         _______ _______ _______ _____ _____    ______ ____
ROOT
ATOM      1  C   UNL     1       3.708  -0.942   0.177  0.00  0.00    +0.080 A 
ATOM      2  C   UNL     1       3.936  -2.283   0.284  0.00  0.00    -0.017 A 
ATOM      3  C   UNL     1       5.246  -2.762   0.359  0.00  0.00    +0.076 A 
ATOM      4  C   UNL     1       6.262  -1.780   0.327  0.00  0.00    +0.116 A 
ATOM      5  S   UNL     1       5.357  -0.260   0.188  0.00  0.00    -0.064 S 
ATOM      6  N   UNL     1       7.548  -2.101   0.396  0.00  0.00    -0.230 NA
ATOM      7  C   UNL     1       7.939  -3.342   0.497  0.00  0.00    +0.204 A 
ATOM      8  N   UNL     1       7.056  -4.371   0.537  0.00  0.00    -0.285 N 
ATOM      9  C   UNL     1       5.727  -4.157   0.474  0.00  0.00    +0.263 A 
ATOM     10  O   UNL     1       4.942  -5.088   0.510  0.00  0.00    -0.267 OA
ATOM     11  C   UNL     1       2.777  -3.246   0.318  0.00  0.00    +0.046 C 
ENDROOT
BRANCH   1  13
ATOM     12  N   UNL     1       2.402   1.107  -0.014  0.00  0.00    -0.281 N 
ATOM     13  C   UNL     1       2.426  -0.237   0.081  0.00  0.00    +0.255 C 
ATOM     14  O   UNL     1       1.384  -0.865   0.088  0.00  0.00    -0.269 OA
ATOM     15  H   UNL     1       3.233   1.603  -0.085  0.00  0.00    +0.155 HD
BRANCH  12  20
ATOM     16  C   UNL     1      -2.555   3.864   0.002  0.00  0.00    +0.044 C 
ATOM     17  C   UNL     1      -1.238   3.131  -0.002  0.00  0.00    -0.050 A 
ATOM     18  C   UNL     1      -1.140   1.891  -0.607  0.00  0.00    +0.005 A 
ATOM     19  C   UNL     1       0.064   1.216  -0.608  0.00  0.00    +0.024 A 
ATOM     20  C   UNL     1       1.180   1.787  -0.010  0.00  0.00    +0.037 A 
ATOM     21  C   UNL     1       1.079   3.034   0.592  0.00  0.00    -0.029 A 
ATOM     22  C   UNL     1      -0.130   3.702   0.595  0.00  0.00    +0.008 A 
ATOM     23  C   UNL     1       2.287   3.657   1.243  0.00  0.00    +0.045 C 
ENDBRANCH  12  20
ENDBRANCH   1  13
BRANCH   8  24
ATOM     24  C   UNL     1       7.557  -5.742   0.651  0.00  0.00    +0.197 C 
ATOM     25  C   UNL     1       8.454  -6.059  -0.547  0.00  0.00    +0.043 C 
BRANCH  24  26
ATOM     26  C   UNL     1       8.352  -5.883   1.924  0.00  0.00    +0.330 C 
ATOM     27  O   UNL     1       8.485  -4.934   2.660  0.00  0.00    -0.248 OA
BRANCH  26  28
ATOM     28  O   UNL     1       8.911  -7.061   2.240  0.00  0.00    -0.458 OA
BRANCH  28  29
ATOM     29  C   UNL     1       9.662  -7.123   3.481  0.00  0.00    +0.269 C 
BRANCH  29  30
ATOM     30  C   UNL     1      10.211  -8.514   3.667  0.00  0.00    +0.008 A 
ATOM     31  C   UNL     1       9.957  -9.490   2.722  0.00  0.00    +0.008 A 
ATOM     32  C   UNL     1      10.464 -10.764   2.890  0.00  0.00    +0.000 A 
ATOM     33  C   UNL     1      11.219 -11.066   4.008  0.00  0.00    +0.001 A 
ATOM     34  C   UNL     1      11.470 -10.093   4.957  0.00  0.00    +0.020 A 
ATOM     35  C   UNL     1      10.966  -8.815   4.786  0.00  0.00    +0.047 A 
ATOM     36 CL   UNL     1      11.281  -7.592   5.977  0.00  0.00    -0.083 Cl
ENDBRANCH  29  30
ENDBRANCH  28  29
ENDBRANCH  26  28
ENDBRANCH  24  26
ENDBRANCH   8  24
TORSDOF 7
