REMARK  Name = ZINC49056340
REMARK  5 active torsions:
REMARK  status: ('A' for Active; 'I' for Inactive)
REMARK    1  A    between atoms: C_1  and  N_2
REMARK    2  A    between atoms: N_2  and  C_3
REMARK    3  A    between atoms: N_2  and  C_9
REMARK    4  A    between atoms: C_3  and  C_4
REMARK    5  A    between atoms: C_12  and  N_16
REMARK                            x       y       z     vdW  Elec       q    Type
REMARK                         _______ _______ _______ _____ _____    ______ ____
ROOT
ATOM      1  C   UNL     1       0.000  -0.696  -1.212  0.00  0.00    +0.048 A 
ATOM      2  C   UNL     1       1.201  -1.030  -1.825  0.00  0.00    +0.027 A 
ATOM      3  C   UNL     1       1.195  -1.714  -3.025  0.00  0.00    +0.034 A 
ATOM      4  C   UNL     1      -0.004  -2.067  -3.616  0.00  0.00    +0.128 A 
ATOM      5  C   UNL     1      -1.202  -1.738  -3.009  0.00  0.00    +0.054 A 
ATOM      6  C   UNL     1      -1.204  -1.058  -1.806  0.00  0.00    +0.064 A 
ATOM      7 CL   UNL     1      -2.707  -0.650  -1.040  0.00  0.00    -0.082 Cl
ENDROOT
BRANCH   4   8
ATOM      8  N   UNL     1      -0.005  -2.800  -4.902  0.00  0.00    +0.056 N 
ATOM      9  O   UNL     1       1.041  -3.089  -5.434  0.00  0.00    -0.126 OA
ATOM     10  O   UNL     1      -1.053  -3.110  -5.420  0.00  0.00    -0.126 OA
ENDBRANCH   4   8
BRANCH   1  12
ATOM     11  C   UNL     1      -0.018   1.461   0.010  0.00  0.00    +0.129 C 
ATOM     12  N   UNL     1       0.002  -0.004   0.002  0.00  0.00    -0.326 N 
BRANCH  12  13
ATOM     13  C   UNL     1       0.024  -0.743   1.267  0.00  0.00    +0.160 C 
BRANCH  13  14
ATOM     14  C   UNL     1      -1.389  -1.016   1.714  0.00  0.00    +0.066 A 
ATOM     15  C   UNL     1      -2.010  -2.189   1.429  0.00  0.00    +0.071 A 
ATOM     16  S   UNL     1      -3.598  -1.917   2.197  0.00  0.00    -0.084 S 
ATOM     17  C   UNL     1      -3.306  -0.367   2.787  0.00  0.00    +0.156 A 
ATOM     18  N   UNL     1      -2.077  -0.129   2.404  0.00  0.00    -0.251 NA
ENDBRANCH  13  14
ENDBRANCH  12  13
ENDBRANCH   1  12
TORSDOF 4
