REMARK  Name = ZINC12490131
REMARK  13 active torsions:
REMARK  status: ('A' for Active; 'I' for Inactive)
REMARK    1  A    between atoms: C_1  and  C_2
REMARK    2  A    between atoms: C_2  and  C_4
REMARK    3  A    between atoms: C_7  and  N_10
REMARK    4  A    between atoms: N_10  and  C_11
REMARK    5  A    between atoms: C_11  and  C_13
REMARK    6  A    between atoms: C_11  and  C_19
REMARK    7  A    between atoms: N_21  and  C_22
REMARK    8  A    between atoms: C_22  and  C_23
REMARK    9  A    between atoms: C_22  and  C_24
REMARK   10  A    between atoms: C_22  and  C_25
REMARK   11  A    between atoms: C_26  and  C_28
REMARK   12  A    between atoms: C_28  and  N_29
REMARK   13  A    between atoms: C_30  and  C_32
REMARK                            x       y       z     vdW  Elec       q    Type
REMARK                         _______ _______ _______ _____ _____    ______ ____
ROOT
ATOM      1  N   UNL     1       3.448   3.365  -0.602  0.00  0.00    -0.254 N 
ATOM      2  C   UNL     1       2.356   4.119  -0.369  0.00  0.00    +0.238 C 
ATOM      3  O   UNL     1       1.488   3.716   0.375  0.00  0.00    -0.274 OA
ENDROOT
BRANCH   1   7
ATOM      4  C   UNL     1       6.606   4.906  -2.829  0.00  0.00    +0.017 A 
ATOM      5  C   UNL     1       5.284   5.177  -3.204  0.00  0.00    +0.013 A 
ATOM      6  C   UNL     1       4.246   4.667  -2.467  0.00  0.00    +0.024 A 
ATOM      7  C   UNL     1       4.505   3.881  -1.348  0.00  0.00    +0.038 A 
ATOM      8  C   UNL     1       5.818   3.614  -0.968  0.00  0.00    +0.024 A 
ATOM      9  C   UNL     1       6.861   4.115  -1.702  0.00  0.00    +0.013 A 
BRANCH   4  11
ATOM     10  C   UNL     1       9.138   5.061  -3.282  0.00  0.00    +0.091 C 
ATOM     11  C   UNL     1       7.720   5.450  -3.616  0.00  0.00    +0.160 C 
ATOM     12  O   UNL     1       7.500   6.211  -4.534  0.00  0.00    -0.292 OA
ENDBRANCH   4  11
ENDBRANCH   1   7
BRANCH   1  13
ATOM     13  C   UNL     1       3.523   2.001  -0.071  0.00  0.00    +0.197 C 
BRANCH  13  14
ATOM     14  C   UNL     1       2.496   1.138  -0.757  0.00  0.00    -0.018 A 
ATOM     15  C   UNL     1       1.454   1.723  -1.452  0.00  0.00    +0.006 A 
ATOM     16  C   UNL     1       0.512   0.931  -2.082  0.00  0.00    +0.000 A 
ATOM     17  C   UNL     1       0.611  -0.446  -2.015  0.00  0.00    +0.000 A 
ATOM     18  C   UNL     1       1.652  -1.031  -1.319  0.00  0.00    +0.000 A 
ATOM     19  C   UNL     1       2.595  -0.239  -0.691  0.00  0.00    +0.006 A 
ENDBRANCH  13  14
BRANCH  13  20
ATOM     20  C   UNL     1       3.251   2.023   1.411  0.00  0.00    +0.239 C 
ATOM     21  O   UNL     1       3.050   3.078   1.975  0.00  0.00    -0.273 OA
ATOM     22  N   UNL     1       3.231   0.871   2.110  0.00  0.00    -0.309 N 
ATOM     23  H   UNL     1       3.392   0.028   1.659  0.00  0.00    +0.149 HD
BRANCH  22  24
ATOM     24  C   UNL     1       2.967   0.893   3.550  0.00  0.00    +0.026 C 
ATOM     25  C   UNL     1       1.588   1.504   3.807  0.00  0.00    +0.031 C 
ATOM     26  C   UNL     1       3.001  -0.536   4.097  0.00  0.00    +0.031 C 
ATOM     27  C   UNL     1       4.036   1.733   4.253  0.00  0.00    +0.031 C 
ENDBRANCH  22  24
ENDBRANCH  13  20
ENDBRANCH   1  13
BRANCH   2  28
ATOM     28  C   UNL     1       2.214   5.464  -1.034  0.00  0.00    +0.201 C 
BRANCH  28  29
ATOM     29  N   UNL     1       1.623   6.416  -0.089  0.00  0.00    -0.302 N 
ATOM     30  C   UNL     1       1.401   7.690  -0.467  0.00  0.00    +0.251 C 
ATOM     31  O   UNL     1       1.691   8.051  -1.592  0.00  0.00    -0.270 OA
ATOM     32  H   UNL     1       1.391   6.128   0.808  0.00  0.00    +0.150 HD
BRANCH  30  33
ATOM     33  C   UNL     1       0.809   8.642   0.478  0.00  0.00    +0.074 A 
ATOM     34  C   UNL     1       0.508   9.983   0.295  0.00  0.00    +0.021 A 
ATOM     35  C   UNL     1      -0.050  10.649   1.357  0.00  0.00    +0.008 A 
ATOM     36  C   UNL     1      -0.268   9.980   2.520  0.00  0.00    +0.046 A 
ATOM     37  S   UNL     1       0.297   8.379   2.167  0.00  0.00    -0.092 S 
ENDBRANCH  30  33
ENDBRANCH  28  29
ENDBRANCH   2  28
TORSDOF 9
