REMARK  Name = ZINC09329436
REMARK  4 active torsions:
REMARK  status: ('A' for Active; 'I' for Inactive)
REMARK    1  A    between atoms: C_3  and  C_7
REMARK    2  A    between atoms: C_7  and  C_9
REMARK    3  A    between atoms: C_11  and  C_29
REMARK    4  A    between atoms: C_32  and  N_35
REMARK                            x       y       z     vdW  Elec       q    Type
REMARK                         _______ _______ _______ _____ _____    ______ ____
ROOT
ATOM      1  C   UNL     1       2.100   1.968   1.368  0.00  0.00    +0.069 C 
ATOM      2  C   UNL     1       3.222   1.065   0.816  0.00  0.00    +0.016 C 
ATOM      3  C   UNL     1       2.951   0.956  -0.695  0.00  0.00    -0.047 C 
ATOM      4  C   UNL     1       4.295   0.958  -1.453  0.00  0.00    +0.052 C 
ATOM      5  S   UNL     1       4.210   2.554  -2.373  0.00  0.00    -0.181 S 
ATOM      6  C   UNL     1       2.840   3.314  -1.393  0.00  0.00    -0.005 C 
ATOM      7  C   UNL     1       1.252   2.349   0.151  0.00  0.00    +0.052 C 
ATOM      8  C   UNL     1       0.828   3.791   0.211  0.00  0.00    -0.024 A 
ATOM      9  C   UNL     1       1.522   4.979   0.260  0.00  0.00    +0.043 A 
ATOM     10  C   UNL     1       0.836   6.181   0.308  0.00  0.00    +0.124 A 
ATOM     11  C   UNL     1      -0.549   6.183   0.307  0.00  0.00    +0.040 A 
ATOM     12  C   UNL     1      -1.247   4.994   0.258  0.00  0.00    +0.026 A 
ATOM     13  C   UNL     1      -0.563   3.781   0.210  0.00  0.00    +0.036 A 
ATOM     14  N   UNL     1      -1.036   2.468   0.150  0.00  0.00    -0.286 N 
ATOM     15  C   UNL     1      -0.035   1.568   0.117  0.00  0.00    +0.212 C 
ATOM     16  O   UNL     1      -0.148   0.361   0.066  0.00  0.00    -0.277 OA
ATOM     17  F   UNL     1       1.515   7.348   0.355  0.00  0.00    -0.205 F 
ATOM     18  H   UNL     1      -1.977   2.231   0.136  0.00  0.00    +0.155 HD
ATOM     19  N   UNL     1       2.058   2.078  -1.026  0.00  0.00    +0.401 N 
ATOM     20  H   UNL     1       1.453   1.815  -1.813  0.00  0.00    -0.078 HD
ENDROOT
BRANCH   2  21
ATOM     21  C   UNL     1       3.159  -0.297   1.457  0.00  0.00    -0.045 A 
ATOM     22  C   UNL     1       2.124  -1.159   1.148  0.00  0.00    +0.006 A 
ATOM     23  C   UNL     1       2.069  -2.411   1.733  0.00  0.00    +0.033 A 
ATOM     24  C   UNL     1       3.044  -2.796   2.635  0.00  0.00    +0.126 A 
ATOM     25  C   UNL     1       4.077  -1.932   2.947  0.00  0.00    +0.033 A 
ATOM     26  C   UNL     1       4.134  -0.682   2.359  0.00  0.00    +0.006 A 
BRANCH  24  27
ATOM     27  N   UNL     1       2.982  -4.134   3.264  0.00  0.00    +0.056 N 
ATOM     28  O   UNL     1       3.841  -4.473   4.058  0.00  0.00    -0.126 OA
ATOM     29  O   UNL     1       2.072  -4.895   2.989  0.00  0.00    -0.126 OA
ENDBRANCH  24  27
ENDBRANCH   2  21
BRANCH   1  30
ATOM     30  C   UNL     1       2.687   3.202   2.003  0.00  0.00    +0.168 C 
ATOM     31  O   UNL     1       3.773   3.609   1.647  0.00  0.00    -0.292 OA
BRANCH  30  34
ATOM     32  C   UNL     1       1.737   5.695   4.636  0.00  0.00    +0.020 A 
ATOM     33  C   UNL     1       2.480   5.061   3.657  0.00  0.00    +0.014 A 
ATOM     34  C   UNL     1       1.942   3.915   3.054  0.00  0.00    +0.036 A 
ATOM     35  C   UNL     1       0.689   3.457   3.473  0.00  0.00    +0.122 A 
ATOM     36  N   UNL     1       0.025   4.095   4.413  0.00  0.00    -0.263 NA
ATOM     37  C   UNL     1       0.504   5.179   4.993  0.00  0.00    +0.111 A 
ENDBRANCH  30  34
ENDBRANCH   1  30
TORSDOF 4
