REMARK  Name = ZINC16478524
REMARK  4 active torsions:
REMARK  status: ('A' for Active; 'I' for Inactive)
REMARK    1  A    between atoms: C_4  and  C_7
REMARK    2  A    between atoms: N_18  and  N_19
REMARK    3  A    between atoms: N_19  and  S_20
REMARK    4  A    between atoms: S_20  and  C_23
REMARK                            x       y       z     vdW  Elec       q    Type
REMARK                         _______ _______ _______ _____ _____    ______ ____
ROOT
ATOM      1  C   UNL     1       3.711  -0.707  -0.038  0.00  0.00    +0.136 C 
ATOM      2  C   UNL     1       4.042  -1.194   1.353  0.00  0.00    +0.003 A 
ATOM      3  C   UNL     1       4.705  -0.378   2.242  0.00  0.00    +0.008 A 
ATOM      4  C   UNL     1       4.992  -0.834   3.517  0.00  0.00    +0.000 A 
ATOM      5  C   UNL     1       4.614  -2.108   3.903  0.00  0.00    +0.002 A 
ATOM      6  C   UNL     1       3.954  -2.936   3.019  0.00  0.00    +0.028 A 
ATOM      7  C   UNL     1       3.666  -2.485   1.729  0.00  0.00    +0.073 A 
ATOM      8  N   UNL     1       3.040  -3.308   0.835  0.00  0.00    -0.218 NA
ATOM      9  C   UNL     1       2.991  -3.013  -0.442  0.00  0.00    +0.197 C 
ATOM     10  N   UNL     1       3.613  -1.881  -0.919  0.00  0.00    -0.305 N 
ATOM     11  N   UNL     1       2.318  -3.837  -1.307  0.00  0.00    -0.234 N 
ATOM     12  H   UNL     1       2.280  -3.621  -2.252  0.00  0.00    +0.171 HD
ATOM     13  H   UNL     1       3.979  -1.857  -1.817  0.00  0.00    +0.150 HD
ENDROOT
BRANCH   1  17
ATOM     14  C   UNL     1      -0.017   1.378   0.010  0.00  0.00    +0.000 A 
ATOM     15  C   UNL     1       1.171   2.086   0.002  0.00  0.00    +0.000 A 
ATOM     16  C   UNL     1       2.377   1.411  -0.013  0.00  0.00    +0.006 A 
ATOM     17  C   UNL     1       2.396   0.029  -0.020  0.00  0.00    -0.023 A 
ATOM     18  C   UNL     1       1.208  -0.679  -0.012  0.00  0.00    +0.006 A 
ATOM     19  C   UNL     1       0.002  -0.004   0.002  0.00  0.00    +0.000 A 
ENDBRANCH   1  17
BRANCH  11  20
ATOM     20  N   UNL     1       1.684  -4.990  -0.827  0.00  0.00    -0.108 NA
ATOM     21  H   UNL     1       2.189  -5.645  -0.319  0.00  0.00    +0.172 HD
BRANCH  20  22
ATOM     22  S   UNL     1       0.074  -5.236  -1.125  0.00  0.00    +0.074 S 
ATOM     23  O   UNL     1      -0.234  -6.537  -0.644  0.00  0.00    -0.152 OA
ATOM     24  O   UNL     1      -0.606  -4.074  -0.669  0.00  0.00    -0.152 OA
BRANCH  22  25
ATOM     25  C   UNL     1      -0.130  -5.284  -2.875  0.00  0.00    +0.107 A 
ATOM     26  C   UNL     1      -0.383  -4.118  -3.573  0.00  0.00    +0.029 A 
ATOM     27  C   UNL     1      -0.543  -4.155  -4.946  0.00  0.00    +0.017 A 
ATOM     28  C   UNL     1      -0.450  -5.359  -5.620  0.00  0.00    +0.018 A 
ATOM     29  C   UNL     1      -0.197  -6.526  -4.921  0.00  0.00    +0.017 A 
ATOM     30  C   UNL     1      -0.032  -6.487  -3.549  0.00  0.00    +0.029 A 
ATOM     31 BR   UNL     1      -0.669  -5.411  -7.498  0.00  0.00    -0.050 Br
ENDBRANCH  22  25
ENDBRANCH  20  22
ENDBRANCH  11  20
TORSDOF 4
