REMARK  Name = ZINC36605822
REMARK  16 active torsions:
REMARK  status: ('A' for Active; 'I' for Inactive)
REMARK    1  A    between atoms: C_1  and  C_2
REMARK    2  A    between atoms: C_2  and  C_3
REMARK    3  A    between atoms: C_2  and  C_4
REMARK    4  A    between atoms: C_2  and  C_5
REMARK    5  A    between atoms: C_5  and  C_6
REMARK    6  A    between atoms: C_6  and  C_7
REMARK    7  A    between atoms: C_6  and  C_8
REMARK    8  A    between atoms: C_6  and  N_9
REMARK    9  A    between atoms: C_10  and  C_12
REMARK   10  A    between atoms: C_12  and  C_14
REMARK   11  A    between atoms: C_12  and  N_21
REMARK   12  A    between atoms: C_17  and  O_20
REMARK   13  A    between atoms: N_21  and  C_22
REMARK   14  A    between atoms: C_28  and  C_30
REMARK   15  A    between atoms: C_30  and  C_31
REMARK   16  A    between atoms: C_31  and  C_32
REMARK                            x       y       z     vdW  Elec       q    Type
REMARK                         _______ _______ _______ _____ _____    ______ ____
ROOT
ATOM      1  C   UNL     1       5.248   0.257  -4.136  0.00  0.00    +0.197 C 
ENDROOT
BRANCH   1   2
ATOM      2  C   UNL     1       4.550   1.382  -4.856  0.00  0.00    -0.018 A 
ATOM      3  C   UNL     1       5.045   2.670  -4.769  0.00  0.00    +0.009 A 
ATOM      4  C   UNL     1       4.407   3.703  -5.428  0.00  0.00    +0.046 A 
ATOM      5  C   UNL     1       3.268   3.447  -6.178  0.00  0.00    +0.117 A 
ATOM      6  C   UNL     1       2.773   2.154  -6.264  0.00  0.00    +0.046 A 
ATOM      7  C   UNL     1       3.418   1.123  -5.607  0.00  0.00    +0.009 A 
BRANCH   5   8
ATOM      8  O   UNL     1       2.638   4.461  -6.827  0.00  0.00    -0.507 OA
ATOM      9  H   UNL     1       2.958   4.611  -7.727  0.00  0.00    +0.292 HD
ENDBRANCH   5   8
ENDBRANCH   1   2
BRANCH   1  11
ATOM     10  N   UNL     1       3.930   0.532  -2.060  0.00  0.00    -0.308 N 
ATOM     11  C   UNL     1       5.142   0.471  -2.648  0.00  0.00    +0.239 C 
ATOM     12  O   UNL     1       6.147   0.589  -1.979  0.00  0.00    -0.273 OA
ATOM     13  H   UNL     1       3.127   0.438  -2.595  0.00  0.00    +0.149 HD
BRANCH  10  14
ATOM     14  C   UNL     1       3.828   0.740  -0.614  0.00  0.00    +0.030 C 
ATOM     15  C   UNL     1       4.624   1.986  -0.220  0.00  0.00    +0.031 C 
ATOM     16  C   UNL     1       4.393  -0.479   0.118  0.00  0.00    +0.031 C 
BRANCH  14  17
ATOM     17  C   UNL     1       2.359   0.931  -0.229  0.00  0.00    +0.031 C 
BRANCH  17  19
ATOM     18  C   UNL     1       1.310   1.050  -2.493  0.00  0.00    +0.010 C 
ATOM     19  C   UNL     1       1.681   1.852  -1.245  0.00  0.00    -0.036 C 
ATOM     20  C   UNL     1       2.641   2.980  -1.630  0.00  0.00    +0.010 C 
ATOM     21  C   UNL     1       0.415   2.449  -0.627  0.00  0.00    +0.010 C 
ENDBRANCH  17  19
ENDBRANCH  14  17
ENDBRANCH  10  14
ENDBRANCH   1  11
BRANCH   1  22
ATOM     22  N   UNL     1       6.659   0.229  -4.526  0.00  0.00    -0.255 N 
ATOM     23  C   UNL     1       7.485  -0.699  -4.003  0.00  0.00    +0.221 C 
ATOM     24  O   UNL     1       7.037  -1.583  -3.303  0.00  0.00    -0.275 OA
BRANCH  22  25
ATOM     25  C   UNL     1       7.151   1.166  -5.441  0.00  0.00    +0.037 A 
ATOM     26  C   UNL     1       8.074   2.120  -5.033  0.00  0.00    +0.023 A 
ATOM     27  C   UNL     1       8.557   3.043  -5.939  0.00  0.00    +0.002 A 
ATOM     28  C   UNL     1       8.124   3.018  -7.252  0.00  0.00    +0.000 A 
ATOM     29  C   UNL     1       7.205   2.070  -7.662  0.00  0.00    +0.002 A 
ATOM     30  C   UNL     1       6.721   1.140  -6.762  0.00  0.00    +0.023 A 
ENDBRANCH  22  25
BRANCH  23  31
ATOM     31  C   UNL     1       8.963  -0.639  -4.287  0.00  0.00    +0.096 C 
BRANCH  31  32
ATOM     32  C   UNL     1       9.681  -1.732  -3.493  0.00  0.00    +0.013 C 
BRANCH  32  33
ATOM     33  C   UNL     1      11.182  -1.671  -3.782  0.00  0.00    -0.011 C 
ATOM     34  C   UNL     1      11.432  -2.009  -5.253  0.00  0.00    +0.003 C 
ATOM     35  C   UNL     1      12.934  -1.948  -5.542  0.00  0.00    +0.000 C 
ATOM     36  C   UNL     1      13.665  -2.957  -4.654  0.00  0.00    +0.000 C 
ATOM     37  C   UNL     1      13.415  -2.619  -3.183  0.00  0.00    +0.000 C 
ATOM     38  C   UNL     1      11.914  -2.680  -2.894  0.00  0.00    +0.003 C 
ENDBRANCH  32  33
ENDBRANCH  31  32
ENDBRANCH  23  31
ENDBRANCH   1  22
TORSDOF 11
