REMARK  Name = ZINC65380342
REMARK  9 active torsions:
REMARK  status: ('A' for Active; 'I' for Inactive)
REMARK    1  A    between atoms: C_1  and  C_2
REMARK    2  A    between atoms: C_2  and  C_4
REMARK    3  A    between atoms: C_2  and  N_17
REMARK    4  A    between atoms: C_13  and  O_16
REMARK    5  A    between atoms: N_17  and  C_18
REMARK    6  A    between atoms: C_18  and  C_19
REMARK    7  A    between atoms: N_21  and  C_22
REMARK    8  A    between atoms: C_27  and  N_28
REMARK    9  A    between atoms: C_29  and  C_31
REMARK                            x       y       z     vdW  Elec       q    Type
REMARK                         _______ _______ _______ _____ _____    ______ ____
ROOT
ATOM      1  N   UNL     1       0.710  -0.471  -1.211  0.00  0.00    +0.387 N 
ATOM      2  H   UNL     1       1.634  -0.069  -1.266  0.00  0.00    -0.085 HD
ATOM      3  H   UNL     1       0.783  -1.477  -1.171  0.00  0.00    -0.085 HD
ENDROOT
BRANCH   1   5
ATOM      4  C   UNL     1       0.034   1.549  -0.004  0.00  0.00    -0.013 C 
ATOM      5  C   UNL     1       0.034   0.019  -0.003  0.00  0.00    -0.068 C 
BRANCH   5   6
ATOM      6  C   UNL     1       0.772  -0.489   1.237  0.00  0.00    -0.039 C 
ATOM      7  C   UNL     1       0.772  -2.019   1.238  0.00  0.00    +0.009 C 
ATOM      8  C   UNL     1       1.510  -2.529   2.478  0.00  0.00    -0.008 C 
ATOM      9  C   UNL     1       2.953  -2.018   2.458  0.00  0.00    +0.007 C 
ATOM     10  C   UNL     1       2.953  -0.488   2.457  0.00  0.00    -0.008 C 
ATOM     11  C   UNL     1       2.214   0.021   1.217  0.00  0.00    +0.009 C 
ATOM     12  C   UNL     1       2.248   0.022   3.716  0.00  0.00    +0.038 C 
ATOM     13  C   UNL     1       0.806  -0.487   3.735  0.00  0.00    +0.067 C 
ATOM     14  C   UNL     1       0.806  -2.018   3.737  0.00  0.00    +0.038 C 
ATOM     15  C   UNL     1       0.068   0.021   2.496  0.00  0.00    +0.040 C 
BRANCH  13  16
ATOM     16  O   UNL     1       0.148  -0.010   4.911  0.00  0.00    -0.389 OA
ATOM     17  H   UNL     1       0.563  -0.295   5.737  0.00  0.00    +0.210 HD
ENDBRANCH  13  16
ENDBRANCH   5   6
ENDBRANCH   1   5
BRANCH   1  18
ATOM     18  C   UNL     1      -0.065  -0.084  -2.397  0.00  0.00    +0.016 C 
BRANCH  18  19
ATOM     19  C   UNL     1       0.629  -0.587  -3.637  0.00  0.00    +0.200 C 
ATOM     20  O   UNL     1       1.667  -1.208  -3.541  0.00  0.00    -0.278 OA
ATOM     21  N   UNL     1       0.096  -0.347  -4.851  0.00  0.00    -0.286 N 
ATOM     22  H   UNL     1      -0.772   0.078  -4.925  0.00  0.00    +0.155 HD
BRANCH  21  23
ATOM     23  C   UNL     1       0.797  -0.713  -6.008  0.00  0.00    +0.055 A 
ATOM     24  C   UNL     1       2.179  -0.830  -5.976  0.00  0.00    +0.025 A 
ATOM     25  C   UNL     1       2.868  -1.190  -7.118  0.00  0.00    +0.002 A 
ATOM     26  C   UNL     1       2.185  -1.436  -8.295  0.00  0.00    +0.002 A 
ATOM     27  C   UNL     1       0.808  -1.322  -8.336  0.00  0.00    +0.025 A 
ATOM     28  C   UNL     1       0.107  -0.966  -7.193  0.00  0.00    +0.055 A 
BRANCH  28  29
ATOM     29  N   UNL     1      -1.288  -0.855  -7.231  0.00  0.00    -0.284 N 
ATOM     30  C   UNL     1      -1.913  -0.595  -8.396  0.00  0.00    +0.214 C 
ATOM     31  O   UNL     1      -1.262  -0.357  -9.393  0.00  0.00    -0.276 OA
ATOM     32  C   UNL     1      -3.418  -0.598  -8.462  0.00  0.00    +0.109 C 
ATOM     33  H   UNL     1      -1.806  -0.965  -6.418  0.00  0.00    +0.155 HD
ENDBRANCH  28  29
ENDBRANCH  21  23
ENDBRANCH  18  19
ENDBRANCH   1  18
TORSDOF 7
