REMARK  Name = ZINC39609099
REMARK  6 active torsions:
REMARK  status: ('A' for Active; 'I' for Inactive)
REMARK    1  A    between atoms: C_4  and  C_7
REMARK    2  A    between atoms: C_7  and  O_8
REMARK    3  A    between atoms: O_8  and  C_9
REMARK    4  A    between atoms: C_14  and  N_16
REMARK    5  A    between atoms: C_17  and  C_19
REMARK    6  A    between atoms: C_30  and  C_32
REMARK                            x       y       z     vdW  Elec       q    Type
REMARK                         _______ _______ _______ _____ _____    ______ ____
ROOT
ATOM      1  C   UNL     1       9.443   0.772   2.861  0.00  0.00    +0.100 C 
ATOM      2  C   UNL     1       9.349   1.534   1.521  0.00  0.00    +0.121 C 
ATOM      3  N   UNL     1       9.101   2.943   1.908  0.00  0.00    -0.297 N 
ATOM      4  C   UNL     1       9.957   3.154   3.100  0.00  0.00    +0.115 C 
ATOM      5  C   UNL     1       9.846   1.837   3.894  0.00  0.00    -0.004 C 
ATOM      6  C   UNL     1      11.191   1.483   4.521  0.00  0.00    -0.010 C 
ATOM      7  C   UNL     1      11.543   2.526   5.587  0.00  0.00    -0.082 C 
ATOM      8  N   UNL     1      10.494   2.553   6.613  0.00  0.00    +0.379 N 
ATOM      9  C   UNL     1       9.223   2.985   6.019  0.00  0.00    -0.082 C 
ATOM     10  C   UNL     1       8.773   1.961   4.972  0.00  0.00    -0.010 C 
ATOM     11  C   UNL     1       8.283   3.832   1.311  0.00  0.00    +0.260 C 
ATOM     12  O   UNL     1       7.569   3.480   0.396  0.00  0.00    -0.271 OA
ATOM     13  H   UNL     1      10.384   1.629   7.004  0.00  0.00    -0.086 HD
ATOM     14  H   UNL     1      10.757   3.196   7.345  0.00  0.00    -0.086 HD
ENDROOT
BRANCH  11  15
ATOM     15  C   UNL     1       8.255   5.264   1.780  0.00  0.00    +0.296 C 
ATOM     16  C   UNL     1       9.579   5.952   1.421  0.00  0.00    +0.283 C 
ATOM     17  O   UNL     1       9.513   7.311   1.868  0.00  0.00    -0.484 OA
ATOM     18  C   UNL     1       8.373   7.996   1.576  0.00  0.00    +0.162 A 
ATOM     19  C   UNL     1       8.375   9.381   1.646  0.00  0.00    +0.049 A 
ATOM     20  C   UNL     1       7.225  10.091   1.356  0.00  0.00    +0.004 A 
ATOM     21  C   UNL     1       6.070   9.422   0.995  0.00  0.00    +0.004 A 
ATOM     22  C   UNL     1       6.062   8.042   0.922  0.00  0.00    +0.049 A 
ATOM     23  C   UNL     1       7.213   7.324   1.211  0.00  0.00    +0.163 A 
ATOM     24  O   UNL     1       7.192   5.965   1.127  0.00  0.00    -0.473 OA
ENDBRANCH  11  15
BRANCH   1  26
ATOM     25  N   UNL     1       8.050  -0.966   3.938  0.00  0.00    -0.310 N 
ATOM     26  C   UNL     1       8.107   0.173   3.219  0.00  0.00    +0.218 C 
ATOM     27  O   UNL     1       7.083   0.716   2.861  0.00  0.00    -0.275 OA
ATOM     28  H   UNL     1       8.868  -1.401   4.224  0.00  0.00    +0.149 HD
BRANCH  25  33
ATOM     29  C   UNL     1       6.897  -3.062   4.520  0.00  0.00    +0.139 C 
ATOM     30  C   UNL     1       6.470  -3.326   5.979  0.00  0.00    +0.033 C 
ATOM     31  C   UNL     1       6.681  -1.965   6.689  0.00  0.00    +0.004 C 
ATOM     32  C   UNL     1       6.238  -0.945   5.611  0.00  0.00    +0.025 C 
ATOM     33  C   UNL     1       6.751  -1.548   4.285  0.00  0.00    +0.102 C 
BRANCH  29  34
ATOM     34  O   UNL     1       6.048  -3.781   3.624  0.00  0.00    -0.370 OA
BRANCH  34  35
ATOM     35  C   UNL     1       6.537  -5.077   3.274  0.00  0.00    +0.195 C 
BRANCH  35  39
ATOM     36  C   UNL     1       3.793  -6.963   0.598  0.00  0.00    +0.000 A 
ATOM     37  C   UNL     1       4.821  -6.185   0.099  0.00  0.00    +0.000 A 
ATOM     38  C   UNL     1       5.709  -5.575   0.965  0.00  0.00    +0.006 A 
ATOM     39  C   UNL     1       5.569  -5.742   2.330  0.00  0.00    -0.022 A 
ATOM     40  C   UNL     1       4.540  -6.519   2.829  0.00  0.00    +0.006 A 
ATOM     41  C   UNL     1       3.653  -7.130   1.963  0.00  0.00    +0.000 A 
ENDBRANCH  35  39
ENDBRANCH  34  35
ENDBRANCH  29  34
ENDBRANCH  25  33
ENDBRANCH   1  26
TORSDOF 6
