REMARK  Name = ZINC15938720
REMARK  4 active torsions:
REMARK  status: ('A' for Active; 'I' for Inactive)
REMARK    1  A    between atoms: C_1  and  C_2
REMARK    2  A    between atoms: C_2  and  C_16
REMARK    3  A    between atoms: N_3  and  N_4
REMARK    4  A    between atoms: C_5  and  C_7
REMARK                            x       y       z     vdW  Elec       q    Type
REMARK                         _______ _______ _______ _____ _____    ______ ____
ROOT
ATOM      1  N   UNL     1       5.489  -1.831   2.797  0.00  0.00    -0.203 N 
ATOM      2  C   UNL     1       5.076  -0.664   2.265  0.00  0.00    +0.263 C 
ATOM      3  O   UNL     1       5.817   0.301   2.265  0.00  0.00    -0.268 OA
ATOM      4  H   UNL     1       4.897  -2.600   2.797  0.00  0.00    +0.178 HD
ENDROOT
BRANCH   2   5
ATOM      5  C   UNL     1       3.724  -0.555   1.683  0.00  0.00    +0.042 A 
ATOM      6  C   UNL     1       2.871  -1.662   1.682  0.00  0.00    +0.017 A 
ATOM      7  C   UNL     1       1.609  -1.558   1.138  0.00  0.00    +0.050 A 
ATOM      8  C   UNL     1       1.181  -0.356   0.590  0.00  0.00    +0.166 A 
ATOM      9  C   UNL     1       2.028   0.752   0.588  0.00  0.00    +0.167 A 
ATOM     10  C   UNL     1       3.294   0.655   1.131  0.00  0.00    +0.062 A 
ATOM     11  O   UNL     1       1.376   1.797  -0.001  0.00  0.00    -0.453 OA
ATOM     12  C   UNL     1      -0.017   1.435   0.010  0.00  0.00    +0.466 C 
ATOM     13  O   UNL     1       0.002  -0.004   0.002  0.00  0.00    -0.453 OA
ENDBRANCH   2   5
BRANCH   1  16
ATOM     14  C   UNL     1       6.252  -4.256   3.863  0.00  0.00    +0.068 C 
ATOM     15  C   UNL     1       7.170  -3.062   3.863  0.00  0.00    +0.070 C 
ATOM     16  N   UNL     1       6.772  -1.934   3.350  0.00  0.00    -0.184 NA
BRANCH  15  17
ATOM     17  C   UNL     1       8.513  -3.170   4.441  0.00  0.00    +0.036 A 
ATOM     18  C   UNL     1       9.502  -2.206   4.536  0.00  0.00    +0.019 A 
ATOM     19  C   UNL     1      10.693  -2.548   5.133  0.00  0.00    +0.028 A 
ATOM     20  C   UNL     1      10.865  -3.815   5.597  0.00  0.00    +0.079 A 
ATOM     21  S   UNL     1       9.301  -4.580   5.200  0.00  0.00    -0.076 S 
ATOM     22 CL   UNL     1      12.251  -4.511   6.375  0.00  0.00    -0.076 Cl
ENDBRANCH  15  17
ENDBRANCH   1  16
TORSDOF 3
