REMARK  Name = ZINC20794531
REMARK  5 active torsions:
REMARK  status: ('A' for Active; 'I' for Inactive)
REMARK    1  A    between atoms: C_1  and  C_2
REMARK    2  A    between atoms: C_2  and  C_23
REMARK    3  A    between atoms: N_5  and  C_9
REMARK    4  A    between atoms: C_9  and  C_10
REMARK    5  A    between atoms: N_12  and  C_13
REMARK                            x       y       z     vdW  Elec       q    Type
REMARK                         _______ _______ _______ _____ _____    ______ ____
ROOT
ATOM      1  C   UNL     1      -0.698   2.034   1.278  0.00  0.00    +0.047 C 
ATOM      2  C   UNL     1      -0.018   1.512   0.010  0.00  0.00    +0.135 C 
ATOM      3  C   UNL     1       0.002  -0.004   0.002  0.00  0.00    +0.251 C 
ATOM      4  O   UNL     1      -0.954  -0.749   0.008  0.00  0.00    -0.272 OA
ATOM      5  N   UNL     1       1.304  -0.351  -0.012  0.00  0.00    -0.215 N 
ATOM      6  C   UNL     1       2.101   0.724  -0.014  0.00  0.00    +0.310 C 
ATOM      7  O   UNL     1       3.315   0.665  -0.026  0.00  0.00    -0.252 OA
ATOM      8  N   UNL     1       1.409   1.877  -0.001  0.00  0.00    -0.281 N 
ATOM      9  H   UNL     1       1.705   2.937   0.002  0.00  0.00    +0.152 HD
ENDROOT
BRANCH   2  10
ATOM     10  C   UNL     1      -0.711   2.039  -1.220  0.00  0.00    -0.015 A 
ATOM     11  C   UNL     1      -1.712   1.299  -1.820  0.00  0.00    +0.007 A 
ATOM     12  C   UNL     1      -2.352   1.785  -2.945  0.00  0.00    +0.020 A 
ATOM     13  C   UNL     1      -1.982   3.007  -3.477  0.00  0.00    +0.041 A 
ATOM     14  C   UNL     1      -0.976   3.745  -2.878  0.00  0.00    +0.020 A 
ATOM     15  C   UNL     1      -0.341   3.261  -1.750  0.00  0.00    +0.007 A 
ATOM     16 CL   UNL     1      -2.780   3.615  -4.893  0.00  0.00    -0.084 Cl
ENDBRANCH   2  10
BRANCH   5  17
ATOM     17  C   UNL     1       1.788  -1.734  -0.024  0.00  0.00    +0.213 C 
BRANCH  17  18
ATOM     18  C   UNL     1       1.940  -2.201  -1.448  0.00  0.00    +0.231 C 
ATOM     19  O   UNL     1       1.671  -1.453  -2.364  0.00  0.00    -0.274 OA
ATOM     20  N   UNL     1       2.375  -3.451  -1.705  0.00  0.00    -0.308 N 
ATOM     21  H   UNL     1       2.619  -4.129  -0.874  0.00  0.00    +0.149 HD
BRANCH  20  22
ATOM     22  C   UNL     1       2.522  -3.905  -3.090  0.00  0.00    +0.035 C 
ATOM     23  C   UNL     1       1.168  -3.833  -3.797  0.00  0.00    +0.029 C 
ATOM     24  C   UNL     1       1.322  -4.307  -5.244  0.00  0.00    -0.008 C 
ATOM     25  C   UNL     1       1.827  -5.751  -5.255  0.00  0.00    +0.007 C 
ATOM     26  C   UNL     1       3.182  -5.824  -4.548  0.00  0.00    -0.008 C 
ATOM     27  C   UNL     1       3.027  -5.349  -3.101  0.00  0.00    +0.029 C 
ATOM     28  C   UNL     1       4.186  -4.927  -5.274  0.00  0.00    +0.007 C 
ATOM     29  C   UNL     1       3.681  -3.482  -5.263  0.00  0.00    -0.008 C 
ATOM     30  C   UNL     1       2.326  -3.410  -5.970  0.00  0.00    +0.007 C 
ATOM     31  C   UNL     1       3.526  -3.008  -3.816  0.00  0.00    +0.029 C 
ENDBRANCH  20  22
ENDBRANCH  17  18
ENDBRANCH   5  17
TORSDOF 4
