REMARK  Name = ZINC33937147
REMARK  13 active torsions:
REMARK  status: ('A' for Active; 'I' for Inactive)
REMARK    1  A    between atoms: C_1  and  C_2
REMARK    2  A    between atoms: C_2  and  C_3
REMARK    3  A    between atoms: C_3  and  C_5
REMARK    4  A    between atoms: C_3  and  N_16
REMARK    5  A    between atoms: N_9  and  C_10
REMARK    6  A    between atoms: C_10  and  C_11
REMARK    7  A    between atoms: N_16  and  C_17
REMARK    8  A    between atoms: N_16  and  C_33
REMARK    9  A    between atoms: C_17  and  C_18
REMARK   10  A    between atoms: C_22  and  O_30
REMARK   11  A    between atoms: O_30  and  C_31
REMARK   12  A    between atoms: C_31  and  C_32
REMARK   13  A    between atoms: C_33  and  C_34
REMARK                            x       y       z     vdW  Elec       q    Type
REMARK                         _______ _______ _______ _____ _____    ______ ____
ROOT
ATOM      1  N   UNL     1       2.430  -0.025  -0.444  0.00  0.00    +0.391 N 
ATOM      2  H   UNL     1       2.918  -0.382   0.364  0.00  0.00    -0.080 HD
ENDROOT
BRANCH   1   3
ATOM      3  C   UNL     1       1.005  -0.365  -0.344  0.00  0.00    +0.003 C 
BRANCH   3   4
ATOM      4  C   UNL     1       0.262   0.236  -1.510  0.00  0.00    +0.139 A 
ATOM      5  N   UNL     1       0.701   0.357  -2.739  0.00  0.00    -0.115 NA
ATOM      6  N   UNL     1      -0.224   0.919  -3.438  0.00  0.00    -0.023 NA
ATOM      7  N   UNL     1      -1.241   1.161  -2.686  0.00  0.00    -0.044 NA
ATOM      8  N   UNL     1      -0.982   0.749  -1.491  0.00  0.00    -0.223 N 
BRANCH   8   9
ATOM      9  C   UNL     1      -1.873   0.829  -0.331  0.00  0.00    +0.221 C 
BRANCH   9  10
ATOM     10  C   UNL     1      -1.752   2.190   0.303  0.00  0.00    +0.126 A 
ATOM     11  C   UNL     1      -2.516   3.260   0.022  0.00  0.00    +0.046 A 
ATOM     12  C   UNL     1      -2.060   4.317   0.843  0.00  0.00    +0.041 A 
ATOM     13  C   UNL     1      -1.044   3.829   1.577  0.00  0.00    +0.195 A 
ATOM     14  O   UNL     1      -0.865   2.539   1.250  0.00  0.00    -0.466 OA
ENDBRANCH   9  10
ENDBRANCH   8   9
ENDBRANCH   3   4
BRANCH   3  16
ATOM     15  C   UNL     1       1.547  -2.493   0.849  0.00  0.00    +0.002 C 
ATOM     16  C   UNL     1       0.841  -1.886  -0.366  0.00  0.00    -0.011 C 
ENDBRANCH   3  16
ENDBRANCH   1   3
BRANCH   1  17
ATOM     17  C   UNL     1       2.993  -0.624  -1.661  0.00  0.00    -0.036 C 
BRANCH  17  18
ATOM     18  C   UNL     1       4.483  -0.398  -1.689  0.00  0.00    +0.001 A 
ATOM     19  C   UNL     1       5.321  -1.358  -1.224  0.00  0.00    +0.017 A 
ATOM     20  C   UNL     1       6.763  -1.108  -1.265  0.00  0.00    +0.002 A 
ATOM     21  C   UNL     1       7.674  -2.062  -0.799  0.00  0.00    +0.055 A 
ATOM     22  C   UNL     1       9.027  -1.794  -0.853  0.00  0.00    +0.121 A 
ATOM     23  C   UNL     1       9.485  -0.583  -1.367  0.00  0.00    +0.047 A 
ATOM     24  C   UNL     1       8.597   0.363  -1.828  0.00  0.00    +0.030 A 
ATOM     25  C   UNL     1       7.229   0.114  -1.783  0.00  0.00    +0.049 A 
ATOM     26  N   UNL     1       6.324   1.050  -2.241  0.00  0.00    -0.322 N 
ATOM     27  H   UNL     1       6.646   1.892  -2.599  0.00  0.00    +0.169 HD
ATOM     28  C   UNL     1       5.002   0.809  -2.205  0.00  0.00    +0.251 A 
ATOM     29  O   UNL     1       4.232   1.656  -2.622  0.00  0.00    -0.268 OA
BRANCH  22  30
ATOM     30  O   UNL     1       9.918  -2.717  -0.402  0.00  0.00    -0.492 OA
BRANCH  30  31
ATOM     31  C   UNL     1      11.303  -2.377  -0.486  0.00  0.00    +0.225 C 
ATOM     32  C   UNL     1      12.145  -3.530   0.065  0.00  0.00    +0.048 C 
ENDBRANCH  30  31
ENDBRANCH  22  30
ENDBRANCH  17  18
ENDBRANCH   1  17
BRANCH   1  33
ATOM     33  C   UNL     1       2.582   1.435  -0.501  0.00  0.00    -0.045 C 
BRANCH  33  34
ATOM     34  C   UNL     1       2.116   2.049   0.820  0.00  0.00    +0.102 C 
ATOM     35  C   UNL     1       2.232   3.587   0.753  0.00  0.00    +0.032 C 
ATOM     36  C   UNL     1       2.737   3.942   2.178  0.00  0.00    +0.030 C 
ATOM     37  C   UNL     1       3.632   2.715   2.487  0.00  0.00    +0.160 C 
ATOM     38  O   UNL     1       2.955   1.596   1.889  0.00  0.00    -0.378 OA
ENDBRANCH  33  34
ENDBRANCH   1  33
TORSDOF 11
