REMARK  Name = ZINC14538063
REMARK  10 active torsions:
REMARK  status: ('A' for Active; 'I' for Inactive)
REMARK    1  A    between atoms: C_1  and  C_2
REMARK    2  A    between atoms: C_3  and  C_8
REMARK    3  A    between atoms: C_4  and  C_7
REMARK    4  A    between atoms: C_8  and  O_9
REMARK    5  A    between atoms: O_9  and  C_10
REMARK    6  A    between atoms: N_17  and  C_19
REMARK    7  A    between atoms: C_19  and  C_20
REMARK    8  A    between atoms: C_20  and  C_21
REMARK    9  A    between atoms: C_20  and  C_22
REMARK   10  A    between atoms: C_23  and  C_25
REMARK                            x       y       z     vdW  Elec       q    Type
REMARK                         _______ _______ _______ _____ _____    ______ ____
ROOT
ATOM      1  C   UNL     1       0.462   3.571  -1.723  0.00  0.00    +0.153 C 
ATOM      2  C   UNL     1      -0.234   2.591  -2.659  0.00  0.00    +0.141 C 
ATOM      3  N   UNL     1      -0.373   1.272  -2.047  0.00  0.00    -0.286 N 
ATOM      4  C   UNL     1       0.817   0.493  -1.688  0.00  0.00    +0.204 C 
ATOM      5  C   UNL     1       1.332   0.978  -0.350  0.00  0.00    +0.233 C 
ATOM      6  O   UNL     1       1.266   0.264   0.628  0.00  0.00    -0.274 OA
ATOM      7  N   UNL     1       1.860   2.209  -0.256  0.00  0.00    -0.297 N 
ATOM      8  C   UNL     1       1.886   3.096  -1.424  0.00  0.00    +0.141 C 
ATOM      9  C   UNL     1      -1.600   0.768  -1.812  0.00  0.00    +0.247 C 
ATOM     10  O   UNL     1      -2.583   1.471  -1.950  0.00  0.00    -0.270 OA
ENDROOT
BRANCH   9  11
ATOM     11  C   UNL     1      -1.752  -0.637  -1.386  0.00  0.00    +0.041 A 
ATOM     12  C   UNL     1      -1.071  -1.105  -0.259  0.00  0.00    +0.017 A 
ATOM     13  C   UNL     1      -1.215  -2.416   0.138  0.00  0.00    +0.050 A 
ATOM     14  C   UNL     1      -2.035  -3.277  -0.579  0.00  0.00    +0.166 A 
ATOM     15  C   UNL     1      -2.717  -2.817  -1.706  0.00  0.00    +0.167 A 
ATOM     16  C   UNL     1      -2.581  -1.501  -2.105  0.00  0.00    +0.062 A 
ATOM     17  O   UNL     1      -3.447  -3.848  -2.225  0.00  0.00    -0.453 OA
ATOM     18  C   UNL     1      -3.527  -4.828  -1.173  0.00  0.00    +0.466 C 
ATOM     19  O   UNL     1      -2.338  -4.594  -0.395  0.00  0.00    -0.453 OA
ENDBRANCH   9  11
BRANCH   1  20
ATOM     20  O   UNL     1       0.516   4.859  -2.340  0.00  0.00    -0.369 OA
BRANCH  20  21
ATOM     21  C   UNL     1      -0.613   5.688  -2.054  0.00  0.00    +0.200 C 
BRANCH  21  24
ATOM     22  C   UNL     1      -1.610   6.495  -5.035  0.00  0.00    +0.069 C 
ATOM     23  C   UNL     1      -0.883   7.373  -4.050  0.00  0.00    +0.086 A 
ATOM     24  C   UNL     1      -0.451   7.014  -2.752  0.00  0.00    +0.042 A 
ATOM     25  C   UNL     1       0.136   8.139  -2.279  0.00  0.00    +0.140 A 
ATOM     26  O   UNL     1       0.041   9.055  -3.253  0.00  0.00    -0.359 OA
ATOM     27  N   UNL     1      -0.528   8.614  -4.225  0.00  0.00    -0.083 NA
ATOM     28  C   UNL     1       0.771   8.325  -0.925  0.00  0.00    +0.089 C 
ENDBRANCH  21  24
ENDBRANCH  20  21
ENDBRANCH   1  20
BRANCH   7  29
ATOM     29  C   UNL     1       2.416   2.667   1.019  0.00  0.00    +0.111 C 
BRANCH  29  30
ATOM     30  C   UNL     1       1.320   3.355   1.836  0.00  0.00    +0.000 C 
ATOM     31  C   UNL     1       0.244   2.334   2.208  0.00  0.00    +0.009 C 
ATOM     32  C   UNL     1       1.928   3.943   3.111  0.00  0.00    +0.009 C 
ENDBRANCH  29  30
ENDBRANCH   7  29
TORSDOF 6
