REMARK  Name = ZINC08941313
REMARK  9 active torsions:
REMARK  status: ('A' for Active; 'I' for Inactive)
REMARK    1  A    between atoms: C_1  and  C_2
REMARK    2  A    between atoms: C_2  and  O_3
REMARK    3  A    between atoms: O_3  and  C_4
REMARK    4  A    between atoms: C_4  and  C_6
REMARK    5  A    between atoms: C_7  and  C_29
REMARK    6  A    between atoms: C_10  and  N_11
REMARK    7  A    between atoms: C_12  and  C_14
REMARK    8  A    between atoms: C_14  and  N_15
REMARK    9  A    between atoms: C_23  and  C_25
REMARK                            x       y       z     vdW  Elec       q    Type
REMARK                         _______ _______ _______ _____ _____    ______ ____
ROOT
ATOM      1  N   UNL     1       1.254   3.753   2.494  0.00  0.00    -0.278 N 
ATOM      2  C   UNL     1       1.292   4.611   3.532  0.00  0.00    +0.236 C 
ATOM      3  O   UNL     1       1.338   5.806   3.330  0.00  0.00    -0.274 OA
ATOM      4  H   UNL     1       1.217   2.797   2.655  0.00  0.00    +0.155 HD
ENDROOT
BRANCH   1   9
ATOM      5  C   UNL     1       1.233   3.515   0.009  0.00  0.00    +0.098 A 
ATOM      6  C   UNL     1       1.251   4.282  -1.223  0.00  0.00    +0.040 A 
ATOM      7  C   UNL     1       1.304   5.635  -1.098  0.00  0.00    +0.059 A 
ATOM      8  S   UNL     1       1.330   5.883   0.665  0.00  0.00    -0.080 S 
ATOM      9  C   UNL     1       1.267   4.236   1.195  0.00  0.00    +0.087 A 
BRANCH   6  10
ATOM     10  C   UNL     1       1.212   3.627  -2.546  0.00  0.00    +0.136 A 
ATOM     11  C   UNL     1       0.367   3.935  -3.565  0.00  0.00    +0.050 A 
ATOM     12  C   UNL     1       0.682   3.067  -4.631  0.00  0.00    +0.042 A 
ATOM     13  C   UNL     1       1.687   2.275  -4.211  0.00  0.00    +0.196 A 
ATOM     14  O   UNL     1       2.005   2.616  -2.950  0.00  0.00    -0.463 OA
ENDBRANCH   6  10
BRANCH   5  15
ATOM     15  C   UNL     1       1.176   2.054   0.002  0.00  0.00    +0.342 C 
ATOM     16  O   UNL     1       2.205   1.405  -0.011  0.00  0.00    -0.245 OA
BRANCH  15  17
ATOM     17  O   UNL     1      -0.017   1.425   0.010  0.00  0.00    -0.461 OA
BRANCH  17  19
ATOM     18  C   UNL     1      -1.433  -0.534   0.013  0.00  0.00    +0.048 C 
ATOM     19  C   UNL     1       0.002  -0.004   0.002  0.00  0.00    +0.229 C 
ENDBRANCH  17  19
ENDBRANCH  15  17
ENDBRANCH   5  15
ENDBRANCH   1   9
BRANCH   2  20
ATOM     20  C   UNL     1       1.278   4.086   4.945  0.00  0.00    +0.214 C 
BRANCH  20  21
ATOM     21  N   UNL     1       1.326   5.209   5.884  0.00  0.00    -0.215 N 
ATOM     22  C   UNL     1       0.236   5.834   6.375  0.00  0.00    +0.247 C 
ATOM     23  O   UNL     1      -0.925   5.583   6.134  0.00  0.00    -0.273 OA
ATOM     24  C   UNL     1       0.768   6.912   7.292  0.00  0.00    +0.115 C 
ATOM     25  C   UNL     1       0.341   8.289   6.795  0.00  0.00    +0.035 C 
ATOM     26  C   UNL     1      -1.185   8.403   6.853  0.00  0.00    +0.003 C 
ATOM     27  C   UNL     1      -1.655   8.194   8.294  0.00  0.00    +0.000 C 
ATOM     28  C   UNL     1      -1.239   6.801   8.771  0.00  0.00    +0.006 C 
ATOM     29  C   UNL     1       0.286   6.680   8.720  0.00  0.00    +0.018 C 
ATOM     30  C   UNL     1       0.703   5.281   9.178  0.00  0.00    +0.010 C 
ATOM     31  N   UNL     1       2.226   6.763   7.209  0.00  0.00    -0.285 N 
ATOM     32  C   UNL     1       2.457   5.739   6.366  0.00  0.00    +0.310 C 
ATOM     33  O   UNL     1       3.568   5.342   6.073  0.00  0.00    -0.252 OA
ATOM     34  H   UNL     1       2.892   7.296   7.672  0.00  0.00    +0.151 HD
ENDBRANCH  20  21
ENDBRANCH   2  20
TORSDOF 7
