REMARK  Name = ZINC09452286
REMARK  9 active torsions:
REMARK  status: ('A' for Active; 'I' for Inactive)
REMARK    1  A    between atoms: C_3  and  C_8
REMARK    2  A    between atoms: C_5  and  O_7
REMARK    3  A    between atoms: C_10  and  C_24
REMARK    4  A    between atoms: C_11  and  O_23
REMARK    5  A    between atoms: N_14  and  C_15
REMARK    6  A    between atoms: C_15  and  C_16
REMARK    7  A    between atoms: C_16  and  C_17
REMARK    8  A    between atoms: C_17  and  N_63
REMARK    9  A    between atoms: C_24  and  C_26
REMARK                            x       y       z     vdW  Elec       q    Type
REMARK                         _______ _______ _______ _____ _____    ______ ____
ROOT
ATOM      1  C   UNL     1       0.938   1.860  -3.319  0.00  0.00    +0.145 C 
ATOM      2  C   UNL     1       1.192   0.751  -4.314  0.00  0.00    +0.071 C 
ATOM      3  C   UNL     1       0.379  -0.275  -3.971  0.00  0.00    +0.188 C 
ATOM      4  C   UNL     1      -0.407   0.106  -2.779  0.00  0.00    +0.282 C 
ATOM      5  O   UNL     1      -1.227  -0.603  -2.228  0.00  0.00    -0.267 OA
ATOM      6  N   UNL     1      -0.081   1.352  -2.392  0.00  0.00    -0.284 N 
ENDROOT
BRANCH   1   9
ATOM      7  C   UNL     1      -1.326   4.233  -5.191  0.00  0.00    +0.004 A 
ATOM      8  C   UNL     1      -0.856   3.107  -4.540  0.00  0.00    +0.006 A 
ATOM      9  C   UNL     1       0.428   3.088  -4.028  0.00  0.00    -0.019 A 
ATOM     10  C   UNL     1       1.242   4.197  -4.159  0.00  0.00    +0.051 A 
ATOM     11  C   UNL     1       0.774   5.325  -4.817  0.00  0.00    +0.117 A 
ATOM     12  C   UNL     1      -0.514   5.341  -5.331  0.00  0.00    +0.045 A 
BRANCH  11  13
ATOM     13  O   UNL     1       1.575   6.415  -4.953  0.00  0.00    -0.507 OA
ATOM     14  H   UNL     1       1.505   7.048  -4.226  0.00  0.00    +0.292 HD
ENDBRANCH  11  13
ENDBRANCH   1   9
BRANCH   3  15
ATOM     15  O   UNL     1       0.298  -1.461  -4.618  0.00  0.00    -0.502 OA
ATOM     16  H   UNL     1      -0.377  -2.042  -4.164  0.00  0.00    +0.292 HD
ENDBRANCH   3  15
BRANCH   2  17
ATOM     17  C   UNL     1       2.133   0.783  -5.438  0.00  0.00    +0.195 C 
ATOM     18  O   UNL     1       1.718   0.731  -6.581  0.00  0.00    -0.287 OA
BRANCH  17  19
ATOM     19  C   UNL     1       3.584   0.879  -5.183  0.00  0.00    +0.026 A 
ATOM     20  C   UNL     1       4.068   0.864  -3.871  0.00  0.00    +0.015 A 
ATOM     21  C   UNL     1       5.422   0.949  -3.636  0.00  0.00    +0.050 A 
ATOM     22  C   UNL     1       6.311   1.062  -4.699  0.00  0.00    +0.162 A 
ATOM     23  C   UNL     1       5.836   1.080  -6.009  0.00  0.00    +0.163 A 
ATOM     24  C   UNL     1       4.478   0.990  -6.251  0.00  0.00    +0.061 A 
ATOM     25  O   UNL     1       6.695   1.181  -7.060  0.00  0.00    -0.485 OA
ATOM     26  C   UNL     1       8.018   1.642  -6.768  0.00  0.00    +0.270 C 
ATOM     27  C   UNL     1       8.529   0.886  -5.535  0.00  0.00    +0.270 C 
ATOM     28  O   UNL     1       7.643   1.156  -4.443  0.00  0.00    -0.485 OA
ENDBRANCH  17  19
ENDBRANCH   2  17
BRANCH   6  29
ATOM     29  C   UNL     1      -0.646   2.078  -1.252  0.00  0.00    +0.107 C 
BRANCH  29  30
ATOM     30  C   UNL     1       0.191   1.796  -0.002  0.00  0.00    +0.000 C 
BRANCH  30  31
ATOM     31  C   UNL     1      -0.400   2.553   1.189  0.00  0.00    -0.077 C 
BRANCH  31  37
ATOM     32  C   UNL     1       0.293   0.872   2.789  0.00  0.00    -0.050 C 
ATOM     33  C   UNL     1       1.190   0.620   4.004  0.00  0.00    +0.141 C 
ATOM     34  O   UNL     1       0.818   1.514   5.058  0.00  0.00    -0.383 OA
ATOM     35  C   UNL     1       0.915   2.895   4.702  0.00  0.00    +0.141 C 
ATOM     36  C   UNL     1       0.015   3.170   3.494  0.00  0.00    -0.050 C 
ATOM     37  N   UNL     1       0.430   2.287   2.384  0.00  0.00    +0.383 N 
ATOM     38  H   UNL     1       1.413   2.475   2.156  0.00  0.00    -0.082 HD
ENDBRANCH  31  37
ENDBRANCH  30  31
ENDBRANCH  29  30
ENDBRANCH   6  29
TORSDOF 9
