REMARK  Name = ZINC63386175
REMARK  13 active torsions:
REMARK  status: ('A' for Active; 'I' for Inactive)
REMARK    1  A    between atoms: C_1  and  C_2
REMARK    2  A    between atoms: C_2  and  C_3
REMARK    3  A    between atoms: C_3  and  C_4
REMARK    4  A    between atoms: C_4  and  C_5
REMARK    5  A    between atoms: C_5  and  C_6
REMARK    6  A    between atoms: C_6  and  C_7
REMARK    7  A    between atoms: C_8  and  C_41
REMARK    8  A    between atoms: C_12  and  O_18
REMARK    9  A    between atoms: O_18  and  C_19
REMARK   10  A    between atoms: C_19  and  C_20
REMARK   11  A    between atoms: C_35  and  C_37
REMARK   12  A    between atoms: C_37  and  O_39
REMARK   13  A    between atoms: O_39  and  C_40
REMARK                            x       y       z     vdW  Elec       q    Type
REMARK                         _______ _______ _______ _____ _____    ______ ____
ROOT
ATOM      1  C   UNL     1       7.300  -6.955  -8.377  0.00  0.00    +0.324 C 
ENDROOT
BRANCH   1   2
ATOM      2  C   UNL     1       7.773  -7.415  -9.732  0.00  0.00    +0.254 C 
ATOM      3  O   UNL     1       6.996  -7.460 -10.663  0.00  0.00    -0.272 OA
ATOM      4  N   UNL     1       9.060  -7.774  -9.911  0.00  0.00    -0.283 N 
ATOM      5  C   UNL     1       9.995  -7.722  -8.776  0.00  0.00    +0.137 C 
ATOM      6  C   UNL     1      10.544  -9.135  -8.554  0.00  0.00    +0.124 C 
ATOM      7  C   UNL     1      10.999  -9.644  -9.916  0.00  0.00    -0.035 C 
ATOM      8  C   UNL     1      12.276  -9.983  -9.782  0.00  0.00    -0.001 A 
ATOM      9  C   UNL     1      13.230 -10.596 -10.720  0.00  0.00    +0.010 A 
ATOM     10  C   UNL     1      14.488 -10.801 -10.248  0.00  0.00    +0.001 A 
ATOM     11  C   UNL     1      14.887 -10.461  -8.951  0.00  0.00    +0.002 A 
ATOM     12  C   UNL     1      14.075  -9.898  -8.021  0.00  0.00    +0.026 A 
ATOM     13  C   UNL     1      12.726  -9.639  -8.399  0.00  0.00    +0.043 A 
ATOM     14  N   UNL     1      11.730  -9.130  -7.695  0.00  0.00    -0.376 N 
ATOM     15  C   UNL     1      10.098  -9.635 -11.127  0.00  0.00    +0.067 C 
ATOM     16  C   UNL     1       9.513  -8.220 -11.232  0.00  0.00    +0.189 C 
ATOM     17  H   UNL     1      11.768  -8.804  -6.782  0.00  0.00    +0.160 HD
BRANCH  16  18
ATOM     18  C   UNL     1      10.573  -7.278 -11.744  0.00  0.00    +0.328 C 
ATOM     19  O   UNL     1      11.173  -6.567 -10.973  0.00  0.00    -0.249 OA
BRANCH  18  20
ATOM     20  O   UNL     1      10.850  -7.230 -13.057  0.00  0.00    -0.467 OA
ATOM     21  C   UNL     1      11.866  -6.314 -13.472  0.00  0.00    +0.280 C 
ENDBRANCH  18  20
ENDBRANCH  16  18
ENDBRANCH   1   2
BRANCH   1  22
ATOM     22  O   UNL     1       5.910  -6.632  -8.443  0.00  0.00    -0.483 OA
BRANCH  22  28
ATOM     23  C   UNL     1       2.181  -4.537  -3.772  0.00  0.00    +0.041 A 
ATOM     24  C   UNL     1       3.503  -4.848  -3.726  0.00  0.00    -0.030 A 
ATOM     25  C   UNL     1       4.146  -5.317  -4.955  0.00  0.00    +0.021 A 
ATOM     26  C   UNL     1       5.505  -5.654  -4.974  0.00  0.00    +0.015 A 
ATOM     27  C   UNL     1       6.080  -6.088  -6.133  0.00  0.00    +0.046 A 
ATOM     28  C   UNL     1       5.323  -6.199  -7.298  0.00  0.00    +0.125 A 
ATOM     29  C   UNL     1       3.978  -5.869  -7.298  0.00  0.00    +0.092 A 
ATOM     30  C   UNL     1       3.377  -5.426  -6.129  0.00  0.00    +0.143 A 
ATOM     31  O   UNL     1       2.067  -5.101  -6.106  0.00  0.00    -0.422 OA
ATOM     32  C   UNL     1       1.470  -4.675  -4.982  0.00  0.00    +0.341 A 
ATOM     33  O   UNL     1       0.284  -4.397  -5.008  0.00  0.00    -0.245 OA
ATOM     34  C   UNL     1       4.285  -4.714  -2.445  0.00  0.00    +0.045 C 
BRANCH  23  35
ATOM     35  C   UNL     1       1.476  -4.051  -2.532  0.00  0.00    +0.042 C 
BRANCH  35  36
ATOM     36  C   UNL     1       1.455  -2.521  -2.524  0.00  0.00    +0.005 C 
BRANCH  36  37
ATOM     37  C   UNL     1       0.739  -2.027  -1.265  0.00  0.00    +0.000 C 
BRANCH  37  38
ATOM     38  C   UNL     1       0.718  -0.497  -1.257  0.00  0.00    -0.000 C 
BRANCH  38  40
ATOM     39  C   UNL     1      -0.019   1.526   0.010  0.00  0.00    +0.004 C 
ATOM     40  C   UNL     1       0.002  -0.004   0.002  0.00  0.00    -0.003 C 
ENDBRANCH  38  40
ENDBRANCH  37  38
ENDBRANCH  36  37
ENDBRANCH  35  36
ENDBRANCH  23  35
ENDBRANCH  22  28
ENDBRANCH   1  22
TORSDOF 10
