REMARK  Name = ZINC08141931
REMARK  7 active torsions:
REMARK  status: ('A' for Active; 'I' for Inactive)
REMARK    1  A    between atoms: C_1  and  C_2
REMARK    2  A    between atoms: C_2  and  C_4
REMARK    3  A    between atoms: C_2  and  S_19
REMARK    4  A    between atoms: C_16  and  C_17
REMARK    5  A    between atoms: C_16  and  C_18
REMARK    6  A    between atoms: S_19  and  C_20
REMARK    7  A    between atoms: N_24  and  C_25
REMARK                            x       y       z     vdW  Elec       q    Type
REMARK                         _______ _______ _______ _____ _____    ______ ____
ROOT
ATOM      1  C   UNL     1       1.052   0.017   3.084  0.00  0.00    +0.234 C 
ATOM      2  O   UNL     1       1.312  -0.744   2.176  0.00  0.00    -0.274 OA
ATOM      3  N   UNL     1       0.454   1.197   2.825  0.00  0.00    -0.255 N 
ATOM      4  C   UNL     1       0.312   1.663   1.508  0.00  0.00    +0.059 A 
ATOM      5  C   UNL     1       1.227   1.323   0.528  0.00  0.00    +0.025 A 
ATOM      6  C   UNL     1       1.062   1.801  -0.760  0.00  0.00    +0.002 A 
ATOM      7  C   UNL     1      -0.013   2.617  -1.066  0.00  0.00    +0.002 A 
ATOM      8  C   UNL     1      -0.931   2.959  -0.091  0.00  0.00    +0.025 A 
ATOM      9  C   UNL     1      -0.775   2.483   1.201  0.00  0.00    +0.055 A 
ATOM     10  N   UNL     1      -1.695   2.813   2.201  0.00  0.00    -0.282 N 
ATOM     11  C   UNL     1      -1.410   2.593   3.499  0.00  0.00    +0.241 C 
ATOM     12  O   UNL     1      -2.241   2.846   4.346  0.00  0.00    -0.273 OA
ATOM     13  C   UNL     1      -0.072   2.037   3.912  0.00  0.00    +0.113 C 
ATOM     14  C   UNL     1      -0.236   1.192   5.177  0.00  0.00    +0.042 C 
ATOM     15  C   UNL     1       0.900   3.186   4.186  0.00  0.00    +0.042 C 
ATOM     16  H   UNL     1      -2.549   3.204   1.958  0.00  0.00    +0.155 HD
ENDROOT
BRANCH   1  18
ATOM     17  C   UNL     1       2.488   0.583   5.026  0.00  0.00    +0.029 C 
ATOM     18  C   UNL     1       1.399  -0.356   4.503  0.00  0.00    +0.137 C 
BRANCH  18  19
ATOM     19  S   UNL     1       2.001  -2.062   4.548  0.00  0.00    -0.072 S 
BRANCH  19  20
ATOM     20  C   UNL     1       2.180  -2.278   6.287  0.00  0.00    +0.215 A 
ATOM     21  N   UNL     1       1.926  -1.382   7.218  0.00  0.00    -0.101 NA
ATOM     22  N   UNL     1       2.160  -1.866   8.384  0.00  0.00    -0.022 NA
ATOM     23  N   UNL     1       2.581  -3.080   8.294  0.00  0.00    -0.038 NA
ATOM     24  N   UNL     1       2.612  -3.401   6.925  0.00  0.00    -0.187 N 
BRANCH  24  25
ATOM     25  C   UNL     1       3.003  -4.615   6.343  0.00  0.00    +0.070 A 
ATOM     26  C   UNL     1       2.362  -5.078   5.202  0.00  0.00    +0.028 A 
ATOM     27  C   UNL     1       2.753  -6.271   4.627  0.00  0.00    +0.002 A 
ATOM     28  C   UNL     1       3.776  -7.010   5.193  0.00  0.00    +0.000 A 
ATOM     29  C   UNL     1       4.413  -6.554   6.332  0.00  0.00    +0.002 A 
ATOM     30  C   UNL     1       4.030  -5.359   6.908  0.00  0.00    +0.028 A 
ENDBRANCH  24  25
ENDBRANCH  19  20
ENDBRANCH  18  19
ENDBRANCH   1  18
TORSDOF 4
