REMARK  Name = ZINC24943357
REMARK  7 active torsions:
REMARK  status: ('A' for Active; 'I' for Inactive)
REMARK    1  A    between atoms: C_1  and  C_2
REMARK    2  A    between atoms: C_2  and  C_3
REMARK    3  A    between atoms: C_2  and  N_4
REMARK    4  A    between atoms: N_4  and  C_5
REMARK    5  A    between atoms: C_5  and  C_6
REMARK    6  A    between atoms: C_18  and  C_20
REMARK    7  A    between atoms: C_23  and  N_27
REMARK                            x       y       z     vdW  Elec       q    Type
REMARK                         _______ _______ _______ _____ _____    ______ ____
ROOT
ATOM      1  N   UNL     1      -1.373   0.023   0.759  0.00  0.00    -0.288 N 
ATOM      2  C   UNL     1      -1.519   1.243   1.313  0.00  0.00    +0.249 C 
ATOM      3  O   UNL     1      -2.585   1.822   1.236  0.00  0.00    -0.270 OA
ENDROOT
BRANCH   2   4
ATOM      4  C   UNL     1      -0.383   1.876   2.015  0.00  0.00    +0.055 A 
ATOM      5  C   UNL     1       0.927   1.601   1.619  0.00  0.00    +0.017 A 
ATOM      6  C   UNL     1       1.983   2.196   2.278  0.00  0.00    +0.033 A 
ATOM      7  C   UNL     1       1.746   3.064   3.330  0.00  0.00    +0.128 A 
ATOM      8  C   UNL     1       0.452   3.342   3.728  0.00  0.00    +0.053 A 
ATOM      9  C   UNL     1      -0.616   2.758   3.073  0.00  0.00    +0.055 A 
ATOM     10 CL   UNL     1      -2.241   3.113   3.569  0.00  0.00    -0.083 Cl
BRANCH   7  11
ATOM     11  N   UNL     1       2.885   3.698   4.032  0.00  0.00    +0.056 N 
ATOM     12  O   UNL     1       4.018   3.457   3.686  0.00  0.00    -0.126 OA
ATOM     13  O   UNL     1       2.681   4.457   4.951  0.00  0.00    -0.126 OA
ENDBRANCH   7  11
ENDBRANCH   2   4
BRANCH   1  15
ATOM     14  C   UNL     1       0.423   0.873  -0.666  0.00  0.00    +0.028 C 
ATOM     15  C   UNL     1      -0.115  -0.337   0.100  0.00  0.00    +0.071 C 
ATOM     16  C   UNL     1       0.907  -0.768   1.154  0.00  0.00    +0.028 C 
ENDBRANCH   1  15
BRANCH   1  17
ATOM     17  C   UNL     1      -2.473  -0.944   0.815  0.00  0.00    +0.182 C 
BRANCH  17  18
ATOM     18  C   UNL     1      -2.348  -1.775   2.066  0.00  0.00    +0.128 A 
ATOM     19  N   UNL     1      -3.279  -2.737   2.295  0.00  0.00    -0.309 N 
ATOM     20  H   UNL     1      -3.998  -2.872   1.658  0.00  0.00    +0.170 HD
ATOM     21  C   UNL     1      -3.211  -3.511   3.404  0.00  0.00    +0.259 A 
ATOM     22  O   UNL     1      -4.037  -4.378   3.621  0.00  0.00    -0.267 OA
ATOM     23  C   UNL     1      -2.100  -3.264   4.334  0.00  0.00    +0.065 A 
ATOM     24  C   UNL     1      -1.940  -4.004   5.504  0.00  0.00    +0.015 A 
ATOM     25  C   UNL     1      -0.880  -3.730   6.341  0.00  0.00    +0.001 A 
ATOM     26  C   UNL     1       0.026  -2.725   6.028  0.00  0.00    +0.002 A 
ATOM     27  C   UNL     1      -0.115  -1.982   4.877  0.00  0.00    +0.028 A 
ATOM     28  C   UNL     1      -1.180  -2.241   4.013  0.00  0.00    +0.078 A 
ATOM     29  N   UNL     1      -1.353  -1.537   2.866  0.00  0.00    -0.232 NA
ENDBRANCH  17  18
ENDBRANCH   1  17
TORSDOF 5
