REMARK  Name = ZINC40476368
REMARK  11 active torsions:
REMARK  status: ('A' for Active; 'I' for Inactive)
REMARK    1  A    between atoms: C_1  and  C_2
REMARK    2  A    between atoms: C_2  and  C_3
REMARK    3  A    between atoms: C_3  and  C_4
REMARK    4  A    between atoms: C_4  and  C_5
REMARK    5  A    between atoms: C_5  and  S_6
REMARK    6  A    between atoms: S_6  and  C_7
REMARK    7  A    between atoms: C_18  and  C_20
REMARK    8  A    between atoms: C_24  and  O_26
REMARK    9  A    between atoms: O_26  and  C_27
REMARK   10  A    between atoms: C_36  and  C_38
REMARK   11  A    between atoms: C_36  and  C_39
REMARK                            x       y       z     vdW  Elec       q    Type
REMARK                         _______ _______ _______ _____ _____    ______ ____
ROOT
ATOM      1  C   UNL     1       3.962  -3.539  -5.139  0.00  0.00    +0.171 A 
ATOM      2  N   UNL     1       4.059  -4.894  -5.231  0.00  0.00    -0.302 N 
ATOM      3  H   UNL     1       3.877  -5.447  -4.455  0.00  0.00    +0.171 HD
ATOM      4  C   UNL     1       4.408  -5.471  -6.401  0.00  0.00    +0.258 A 
ATOM      5  O   UNL     1       4.493  -6.685  -6.495  0.00  0.00    -0.267 OA
ATOM      6  C   UNL     1       4.669  -4.651  -7.504  0.00  0.00    +0.069 A 
ATOM      7  C   UNL     1       4.562  -3.279  -7.356  0.00  0.00    +0.135 A 
ATOM      8  N   UNL     1       4.202  -2.762  -6.176  0.00  0.00    -0.208 NA
ATOM      9  N   UNL     1       4.825  -2.453  -8.431  0.00  0.00    -0.302 N 
ATOM     10  C   UNL     1       5.549  -2.908  -9.499  0.00  0.00    +0.017 C 
ATOM     11  C   UNL     1       5.689  -4.230  -9.730  0.00  0.00    +0.024 C 
ATOM     12  C   UNL     1       5.054  -5.253  -8.822  0.00  0.00    +0.092 C 
ATOM     13  C   UNL     1       6.429  -4.699 -10.830  0.00  0.00    +0.162 C 
ATOM     14  O   UNL     1       6.552  -5.896 -10.998  0.00  0.00    -0.292 OA
ATOM     15  C   UNL     1       7.069  -3.748 -11.804  0.00  0.00    +0.086 C 
ATOM     16  C   UNL     1       6.261  -2.446 -11.834  0.00  0.00    -0.023 C 
ATOM     17  C   UNL     1       6.191  -1.889 -10.410  0.00  0.00    +0.058 C 
ATOM     18  C   UNL     1       6.951  -1.433 -12.750  0.00  0.00    +0.011 C 
ATOM     19  C   UNL     1       4.848  -2.729 -12.348  0.00  0.00    +0.011 C 
ATOM     20  H   UNL     1       4.493  -1.541  -8.430  0.00  0.00    +0.153 HD
ENDROOT
BRANCH  12  21
ATOM     21  C   UNL     1       3.822  -5.807  -9.490  0.00  0.00    -0.032 A 
ATOM     22  C   UNL     1       2.768  -4.968  -9.801  0.00  0.00    +0.005 A 
ATOM     23  C   UNL     1       1.637  -5.473 -10.414  0.00  0.00    +0.004 A 
ATOM     24  C   UNL     1       1.556  -6.818 -10.718  0.00  0.00    +0.046 A 
ATOM     25  C   UNL     1       2.612  -7.663 -10.407  0.00  0.00    +0.129 A 
ATOM     26  C   UNL     1       3.749  -7.152  -9.797  0.00  0.00    +0.050 A 
BRANCH  25  27
ATOM     27  O   UNL     1       2.536  -8.986 -10.705  0.00  0.00    -0.456 OA
BRANCH  27  28
ATOM     28  C   UNL     1       3.590  -9.777 -10.373  0.00  0.00    +0.128 A 
ATOM     29  C   UNL     1       3.633 -10.393  -9.131  0.00  0.00    +0.046 A 
ATOM     30  C   UNL     1       4.706 -11.196  -8.796  0.00  0.00    +0.004 A 
ATOM     31  C   UNL     1       5.737 -11.386  -9.699  0.00  0.00    +0.000 A 
ATOM     32  C   UNL     1       5.697 -10.773 -10.937  0.00  0.00    +0.004 A 
ATOM     33  C   UNL     1       4.623  -9.974 -11.279  0.00  0.00    +0.046 A 
ENDBRANCH  27  28
ENDBRANCH  25  27
ENDBRANCH  12  21
BRANCH   1  34
ATOM     34  S   UNL     1       3.500  -2.809  -3.604  0.00  0.00    -0.088 S 
BRANCH  34  35
ATOM     35  C   UNL     1       3.493  -1.028  -3.949  0.00  0.00    +0.077 C 
BRANCH  35  36
ATOM     36  C   UNL     1       3.103  -0.265  -2.681  0.00  0.00    +0.011 C 
BRANCH  36  37
ATOM     37  C   UNL     1       3.097   1.237  -2.972  0.00  0.00    +0.001 C 
BRANCH  37  39
ATOM     38  C   UNL     1       2.700   3.503  -1.996  0.00  0.00    +0.004 C 
ATOM     39  C   UNL     1       2.706   2.001  -1.705  0.00  0.00    -0.003 C 
ENDBRANCH  37  39
ENDBRANCH  36  37
ENDBRANCH  35  36
ENDBRANCH  34  35
ENDBRANCH   1  34
TORSDOF 8
