REMARK  Name = ZINC15787723
REMARK  8 active torsions:
REMARK  status: ('A' for Active; 'I' for Inactive)
REMARK    1  A    between atoms: C_1  and  C_2
REMARK    2  A    between atoms: C_5  and  S_8
REMARK    3  A    between atoms: S_8  and  N_11
REMARK    4  A    between atoms: C_14  and  C_17
REMARK    5  A    between atoms: N_19  and  C_20
REMARK    6  A    between atoms: C_20  and  C_21
REMARK    7  A    between atoms: C_21  and  C_23
REMARK    8  A    between atoms: C_21  and  N_65
REMARK                            x       y       z     vdW  Elec       q    Type
REMARK                         _______ _______ _______ _____ _____    ______ ____
ROOT
ATOM      1  C   UNL     1      -0.884  -0.249  -1.875  0.00  0.00    +0.216 C 
ATOM      2  O   UNL     1      -1.657   0.503  -2.430  0.00  0.00    -0.276 OA
ATOM      3  N   UNL     1       0.099   0.247  -1.098  0.00  0.00    -0.316 N 
ATOM      4  H   UNL     1       0.717  -0.354  -0.655  0.00  0.00    +0.149 HD
ENDROOT
BRANCH   1   8
ATOM      5  N   UNL     1      -1.088  -4.114  -3.591  0.00  0.00    -0.177 NA
ATOM      6  C   UNL     1      -2.365  -3.550  -3.132  0.00  0.00    +0.110 C 
ATOM      7  C   UNL     1      -2.207  -2.034  -2.978  0.00  0.00    +0.030 C 
ATOM      8  C   UNL     1      -1.021  -1.739  -2.056  0.00  0.00    +0.077 C 
ATOM      9  C   UNL     1       0.261  -2.298  -2.676  0.00  0.00    +0.030 C 
ATOM     10  C   UNL     1       0.131  -3.817  -2.826  0.00  0.00    +0.110 C 
BRANCH   5  11
ATOM     11  S   UNL     1      -1.025  -5.068  -4.943  0.00  0.00    +0.061 S 
ATOM     12  O   UNL     1       0.134  -5.880  -4.814  0.00  0.00    -0.153 OA
ATOM     13  O   UNL     1      -2.325  -5.616  -5.114  0.00  0.00    -0.153 OA
BRANCH  11  18
ATOM     14  C   UNL     1      -0.059  -1.422  -9.653  0.00  0.00    +0.044 C 
ATOM     15  C   UNL     1      -0.300  -2.333  -8.477  0.00  0.00    -0.050 A 
ATOM     16  C   UNL     1       0.771  -2.876  -7.792  0.00  0.00    +0.005 A 
ATOM     17  C   UNL     1       0.549  -3.712  -6.713  0.00  0.00    +0.029 A 
ATOM     18  C   UNL     1      -0.743  -4.003  -6.318  0.00  0.00    +0.105 A 
ATOM     19  C   UNL     1      -1.814  -3.463  -7.006  0.00  0.00    +0.029 A 
ATOM     20  C   UNL     1      -1.593  -2.624  -8.082  0.00  0.00    +0.005 A 
ENDBRANCH  11  18
ENDBRANCH   5  11
ENDBRANCH   1   8
BRANCH   3  21
ATOM     21  C   UNL     1       0.233   1.696  -0.923  0.00  0.00    +0.093 C 
BRANCH  21  22
ATOM     22  C   UNL     1       1.418   1.990  -0.001  0.00  0.00    -0.019 C 
BRANCH  22  23
ATOM     23  C   UNL     1       1.557   3.480   0.177  0.00  0.00    -0.041 A 
ATOM     24  C   UNL     1       2.547   4.168  -0.500  0.00  0.00    +0.003 A 
ATOM     25  C   UNL     1       2.676   5.534  -0.336  0.00  0.00    +0.000 A 
ATOM     26  C   UNL     1       1.814   6.215   0.503  0.00  0.00    +0.001 A 
ATOM     27  C   UNL     1       0.823   5.529   1.180  0.00  0.00    +0.020 A 
ATOM     28  C   UNL     1       0.691   4.161   1.013  0.00  0.00    +0.043 A 
ATOM     29 CL   UNL     1      -0.558   3.300   1.858  0.00  0.00    -0.083 Cl
ENDBRANCH  22  23
BRANCH  22  34
ATOM     30  C   UNL     1       2.767   1.848  -2.023  0.00  0.00    -0.078 C 
ATOM     31  C   UNL     1       4.278   1.673  -2.314  0.00  0.00    -0.020 C 
ATOM     32  C   UNL     1       4.941   2.140  -0.998  0.00  0.00    -0.020 C 
ATOM     33  C   UNL     1       3.846   1.998   0.076  0.00  0.00    -0.078 C 
ATOM     34  N   UNL     1       2.672   1.453  -0.608  0.00  0.00    +0.385 N 
ATOM     35  H   UNL     1       2.671   0.429  -0.533  0.00  0.00    -0.081 HD
ENDBRANCH  22  34
ENDBRANCH  21  22
ENDBRANCH   3  21
TORSDOF 7
