REMARK  Name = ZINC08789472
REMARK  3 active torsions:
REMARK  status: ('A' for Active; 'I' for Inactive)
REMARK    1  A    between atoms: C_4  and  C_7
REMARK    2  A    between atoms: C_7  and  N_8
REMARK    3  A    between atoms: C_13  and  C_29
REMARK                            x       y       z     vdW  Elec       q    Type
REMARK                         _______ _______ _______ _____ _____    ______ ____
ROOT
ATOM      1  N   UNL     1      -1.117   1.966   0.018  0.00  0.00    -0.237 N 
ATOM      2  C   UNL     1      -0.014   1.208   0.009  0.00  0.00    +0.225 C 
ATOM      3  O   UNL     1       0.002  -0.004   0.002  0.00  0.00    -0.275 OA
ATOM      4  C   UNL     1       1.207   2.098   0.002  0.00  0.00    +0.077 C 
ATOM      5  C   UNL     1       1.951   1.955   1.347  0.00  0.00    -0.026 C 
ATOM      6  C   UNL     1       1.052   4.112   1.376  0.00  0.00    +0.050 C 
ATOM      7  C   UNL     1       0.607   3.531   0.027  0.00  0.00    +0.088 C 
ATOM      8  C   UNL     1      -0.885   3.284   0.032  0.00  0.00    +0.225 C 
ATOM      9  O   UNL     1      -1.738   4.145   0.043  0.00  0.00    -0.275 OA
ATOM     10  C   UNL     1       2.264   4.987   1.227  0.00  0.00    -0.028 A 
ATOM     11  C   UNL     1       3.540   4.767   0.759  0.00  0.00    +0.004 A 
ATOM     12  C   UNL     1       4.460   5.801   0.746  0.00  0.00    +0.000 A 
ATOM     13  C   UNL     1       4.094   7.053   1.203  0.00  0.00    +0.002 A 
ATOM     14  C   UNL     1       2.817   7.277   1.674  0.00  0.00    +0.023 A 
ATOM     15  C   UNL     1       1.885   6.243   1.692  0.00  0.00    +0.036 A 
ATOM     16  N   UNL     1       0.554   6.220   2.115  0.00  0.00    -0.286 N 
ATOM     17  C   UNL     1      -0.006   5.005   1.964  0.00  0.00    +0.211 C 
ATOM     18  O   UNL     1      -1.143   4.691   2.247  0.00  0.00    -0.277 OA
ATOM     19  H   UNL     1       0.087   6.990   2.475  0.00  0.00    +0.155 HD
ATOM     20  N   UNL     1       1.330   2.955   2.211  0.00  0.00    +0.397 N 
ATOM     21  H   UNL     1       1.971   3.213   2.971  0.00  0.00    -0.083 HD
ATOM     22  H   UNL     1       0.458   2.587   2.609  0.00  0.00    -0.083 HD
ENDROOT
BRANCH   5  23
ATOM     23  C   UNL     1       1.786   0.560   1.891  0.00  0.00    -0.061 A 
ATOM     24  C   UNL     1       0.625   0.208   2.553  0.00  0.00    +0.002 A 
ATOM     25  C   UNL     1       0.473  -1.073   3.049  0.00  0.00    +0.000 A 
ATOM     26  C   UNL     1       1.485  -2.001   2.890  0.00  0.00    +0.000 A 
ATOM     27  C   UNL     1       2.648  -1.648   2.231  0.00  0.00    +0.000 A 
ATOM     28  C   UNL     1       2.799  -0.368   1.732  0.00  0.00    +0.002 A 
ENDBRANCH   5  23
BRANCH   1  29
ATOM     29  C   UNL     1      -2.468   1.399   0.016  0.00  0.00    +0.151 C 
BRANCH  29  33
ATOM     30  C   UNL     1      -3.772   0.817   4.042  0.00  0.00    +0.000 A 
ATOM     31  C   UNL     1      -4.024   2.015   3.400  0.00  0.00    +0.000 A 
ATOM     32  C   UNL     1      -3.602   2.204   2.097  0.00  0.00    +0.005 A 
ATOM     33  C   UNL     1      -2.928   1.194   1.436  0.00  0.00    -0.030 A 
ATOM     34  C   UNL     1      -2.681  -0.006   2.076  0.00  0.00    +0.005 A 
ATOM     35  C   UNL     1      -3.098  -0.193   3.381  0.00  0.00    +0.000 A 
ENDBRANCH  29  33
ENDBRANCH   1  29
TORSDOF 3
