REMARK  Name = ZINC03278786
REMARK  8 active torsions:
REMARK  status: ('A' for Active; 'I' for Inactive)
REMARK    1  A    between atoms: C_4  and  C_7
REMARK    2  A    between atoms: N_9  and  N_10
REMARK    3  A    between atoms: C_11  and  C_13
REMARK    4  A    between atoms: C_13  and  O_14
REMARK    5  A    between atoms: O_14  and  C_15
REMARK    6  A    between atoms: C_15  and  C_17
REMARK    7  A    between atoms: C_20  and  S_23
REMARK    8  A    between atoms: S_23  and  N_26
REMARK                            x       y       z     vdW  Elec       q    Type
REMARK                         _______ _______ _______ _____ _____    ______ ____
ROOT
ATOM      1  C   UNL     1       1.183   2.087   0.002  0.00  0.00    +0.059 A 
ATOM      2  C   UNL     1      -0.018   1.375   0.010  0.00  0.00    +0.017 A 
ATOM      3  C   UNL     1       0.001  -0.004   0.002  0.00  0.00    +0.029 A 
ATOM      4  C   UNL     1       1.207  -0.683  -0.013  0.00  0.00    +0.109 A 
ATOM      5  C   UNL     1       2.401   0.016  -0.021  0.00  0.00    +0.029 A 
ATOM      6  C   UNL     1       2.397   1.396  -0.013  0.00  0.00    +0.017 A 
ENDROOT
BRANCH   4   7
ATOM      7  S   UNL     1       1.222  -2.445  -0.023  0.00  0.00    +0.075 S 
ATOM      8  O   UNL     1       2.477  -2.843   0.514  0.00  0.00    -0.150 OA
ATOM      9  O   UNL     1      -0.014  -2.865   0.538  0.00  0.00    -0.150 OA
BRANCH   7  10
ATOM     10  N   UNL     1       1.211  -2.926  -1.607  0.00  0.00    -0.203 N 
ATOM     11  C   UNL     1      -0.052  -3.264  -2.276  0.00  0.00    +0.132 C 
ATOM     12  C   UNL     1       0.164  -4.554  -3.071  0.00  0.00    +0.025 C 
ATOM     13  C   UNL     1       1.215  -4.301  -4.151  0.00  0.00    +0.038 C 
ATOM     14  C   UNL     1       2.447  -3.677  -3.551  0.00  0.00    -0.025 A 
ATOM     15  C   UNL     1       2.406  -3.022  -2.329  0.00  0.00    +0.054 A 
ATOM     16  C   UNL     1       3.561  -2.451  -1.807  0.00  0.00    +0.025 A 
ATOM     17  C   UNL     1       4.750  -2.538  -2.502  0.00  0.00    +0.002 A 
ATOM     18  C   UNL     1       4.791  -3.193  -3.719  0.00  0.00    +0.000 A 
ATOM     19  C   UNL     1       3.645  -3.760  -4.241  0.00  0.00    +0.005 A 
ENDBRANCH   7  10
ENDBRANCH   4   7
BRANCH   1  20
ATOM     20  C   UNL     1       1.170   3.564   0.009  0.00  0.00    +0.340 C 
ATOM     21  O   UNL     1       0.113   4.162   0.023  0.00  0.00    -0.245 OA
BRANCH  20  22
ATOM     22  O   UNL     1       2.331   4.247   0.002  0.00  0.00    -0.452 OA
BRANCH  22  23
ATOM     23  C   UNL     1       2.243   5.697   0.010  0.00  0.00    +0.329 C 
BRANCH  23  25
ATOM     24  N   UNL     1       3.795   7.622   0.005  0.00  0.00    -0.231 N 
ATOM     25  C   UNL     1       3.630   6.285   0.000  0.00  0.00    +0.267 C 
ATOM     26  O   UNL     1       4.598   5.554  -0.013  0.00  0.00    -0.271 OA
ATOM     27  H   UNL     1       3.021   8.207   0.015  0.00  0.00    +0.173 HD
BRANCH  24  30
ATOM     28  C   UNL     1       5.250   9.507   0.001  0.00  0.00    +0.260 C 
ATOM     29  O   UNL     1       4.279  10.239   0.014  0.00  0.00    -0.269 OA
ATOM     30  N   UNL     1       5.085   8.169  -0.004  0.00  0.00    -0.230 N 
ATOM     31  H   UNL     1       5.859   7.585  -0.015  0.00  0.00    +0.173 HD
BRANCH  28  35
ATOM     32  C   UNL     1       9.161  11.165  -0.028  0.00  0.00    +0.000 A 
ATOM     33  C   UNL     1       8.058  12.001  -0.013  0.00  0.00    +0.001 A 
ATOM     34  C   UNL     1       6.785  11.469  -0.004  0.00  0.00    +0.013 A 
ATOM     35  C   UNL     1       6.611  10.084  -0.009  0.00  0.00    +0.038 A 
ATOM     36  C   UNL     1       7.727   9.246  -0.018  0.00  0.00    +0.013 A 
ATOM     37  C   UNL     1       8.995   9.791  -0.033  0.00  0.00    +0.001 A 
ENDBRANCH  28  35
ENDBRANCH  24  30
ENDBRANCH  23  25
ENDBRANCH  22  23
ENDBRANCH  20  22
ENDBRANCH   1  20
TORSDOF 8
