REMARK  Name = ZINC08819818
REMARK  10 active torsions:
REMARK  status: ('A' for Active; 'I' for Inactive)
REMARK    1  A    between atoms: C_1  and  C_2
REMARK    2  A    between atoms: C_5  and  C_8
REMARK    3  A    between atoms: N_12  and  C_16
REMARK    4  A    between atoms: C_16  and  C_17
REMARK    5  A    between atoms: C_17  and  C_18
REMARK    6  A    between atoms: C_18  and  C_19
REMARK    7  A    between atoms: C_19  and  C_20
REMARK    8  A    between atoms: C_20  and  C_21
REMARK    9  A    between atoms: N_23  and  N_24
REMARK   10  A    between atoms: C_25  and  C_27
REMARK                            x       y       z     vdW  Elec       q    Type
REMARK                         _______ _______ _______ _____ _____    ______ ____
ROOT
ATOM      1  C   UNL     1       4.490   9.397   2.042  0.00  0.00    +0.002 C 
ENDROOT
BRANCH   1   2
ATOM      2  C   UNL     1       4.182   7.904   1.911  0.00  0.00    +0.019 C 
BRANCH   2   3
ATOM      3  C   UNL     1       4.128   7.523   0.430  0.00  0.00    +0.115 C 
BRANCH   3   8
ATOM      4  C   UNL     1       1.177   3.557   0.009  0.00  0.00    +0.028 C 
ATOM      5  C   UNL     1       2.343   4.243   0.104  0.00  0.00    +0.077 C 
ATOM      6  C   UNL     1       2.573   5.698   0.230  0.00  0.00    +0.258 C 
ATOM      7  O   UNL     1       1.651   6.491   0.263  0.00  0.00    -0.269 OA
ATOM      8  N   UNL     1       3.833   6.093   0.305  0.00  0.00    -0.255 N 
ATOM      9  C   UNL     1       4.852   5.211   0.267  0.00  0.00    +0.121 C 
ATOM     10  S   UNL     1       6.533   5.525   0.350  0.00  0.00    -0.027 S 
ATOM     11  S   UNL     1       4.024   3.636   0.120  0.00  0.00    -0.061 S 
BRANCH   4  16
ATOM     12  C   UNL     1       1.239  -2.064  -1.190  0.00  0.00    +0.044 C 
ATOM     13  C   UNL     1       1.223  -0.590  -0.876  0.00  0.00    -0.050 A 
ATOM     14  C   UNL     1       0.037   0.022  -0.508  0.00  0.00    +0.004 A 
ATOM     15  C   UNL     1       0.014   1.370  -0.218  0.00  0.00    +0.008 A 
ATOM     16  C   UNL     1       1.193   2.119  -0.297  0.00  0.00    -0.024 A 
ATOM     17  C   UNL     1       2.388   1.492  -0.669  0.00  0.00    +0.008 A 
ATOM     18  C   UNL     1       2.394   0.144  -0.956  0.00  0.00    +0.004 A 
ENDBRANCH   4  16
ENDBRANCH   3   8
ENDBRANCH   2   3
ENDBRANCH   1   2
BRANCH   1  19
ATOM     19  C   UNL     1       4.544   9.779   3.522  0.00  0.00    +0.009 C 
BRANCH  19  20
ATOM     20  C   UNL     1       4.852  11.272   3.653  0.00  0.00    +0.097 C 
BRANCH  20  21
ATOM     21  C   UNL     1       4.906  11.648   5.112  0.00  0.00    +0.229 C 
ATOM     22  O   UNL     1       4.716  10.805   5.963  0.00  0.00    -0.274 OA
ATOM     23  N   UNL     1       5.164  12.921   5.471  0.00  0.00    -0.234 N 
ATOM     24  H   UNL     1       5.316  13.595   4.790  0.00  0.00    +0.173 HD
BRANCH  23  25
ATOM     25  N   UNL     1       5.214  13.270   6.826  0.00  0.00    -0.230 N 
ATOM     26  C   UNL     1       5.473  14.543   7.185  0.00  0.00    +0.260 C 
ATOM     27  O   UNL     1       5.663  15.389   6.332  0.00  0.00    -0.269 OA
ATOM     28  H   UNL     1       5.062  12.596   7.507  0.00  0.00    +0.173 HD
BRANCH  26  29
ATOM     29  C   UNL     1       5.525  14.912   8.616  0.00  0.00    +0.040 A 
ATOM     30  C   UNL     1       5.301  13.945   9.598  0.00  0.00    +0.013 A 
ATOM     31  C   UNL     1       5.356  14.294  10.931  0.00  0.00    +0.002 A 
ATOM     32  C   UNL     1       5.622  15.601  11.297  0.00  0.00    +0.020 A 
ATOM     33  C   UNL     1       5.840  16.567  10.329  0.00  0.00    +0.042 A 
ATOM     34  C   UNL     1       5.792  16.229   8.991  0.00  0.00    +0.033 A 
ATOM     35 CL   UNL     1       6.172  18.205  10.798  0.00  0.00    -0.084 Cl
ENDBRANCH  26  29
ENDBRANCH  23  25
ENDBRANCH  20  21
ENDBRANCH  19  20
ENDBRANCH   1  19
TORSDOF 9
