REMARK  Name = ZINC09272604
REMARK  10 active torsions:
REMARK  status: ('A' for Active; 'I' for Inactive)
REMARK    1  A    between atoms: C_1  and  N_2
REMARK    2  A    between atoms: N_2  and  C_3
REMARK    3  A    between atoms: N_2  and  S_4
REMARK    4  A    between atoms: S_4  and  C_7
REMARK    5  A    between atoms: C_10  and  C_13
REMARK    6  A    between atoms: N_17  and  N_18
REMARK    7  A    between atoms: C_19  and  C_20
REMARK    8  A    between atoms: C_23  and  O_28
REMARK    9  A    between atoms: C_24  and  O_26
REMARK   10  A    between atoms: O_26  and  C_27
REMARK                            x       y       z     vdW  Elec       q    Type
REMARK                         _______ _______ _______ _____ _____    ______ ____
ROOT
ATOM      1  C   UNL     1       5.737  -1.627  -3.035  0.00  0.00    +0.055 A 
ATOM      2  C   UNL     1       6.369  -0.698  -3.785  0.00  0.00    +0.075 A 
ATOM      3  S   UNL     1       7.997  -1.409  -3.965  0.00  0.00    -0.056 S 
ATOM      4  C   UNL     1       7.721  -2.902  -3.024  0.00  0.00    +0.192 A 
ATOM      5  N   UNL     1       8.558  -3.894  -2.764  0.00  0.00    -0.124 NA
ATOM      6  N   UNL     1       6.411  -2.747  -2.638  0.00  0.00    -0.332 N 
ATOM      7  H   UNL     1       5.973  -3.421  -2.096  0.00  0.00    +0.168 HD
ENDROOT
BRANCH   1  11
ATOM      8  C   UNL     1       1.682  -1.059  -1.905  0.00  0.00    +0.105 A 
ATOM      9  C   UNL     1       2.321  -0.106  -2.678  0.00  0.00    +0.029 A 
ATOM     10  C   UNL     1       3.638  -0.284  -3.048  0.00  0.00    +0.012 A 
ATOM     11  C   UNL     1       4.326  -1.429  -2.642  0.00  0.00    -0.001 A 
ATOM     12  C   UNL     1       3.675  -2.386  -1.862  0.00  0.00    +0.012 A 
ATOM     13  C   UNL     1       2.359  -2.194  -1.494  0.00  0.00    +0.029 A 
BRANCH   8  14
ATOM     14  S   UNL     1      -0.000  -0.824  -1.437  0.00  0.00    +0.060 S 
ATOM     15  O   UNL     1      -0.531  -2.115  -1.167  0.00  0.00    -0.153 OA
ATOM     16  O   UNL     1      -0.572   0.049  -2.401  0.00  0.00    -0.153 OA
BRANCH  14  18
ATOM     17  C   UNL     1      -0.018   1.461   0.010  0.00  0.00    +0.131 C 
ATOM     18  N   UNL     1       0.002  -0.004   0.002  0.00  0.00    -0.183 NA
ATOM     19  C   UNL     1       0.024  -0.743   1.267  0.00  0.00    +0.131 C 
ENDBRANCH  14  18
ENDBRANCH   8  14
ENDBRANCH   1  11
BRANCH   5  20
ATOM     20  N   UNL     1       8.167  -4.899  -2.056  0.00  0.00    -0.155 NA
ATOM     21  C   UNL     1       8.994  -5.878  -1.799  0.00  0.00    +0.143 C 
BRANCH  21  22
ATOM     22  C   UNL     1       8.548  -7.024  -0.992  0.00  0.00    -0.002 A 
ATOM     23  C   UNL     1       7.238  -7.072  -0.504  0.00  0.00    +0.013 A 
ATOM     24  C   UNL     1       6.823  -8.148   0.251  0.00  0.00    +0.050 A 
ATOM     25  C   UNL     1       7.701  -9.185   0.529  0.00  0.00    +0.158 A 
ATOM     26  C   UNL     1       9.008  -9.146   0.047  0.00  0.00    +0.162 A 
ATOM     27  C   UNL     1       9.431  -8.074  -0.715  0.00  0.00    +0.059 A 
BRANCH  26  28
ATOM     28  O   UNL     1       9.865 -10.165   0.323  0.00  0.00    -0.491 OA
ATOM     29  C   UNL     1      11.189 -10.059  -0.203  0.00  0.00    +0.277 C 
ENDBRANCH  26  28
BRANCH  25  30
ATOM     30  O   UNL     1       7.285 -10.243   1.275  0.00  0.00    -0.503 OA
ATOM     31  H   UNL     1       6.906 -10.966   0.756  0.00  0.00    +0.292 HD
ENDBRANCH  25  30
ENDBRANCH  21  22
ENDBRANCH   5  20
TORSDOF 7
