REMARK  Name = ZINC09577347
REMARK  8 active torsions:
REMARK  status: ('A' for Active; 'I' for Inactive)
REMARK    1  A    between atoms: C_1  and  C_2
REMARK    2  A    between atoms: C_5  and  C_16
REMARK    3  A    between atoms: C_7  and  N_8
REMARK    4  A    between atoms: C_9  and  C_11
REMARK    5  A    between atoms: N_18  and  C_19
REMARK    6  A    between atoms: C_19  and  C_20
REMARK    7  A    between atoms: C_20  and  C_22
REMARK    8  A    between atoms: C_20  and  N_55
REMARK                            x       y       z     vdW  Elec       q    Type
REMARK                         _______ _______ _______ _____ _____    ______ ____
ROOT
ATOM      1  C   UNL     1      -0.623  -4.205  -0.078  0.00  0.00    +0.244 C 
ATOM      2  O   UNL     1      -0.710  -4.777  -1.147  0.00  0.00    -0.270 OA
ATOM      3  N   UNL     1      -0.413  -4.912   1.050  0.00  0.00    -0.312 N 
ATOM      4  H   UNL     1      -0.344  -4.455   1.903  0.00  0.00    +0.149 HD
ENDROOT
BRANCH   1   9
ATOM      5  C   UNL     1      -1.107   1.529   0.181  0.00  0.00    +0.045 C 
ATOM      6  C   UNL     1      -0.980   0.029   0.111  0.00  0.00    -0.029 A 
ATOM      7  C   UNL     1      -0.765  -0.699   1.267  0.00  0.00    +0.006 A 
ATOM      8  C   UNL     1      -0.648  -2.073   1.211  0.00  0.00    +0.013 A 
ATOM      9  C   UNL     1      -0.748  -2.733  -0.015  0.00  0.00    +0.038 A 
ATOM     10  C   UNL     1      -0.965  -1.999  -1.181  0.00  0.00    +0.036 A 
ATOM     11  C   UNL     1      -1.085  -0.619  -1.114  0.00  0.00    +0.037 A 
BRANCH  11  12
ATOM     12  N   UNL     1      -1.309   0.121  -2.279  0.00  0.00    -0.279 N 
ATOM     13  C   UNL     1      -1.819  -0.480  -3.372  0.00  0.00    +0.284 C 
ATOM     14  O   UNL     1      -2.177  -1.642  -3.316  0.00  0.00    -0.266 OA
ATOM     15  H   UNL     1      -1.097   1.068  -2.301  0.00  0.00    +0.155 HD
BRANCH  13  16
ATOM     16  C   UNL     1      -1.942   0.265  -4.629  0.00  0.00    +0.189 A 
ATOM     17  C   UNL     1      -2.438  -0.220  -5.805  0.00  0.00    +0.054 A 
ATOM     18  C   UNL     1      -2.370   0.828  -6.735  0.00  0.00    +0.042 A 
ATOM     19  C   UNL     1      -1.842   1.895  -6.095  0.00  0.00    +0.196 A 
ATOM     20  O   UNL     1      -1.590   1.553  -4.824  0.00  0.00    -0.458 OA
ENDBRANCH  13  16
ENDBRANCH  11  12
ENDBRANCH   1   9
BRANCH   3  21
ATOM     21  C   UNL     1      -0.290  -6.370   0.987  0.00  0.00    +0.097 C 
BRANCH  21  22
ATOM     22  C   UNL     1      -0.057  -6.923   2.395  0.00  0.00    +0.016 C 
BRANCH  22  27
ATOM     23  C   UNL     1      -2.467  -6.767   2.709  0.00  0.00    -0.078 C 
ATOM     24  C   UNL     1      -3.404  -6.719   3.941  0.00  0.00    -0.020 C 
ATOM     25  C   UNL     1      -2.537  -7.340   5.060  0.00  0.00    -0.020 C 
ATOM     26  C   UNL     1      -1.083  -7.170   4.584  0.00  0.00    -0.078 C 
ATOM     27  N   UNL     1      -1.154  -6.467   3.302  0.00  0.00    +0.387 N 
ATOM     28  H   UNL     1      -1.065  -5.456   3.455  0.00  0.00    -0.081 HD
ENDBRANCH  22  27
BRANCH  22  29
ATOM     29  C   UNL     1      -0.053  -8.429   2.349  0.00  0.00    +0.093 A 
ATOM     30  C   UNL     1       1.030  -9.217   2.478  0.00  0.00    +0.043 A 
ATOM     31  C   UNL     1       0.579 -10.553   2.375  0.00  0.00    +0.041 A 
ATOM     32  C   UNL     1      -0.751 -10.502   2.181  0.00  0.00    +0.195 A 
ATOM     33  O   UNL     1      -1.128  -9.213   2.166  0.00  0.00    -0.469 OA
ENDBRANCH  22  29
ENDBRANCH  21  22
ENDBRANCH   3  21
TORSDOF 7
