REMARK  Name = ZINC09299298
REMARK  7 active torsions:
REMARK  status: ('A' for Active; 'I' for Inactive)
REMARK    1  A    between atoms: C_1  and  C_2
REMARK    2  A    between atoms: C_2  and  C_3
REMARK    3  A    between atoms: C_3  and  N_4
REMARK    4  A    between atoms: N_13  and  C_14
REMARK    5  A    between atoms: C_14  and  C_16
REMARK    6  A    between atoms: C_19  and  S_22
REMARK    7  A    between atoms: S_22  and  N_25
REMARK                            x       y       z     vdW  Elec       q    Type
REMARK                         _______ _______ _______ _____ _____    ______ ____
ROOT
ATOM      1  C   UNL     1      -3.194   3.087   4.868  0.00  0.00    +0.269 C 
ATOM      2  O   UNL     1      -3.994   2.321   5.378  0.00  0.00    -0.268 OA
ENDROOT
BRANCH   1  12
ATOM      3  N   UNL     1      -3.533   5.810   7.211  0.00  0.00    -0.321 N 
ATOM      4  C   UNL     1      -4.299   6.003   8.345  0.00  0.00    +0.058 A 
ATOM      5  C   UNL     1      -4.342   7.127   9.186  0.00  0.00    +0.028 A 
ATOM      6  C   UNL     1      -5.170   7.154  10.283  0.00  0.00    +0.017 A 
ATOM      7  C   UNL     1      -5.984   6.077  10.594  0.00  0.00    +0.019 A 
ATOM      8  C   UNL     1      -5.962   4.955   9.782  0.00  0.00    +0.032 A 
ATOM      9  C   UNL     1      -5.135   4.929   8.685  0.00  0.00    +0.040 A 
ATOM     10  S   UNL     1      -4.804   3.738   7.410  0.00  0.00    -0.052 S 
ATOM     11  C   UNL     1      -3.626   4.643   6.517  0.00  0.00    +0.167 A 
ATOM     12  N   UNL     1      -2.973   4.286   5.416  0.00  0.00    -0.152 NA
ATOM     13 BR   UNL     1      -7.114   6.138  12.110  0.00  0.00    -0.050 Br
BRANCH   3  14
ATOM     14  C   UNL     1      -2.621   6.862   6.755  0.00  0.00    +0.124 C 
BRANCH  14  16
ATOM     15  C   UNL     1      -0.337   7.322   5.853  0.00  0.00    +0.005 C 
ATOM     16  C   UNL     1      -1.347   6.225   6.196  0.00  0.00    +0.018 C 
ENDBRANCH  14  16
ENDBRANCH   3  14
ENDBRANCH   1  12
BRANCH   1  17
ATOM     17  C   UNL     1      -2.467   2.688   3.640  0.00  0.00    +0.039 A 
ATOM     18  C   UNL     1      -2.695   1.438   3.066  0.00  0.00    +0.015 A 
ATOM     19  C   UNL     1      -2.015   1.072   1.923  0.00  0.00    +0.029 A 
ATOM     20  C   UNL     1      -1.108   1.943   1.346  0.00  0.00    +0.106 A 
ATOM     21  C   UNL     1      -0.873   3.182   1.914  0.00  0.00    +0.029 A 
ATOM     22  C   UNL     1      -1.551   3.562   3.054  0.00  0.00    +0.015 A 
BRANCH  20  23
ATOM     23  S   UNL     1      -0.243   1.469  -0.114  0.00  0.00    +0.061 S 
ATOM     24  O   UNL     1      -0.232   0.048  -0.136  0.00  0.00    -0.153 OA
ATOM     25  O   UNL     1       0.950   2.241  -0.148  0.00  0.00    -0.153 OA
BRANCH  23  26
ATOM     26  N   UNL     1      -1.159   1.954  -1.405  0.00  0.00    -0.177 NA
ATOM     27  C   UNL     1      -2.168   1.059  -1.987  0.00  0.00    +0.109 C 
ATOM     28  C   UNL     1      -3.514   1.799  -2.026  0.00  0.00    +0.017 C 
ATOM     29  C   UNL     1      -3.340   3.121  -2.777  0.00  0.00    +0.003 C 
ATOM     30  C   UNL     1      -2.328   4.000  -2.039  0.00  0.00    +0.017 C 
ATOM     31  C   UNL     1      -0.973   3.287  -1.996  0.00  0.00    +0.109 C 
ENDBRANCH  23  26
ENDBRANCH  20  23
ENDBRANCH   1  17
TORSDOF 6
