REMARK  Name = ZINC64220425
REMARK  10 active torsions:
REMARK  status: ('A' for Active; 'I' for Inactive)
REMARK    1  A    between atoms: C_1  and  C_2
REMARK    2  A    between atoms: N_5  and  C_8
REMARK    3  A    between atoms: C_8  and  C_10
REMARK    4  A    between atoms: C_8  and  C_30
REMARK    5  A    between atoms: C_10  and  N_11
REMARK    6  A    between atoms: C_12  and  C_14
REMARK    7  A    between atoms: C_14  and  C_16
REMARK    8  A    between atoms: C_14  and  N_26
REMARK    9  A    between atoms: C_16  and  C_17
REMARK   10  A    between atoms: C_27  and  C_29
REMARK                            x       y       z     vdW  Elec       q    Type
REMARK                         _______ _______ _______ _____ _____    ______ ____
ROOT
ATOM      1  N   UNL     1       1.256  -3.634   2.781  0.00  0.00    -0.315 N 
ATOM      2  C   UNL     1       2.092  -3.867   3.812  0.00  0.00    +0.234 C 
ATOM      3  O   UNL     1       1.759  -4.616   4.706  0.00  0.00    -0.274 OA
ATOM      4  H   UNL     1       1.522  -3.035   2.066  0.00  0.00    +0.149 HD
ENDROOT
BRANCH   1   5
ATOM      5  C   UNL     1      -0.056  -4.284   2.741  0.00  0.00    +0.094 C 
BRANCH   5   6
ATOM      6  C   UNL     1      -0.748  -3.956   1.416  0.00  0.00    -0.013 C 
BRANCH   6  11
ATOM      7  C   UNL     1      -6.322  -5.139   1.188  0.00  0.00    +0.007 C 
ATOM      8  C   UNL     1      -4.978  -4.407   1.175  0.00  0.00    -0.018 C 
ATOM      9  C   UNL     1      -4.095  -4.980   0.062  0.00  0.00    -0.015 C 
ATOM     10  C   UNL     1      -2.725  -4.300   0.105  0.00  0.00    -0.078 C 
ATOM     11  N   UNL     1      -2.094  -4.544   1.408  0.00  0.00    +0.386 N 
ATOM     12  C   UNL     1      -2.899  -3.935   2.473  0.00  0.00    -0.078 C 
ATOM     13  C   UNL     1      -4.276  -4.601   2.522  0.00  0.00    -0.015 C 
ATOM     14  H   UNL     1      -2.026  -5.538   1.566  0.00  0.00    -0.081 HD
ENDBRANCH   6  11
BRANCH   6  15
ATOM     15  C   UNL     1       0.056  -4.525   0.276  0.00  0.00    -0.022 A 
ATOM     16  C   UNL     1       0.931  -3.898  -0.548  0.00  0.00    +0.009 A 
ATOM     17  C   UNL     1       1.562  -4.628  -1.537  0.00  0.00    +0.008 A 
ATOM     18  C   UNL     1       1.286  -5.950  -1.655  0.00  0.00    +0.045 A 
ATOM     19  S   UNL     1       0.108  -6.201  -0.337  0.00  0.00    -0.103 S 
ENDBRANCH   6  15
ENDBRANCH   5   6
ENDBRANCH   1   5
BRANCH   2  20
ATOM     20  C   UNL     1       3.442  -3.198   3.853  0.00  0.00    +0.163 C 
BRANCH  20  21
ATOM     21  N   UNL     1       3.951  -3.210   5.226  0.00  0.00    -0.304 N 
ATOM     22  C   UNL     1       4.149  -4.381   5.862  0.00  0.00    +0.211 C 
ATOM     23  O   UNL     1       3.906  -5.427   5.297  0.00  0.00    -0.276 OA
ATOM     24  C   UNL     1       4.673  -4.393   7.275  0.00  0.00    +0.109 C 
ATOM     25  H   UNL     1       4.146  -2.374   5.678  0.00  0.00    +0.149 HD
ENDBRANCH  20  21
BRANCH  20  26
ATOM     26  C   UNL     1       4.413  -3.953   2.943  0.00  0.00    +0.065 C 
BRANCH  26  27
ATOM     27  C   UNL     1       5.726  -3.216   2.888  0.00  0.00    -0.039 C 
ATOM     28  C   UNL     1       6.824  -3.452   3.642  0.00  0.00    -0.001 A 
ATOM     29  C   UNL     1       7.113  -4.428   4.699  0.00  0.00    +0.010 A 
ATOM     30  C   UNL     1       8.332  -4.420   5.284  0.00  0.00    +0.001 A 
ATOM     31  C   UNL     1       9.325  -3.505   4.907  0.00  0.00    +0.002 A 
ATOM     32  C   UNL     1       9.134  -2.578   3.944  0.00  0.00    +0.026 A 
ATOM     33  C   UNL     1       7.889  -2.496   3.261  0.00  0.00    +0.043 A 
ATOM     34  N   UNL     1       7.466  -1.701   2.309  0.00  0.00    -0.380 N 
ATOM     35  C   UNL     1       6.085  -2.066   1.973  0.00  0.00    +0.144 C 
ATOM     36  H   UNL     1       7.981  -0.992   1.894  0.00  0.00    +0.160 HD
ENDBRANCH  26  27
ENDBRANCH  20  26
ENDBRANCH   2  20
TORSDOF 8
