REMARK  Name = ZINC06300827
REMARK  7 active torsions:
REMARK  status: ('A' for Active; 'I' for Inactive)
REMARK    1  A    between atoms: C_1  and  C_2
REMARK    2  A    between atoms: C_4  and  C_35
REMARK    3  A    between atoms: C_9  and  C_14
REMARK    4  A    between atoms: C_14  and  C_16
REMARK    5  A    between atoms: C_14  and  N_63
REMARK    6  A    between atoms: N_20  and  C_21
REMARK    7  A    between atoms: C_21  and  C_22
REMARK                            x       y       z     vdW  Elec       q    Type
REMARK                         _______ _______ _______ _____ _____    ______ ____
ROOT
ATOM      1  C   UNL     1      -2.331  -0.863   1.881  0.00  0.00    +0.039 C 
ENDROOT
BRANCH   1  10
ATOM      2  C   UNL     1      -5.894   5.688   1.834  0.00  0.00    +0.044 C 
ATOM      3  C   UNL     1      -5.171   4.590   2.571  0.00  0.00    -0.050 A 
ATOM      4  C   UNL     1      -4.988   4.688   3.944  0.00  0.00    +0.008 A 
ATOM      5  C   UNL     1      -4.331   3.696   4.639  0.00  0.00    -0.026 A 
ATOM      6  C   UNL     1      -3.844   2.584   3.959  0.00  0.00    +0.052 A 
ATOM      7  C   UNL     1      -4.031   2.489   2.568  0.00  0.00    -0.001 A 
ATOM      8  C   UNL     1      -4.702   3.508   1.883  0.00  0.00    +0.013 A 
ATOM      9  C   UNL     1      -3.515   1.315   1.861  0.00  0.00    +0.017 A 
ATOM     10  C   UNL     1      -2.873   0.358   2.577  0.00  0.00    +0.011 A 
ATOM     11  C   UNL     1      -2.717   0.500   3.973  0.00  0.00    +0.251 A 
ATOM     12  O   UNL     1      -2.141  -0.373   4.598  0.00  0.00    -0.268 OA
ATOM     13  N   UNL     1      -3.182   1.577   4.629  0.00  0.00    -0.322 N 
ATOM     14  H   UNL     1      -3.054   1.645   5.588  0.00  0.00    +0.169 HD
ATOM     15  C   UNL     1      -4.140   3.816   6.129  0.00  0.00    +0.046 C 
ENDBRANCH   1  10
BRANCH   1  22
ATOM     16  C   UNL     1      -2.188  -3.286   2.013  0.00  0.00    -0.077 C 
ATOM     17  C   UNL     1      -2.871  -4.556   2.441  0.00  0.00    -0.019 C 
ATOM     18  C   UNL     1      -3.867  -4.972   1.339  0.00  0.00    -0.002 C 
ATOM     19  C   UNL     1      -5.101  -4.196   1.390  0.00  0.00    -0.002 C 
ATOM     20  C   UNL     1      -4.851  -2.688   1.181  0.00  0.00    -0.019 C 
ATOM     21  C   UNL     1      -4.334  -2.107   2.469  0.00  0.00    -0.077 C 
ATOM     22  N   UNL     1      -2.837  -2.055   2.580  0.00  0.00    +0.389 N 
ATOM     23  H   UNL     1      -2.588  -1.987   3.574  0.00  0.00    -0.080 HD
ENDBRANCH   1  22
BRANCH   1  24
ATOM     24  C   UNL     1      -0.826  -0.862   1.964  0.00  0.00    +0.143 A 
ATOM     25  N   UNL     1      -0.102  -0.994   3.049  0.00  0.00    -0.115 NA
ATOM     26  N   UNL     1       1.139  -0.942   2.708  0.00  0.00    -0.023 NA
ATOM     27  N   UNL     1       1.226  -0.785   1.433  0.00  0.00    -0.044 NA
ATOM     28  N   UNL     1       0.036  -0.726   0.939  0.00  0.00    -0.226 N 
BRANCH  28  29
ATOM     29  C   UNL     1      -0.313  -0.550  -0.473  0.00  0.00    +0.182 C 
BRANCH  29  30
ATOM     30  C   UNL     1      -0.305   0.918  -0.812  0.00  0.00    -0.026 A 
ATOM     31  C   UNL     1      -1.488   1.634  -0.809  0.00  0.00    +0.008 A 
ATOM     32  C   UNL     1      -1.482   2.982  -1.116  0.00  0.00    +0.038 A 
ATOM     33  C   UNL     1      -0.292   3.612  -1.437  0.00  0.00    +0.123 A 
ATOM     34  C   UNL     1       0.891   2.894  -1.445  0.00  0.00    +0.038 A 
ATOM     35  C   UNL     1       0.883   1.547  -1.133  0.00  0.00    +0.008 A 
ATOM     36  F   UNL     1      -0.286   4.929  -1.742  0.00  0.00    -0.205 F 
ENDBRANCH  29  30
ENDBRANCH  28  29
ENDBRANCH   1  24
TORSDOF 5
