REMARK  Name = ZINC40065442
REMARK  9 active torsions:
REMARK  status: ('A' for Active; 'I' for Inactive)
REMARK    1  A    between atoms: C_1  and  C_2
REMARK    2  A    between atoms: C_2  and  C_3
REMARK    3  A    between atoms: C_3  and  C_4
REMARK    4  A    between atoms: C_4  and  O_5
REMARK    5  A    between atoms: O_5  and  C_6
REMARK    6  A    between atoms: C_10  and  C_12
REMARK    7  A    between atoms: C_20  and  C_36
REMARK    8  A    between atoms: C_21  and  C_35
REMARK    9  A    between atoms: C_32  and  C_34
REMARK                            x       y       z     vdW  Elec       q    Type
REMARK                         _______ _______ _______ _____ _____    ______ ____
ROOT
ATOM      1  C   UNL     1      -5.730  -6.426   0.011  0.00  0.00    +0.151 C 
ATOM      2  C   UNL     1      -6.091  -6.883   1.386  0.00  0.00    +0.072 A 
ATOM      3  C   UNL     1      -6.212  -6.146   2.648  0.00  0.00    +0.199 A 
ATOM      4  O   UNL     1      -6.187  -4.930   2.716  0.00  0.00    -0.287 OA
ATOM      5  C   UNL     1      -6.367  -7.024   3.836  0.00  0.00    +0.065 A 
ATOM      6  C   UNL     1      -6.295  -6.491   5.123  0.00  0.00    +0.015 A 
ATOM      7  C   UNL     1      -6.434  -7.313   6.206  0.00  0.00    +0.004 A 
ATOM      8  C   UNL     1      -6.646  -8.673   6.028  0.00  0.00    -0.044 A 
ATOM      9  C   UNL     1      -6.721  -9.216   4.765  0.00  0.00    -0.005 A 
ATOM     10  C   UNL     1      -6.585  -8.398   3.644  0.00  0.00    +0.143 A 
ATOM     11  O   UNL     1      -6.672  -8.951   2.413  0.00  0.00    -0.449 OA
ATOM     12  C   UNL     1      -6.318  -8.229   1.331  0.00  0.00    +0.199 A 
ATOM     13  C   UNL     1      -6.109  -8.677  -0.056  0.00  0.00    +0.288 C 
ATOM     14  O   UNL     1      -6.227  -9.822  -0.443  0.00  0.00    -0.266 OA
ATOM     15  N   UNL     1      -5.767  -7.629  -0.836  0.00  0.00    -0.238 N 
ATOM     16  C   UNL     1      -5.496  -7.677  -2.202  0.00  0.00    +0.129 A 
ATOM     17  C   UNL     1      -5.049  -6.535  -2.856  0.00  0.00    +0.044 A 
ATOM     18  C   UNL     1      -4.785  -6.597  -4.213  0.00  0.00    +0.005 A 
ATOM     19  C   UNL     1      -4.977  -7.804  -4.871  0.00  0.00    +0.023 A 
ATOM     20  C   UNL     1      -5.423  -8.899  -4.158  0.00  0.00    +0.040 A 
ATOM     21  N   UNL     1      -5.662  -8.812  -2.863  0.00  0.00    -0.237 NA
ATOM     22  C   UNL     1      -5.634 -10.212  -4.866  0.00  0.00    +0.065 C 
ATOM     23  C   UNL     1      -6.951 -10.696   4.595  0.00  0.00    +0.048 C 
ATOM     24  C   UNL     1      -6.795  -9.567   7.233  0.00  0.00    +0.044 C 
ENDROOT
BRANCH   1  29
ATOM     25  C   UNL     1      -2.913  -3.908   0.009  0.00  0.00    +0.121 A 
ATOM     26  C   UNL     1      -1.802  -4.739  -0.000  0.00  0.00    +0.045 A 
ATOM     27  C   UNL     1      -1.967  -6.110  -0.006  0.00  0.00    +0.004 A 
ATOM     28  C   UNL     1      -3.238  -6.655  -0.002  0.00  0.00    +0.006 A 
ATOM     29  C   UNL     1      -4.347  -5.829   0.007  0.00  0.00    -0.019 A 
ATOM     30  C   UNL     1      -4.187  -4.457   0.018  0.00  0.00    +0.051 A 
BRANCH  25  31
ATOM     31  O   UNL     1      -2.753  -2.558   0.015  0.00  0.00    -0.492 OA
BRANCH  31  32
ATOM     32  C   UNL     1      -1.413  -2.063   0.004  0.00  0.00    +0.229 C 
BRANCH  32  33
ATOM     33  C   UNL     1      -1.433  -0.534   0.013  0.00  0.00    +0.041 C 
BRANCH  33  35
ATOM     34  C   UNL     1      -0.019   1.526   0.010  0.00  0.00    +0.004 C 
ATOM     35  C   UNL     1       0.002  -0.004   0.002  0.00  0.00    -0.000 C 
ENDBRANCH  33  35
ENDBRANCH  32  33
ENDBRANCH  31  32
ENDBRANCH  25  31
ENDBRANCH   1  29
TORSDOF 5
