REMARK  Name = ZINC12926475
REMARK  5 active torsions:
REMARK  status: ('A' for Active; 'I' for Inactive)
REMARK    1  A    between atoms: C_1  and  C_2
REMARK    2  A    between atoms: C_2  and  N_3
REMARK    3  A    between atoms: C_12  and  C_14
REMARK    4  A    between atoms: N_16  and  N_17
REMARK    5  A    between atoms: C_18  and  C_20
REMARK                            x       y       z     vdW  Elec       q    Type
REMARK                         _______ _______ _______ _____ _____    ______ ____
ROOT
ATOM      1  C   UNL     1      -1.299   2.036   0.019  0.00  0.00    +0.281 C 
ATOM      2  O   UNL     1      -1.307   3.252   0.026  0.00  0.00    -0.267 OA
ATOM      3  N   UNL     1      -2.462   1.355   0.021  0.00  0.00    -0.229 N 
ATOM      4  H   UNL     1      -2.455   0.385   0.016  0.00  0.00    +0.173 HD
ENDROOT
BRANCH   1  14
ATOM      5  N   UNL     1       1.069  -0.710  -0.012  0.00  0.00    -0.229 N 
ATOM      6  C   UNL     1       2.311  -0.182  -0.021  0.00  0.00    +0.275 A 
ATOM      7  O   UNL     1       3.293  -0.902  -0.034  0.00  0.00    -0.266 OA
ATOM      8  C   UNL     1       2.450   1.280  -0.015  0.00  0.00    +0.050 A 
ATOM      9  C   UNL     1       3.685   1.922  -0.023  0.00  0.00    +0.014 A 
ATOM     10  C   UNL     1       3.730   3.300  -0.017  0.00  0.00    +0.001 A 
ATOM     11  C   UNL     1       2.560   4.048  -0.002  0.00  0.00    +0.001 A 
ATOM     12  C   UNL     1       1.327   3.431   0.007  0.00  0.00    +0.011 A 
ATOM     13  C   UNL     1       1.259   2.042   0.001  0.00  0.00    +0.020 A 
ATOM     14  C   UNL     1      -0.016   1.307   0.009  0.00  0.00    +0.155 A 
ATOM     15  N   UNL     1       0.002  -0.004   0.002  0.00  0.00    -0.163 NA
BRANCH   5  17
ATOM     16  C   UNL     1       0.902  -2.685   1.421  0.00  0.00    +0.029 C 
ATOM     17  C   UNL     1       0.935  -2.169  -0.019  0.00  0.00    +0.144 C 
ENDBRANCH   5  17
ENDBRANCH   1  14
BRANCH   3  18
ATOM     18  N   UNL     1      -3.680   2.047   0.031  0.00  0.00    -0.230 N 
ATOM     19  C   UNL     1      -4.842   1.365   0.033  0.00  0.00    +0.261 C 
ATOM     20  O   UNL     1      -4.834   0.150   0.026  0.00  0.00    -0.269 OA
ATOM     21  H   UNL     1      -3.686   3.017   0.036  0.00  0.00    +0.173 HD
BRANCH  19  22
ATOM     22  C   UNL     1      -6.127   2.095   0.043  0.00  0.00    +0.052 A 
ATOM     23  C   UNL     1      -6.140   3.491   0.056  0.00  0.00    +0.014 A 
ATOM     24  C   UNL     1      -7.343   4.167   0.061  0.00  0.00    +0.001 A 
ATOM     25  C   UNL     1      -8.535   3.464   0.063  0.00  0.00    +0.001 A 
ATOM     26  C   UNL     1      -8.531   2.082   0.054  0.00  0.00    +0.016 A 
ATOM     27  C   UNL     1      -7.334   1.392   0.044  0.00  0.00    +0.030 A 
ATOM     28 BR   UNL     1      -7.329  -0.499   0.034  0.00  0.00    -0.050 Br
ENDBRANCH  19  22
ENDBRANCH   3  18
TORSDOF 4
