REMARK  Name = ZINC06578095
REMARK  8 active torsions:
REMARK  status: ('A' for Active; 'I' for Inactive)
REMARK    1  A    between atoms: C_1  and  C_2
REMARK    2  A    between atoms: C_2  and  O_3
REMARK    3  A    between atoms: O_3  and  C_4
REMARK    4  A    between atoms: C_4  and  C_6
REMARK    5  A    between atoms: C_13  and  C_15
REMARK    6  A    between atoms: N_20  and  S_22
REMARK    7  A    between atoms: S_22  and  C_25
REMARK    8  A    between atoms: N_34  and  C_35
REMARK                            x       y       z     vdW  Elec       q    Type
REMARK                         _______ _______ _______ _____ _____    ______ ____
ROOT
ATOM      1  C   UNL     1      -6.006  -5.910   0.701  0.00  0.00    +0.091 C 
ATOM      2  C   UNL     1      -6.223  -6.676  -0.606  0.00  0.00    +0.015 C 
ATOM      3  C   UNL     1      -7.679  -7.138  -0.694  0.00  0.00    +0.018 C 
ATOM      4  C   UNL     1      -7.982  -8.081   0.475  0.00  0.00    +0.109 C 
ATOM      5  N   UNL     1      -7.639  -7.402   1.732  0.00  0.00    -0.176 NA
ATOM      6  C   UNL     1      -6.291  -6.838   1.886  0.00  0.00    +0.122 C 
ENDROOT
BRANCH   1  13
ATOM      7  C   UNL     1      -2.974  -2.285   0.838  0.00  0.00    +0.115 C 
ATOM      8  C   UNL     1      -3.868  -1.478  -0.106  0.00  0.00    +0.018 C 
ATOM      9  C   UNL     1      -5.274  -2.083  -0.120  0.00  0.00    +0.020 C 
ATOM     10  C   UNL     1      -5.201  -3.523  -0.637  0.00  0.00    +0.108 C 
ATOM     11  N   UNL     1      -4.231  -4.269   0.177  0.00  0.00    -0.300 N 
ATOM     12  C   UNL     1      -2.874  -3.728   0.333  0.00  0.00    +0.122 C 
ATOM     13  C   UNL     1      -4.581  -5.427   0.771  0.00  0.00    +0.220 C 
ATOM     14  O   UNL     1      -3.747  -6.081   1.361  0.00  0.00    -0.275 OA
BRANCH   7  15
ATOM     15  C   UNL     1      -1.599  -1.669   0.876  0.00  0.00    +0.312 C 
ATOM     16  O   UNL     1      -0.637  -2.317   0.536  0.00  0.00    -0.250 OA
BRANCH  15  17
ATOM     17  O   UNL     1      -1.442  -0.402   1.288  0.00  0.00    -0.465 OA
BRANCH  17  19
ATOM     18  C   UNL     1      -0.131   1.565   1.794  0.00  0.00    +0.048 C 
ATOM     19  C   UNL     1      -0.110   0.117   1.299  0.00  0.00    +0.229 C 
ENDBRANCH  17  19
ENDBRANCH  15  17
ENDBRANCH   7  15
ENDBRANCH   1  13
BRANCH   5  20
ATOM     20  S   UNL     1      -8.751  -7.274   2.952  0.00  0.00    +0.061 S 
ATOM     21  O   UNL     1      -8.366  -6.152   3.736  0.00  0.00    -0.153 OA
ATOM     22  O   UNL     1     -10.032  -7.376   2.347  0.00  0.00    -0.153 OA
BRANCH  20  23
ATOM     23  C   UNL     1      -8.564  -8.693   3.979  0.00  0.00    +0.109 A 
ATOM     24  C   UNL     1      -9.290  -9.840   3.707  0.00  0.00    +0.031 A 
ATOM     25  C   UNL     1      -9.149 -10.957   4.507  0.00  0.00    +0.031 A 
ATOM     26  C   UNL     1      -8.277 -10.928   5.585  0.00  0.00    +0.090 A 
ATOM     27  C   UNL     1      -7.545  -9.773   5.859  0.00  0.00    +0.159 A 
ATOM     28  C   UNL     1      -7.690  -8.659   5.048  0.00  0.00    +0.077 A 
ATOM     29  O   UNL     1      -6.787 -10.028   6.953  0.00  0.00    -0.407 OA
ATOM     30  C   UNL     1      -7.016 -11.284   7.367  0.00  0.00    +0.421 A 
ATOM     31  O   UNL     1      -6.490 -11.815   8.325  0.00  0.00    -0.223 OA
ATOM     32  N   UNL     1      -7.921 -11.865   6.554  0.00  0.00    -0.277 N 
ATOM     33  C   UNL     1      -8.437 -13.231   6.669  0.00  0.00    +0.156 C 
ENDBRANCH  20  23
ENDBRANCH   5  20
TORSDOF 6
