REMARK  Name = ZINC19973164
REMARK  13 active torsions:
REMARK  status: ('A' for Active; 'I' for Inactive)
REMARK    1  A    between atoms: C_1  and  C_2
REMARK    2  A    between atoms: C_4  and  C_39
REMARK    3  A    between atoms: C_9  and  C_14
REMARK    4  A    between atoms: C_14  and  C_16
REMARK    5  A    between atoms: C_14  and  N_25
REMARK    6  A    between atoms: N_20  and  C_21
REMARK    7  A    between atoms: C_21  and  C_22
REMARK    8  A    between atoms: C_21  and  C_23
REMARK    9  A    between atoms: C_21  and  C_24
REMARK   10  A    between atoms: N_25  and  C_26
REMARK   11  A    between atoms: N_25  and  C_32
REMARK   12  A    between atoms: C_26  and  C_27
REMARK   13  A    between atoms: C_32  and  C_33
REMARK                            x       y       z     vdW  Elec       q    Type
REMARK                         _______ _______ _______ _____ _____    ______ ____
ROOT
ATOM      1  C   UNL     1      -0.184  -5.069   3.029  0.00  0.00    +0.039 C 
ENDROOT
BRANCH   1  10
ATOM      2  C   UNL     1      -1.627   1.734   0.335  0.00  0.00    +0.044 C 
ATOM      3  C   UNL     1      -1.278   0.283   0.123  0.00  0.00    -0.050 A 
ATOM      4  C   UNL     1      -1.098  -0.200  -1.166  0.00  0.00    +0.008 A 
ATOM      5  C   UNL     1      -0.779  -1.523  -1.383  0.00  0.00    -0.026 A 
ATOM      6  C   UNL     1      -0.635  -2.385  -0.301  0.00  0.00    +0.052 A 
ATOM      7  C   UNL     1      -0.818  -1.892   1.004  0.00  0.00    -0.001 A 
ATOM      8  C   UNL     1      -1.137  -0.544   1.201  0.00  0.00    +0.013 A 
ATOM      9  C   UNL     1      -0.664  -2.807   2.137  0.00  0.00    +0.017 A 
ATOM     10  C   UNL     1      -0.349  -4.101   1.885  0.00  0.00    +0.011 A 
ATOM     11  C   UNL     1      -0.176  -4.546   0.557  0.00  0.00    +0.251 A 
ATOM     12  O   UNL     1       0.106  -5.714   0.353  0.00  0.00    -0.268 OA
ATOM     13  N   UNL     1      -0.315  -3.713  -0.489  0.00  0.00    -0.322 N 
ATOM     14  H   UNL     1      -0.190  -4.051  -1.389  0.00  0.00    +0.169 HD
ATOM     15  C   UNL     1      -0.587  -2.034  -2.788  0.00  0.00    +0.046 C 
ENDBRANCH   1  10
BRANCH   1  16
ATOM     16  C   UNL     1      -1.258  -6.123   2.954  0.00  0.00    +0.143 A 
ATOM     17  N   UNL     1      -1.343  -7.094   2.078  0.00  0.00    -0.115 NA
ATOM     18  N   UNL     1      -2.399  -7.782   2.346  0.00  0.00    -0.023 NA
ATOM     19  N   UNL     1      -2.990  -7.275   3.371  0.00  0.00    -0.043 NA
ATOM     20  N   UNL     1      -2.315  -6.254   3.778  0.00  0.00    -0.225 N 
BRANCH  20  21
ATOM     21  C   UNL     1      -2.638  -5.396   4.920  0.00  0.00    +0.059 C 
ATOM     22  C   UNL     1      -2.717  -3.939   4.458  0.00  0.00    +0.036 C 
ATOM     23  C   UNL     1      -3.986  -5.817   5.509  0.00  0.00    +0.036 C 
ATOM     24  C   UNL     1      -1.550  -5.534   5.987  0.00  0.00    +0.036 C 
ENDBRANCH  20  21
ENDBRANCH   1  16
BRANCH   1  25
ATOM     25  N   UNL     1       1.136  -5.709   2.942  0.00  0.00    +0.396 N 
ATOM     26  H   UNL     1       1.166  -6.309   2.131  0.00  0.00    -0.080 HD
BRANCH  25  27
ATOM     27  C   UNL     1       2.174  -4.676   2.824  0.00  0.00    -0.002 C 
BRANCH  27  28
ATOM     28  C   UNL     1       3.516  -5.332   2.630  0.00  0.00    +0.089 A 
ATOM     29  C   UNL     1       4.099  -5.597   1.447  0.00  0.00    +0.042 A 
ATOM     30  C   UNL     1       5.340  -6.213   1.730  0.00  0.00    +0.041 A 
ATOM     31  C   UNL     1       5.441  -6.286   3.070  0.00  0.00    +0.195 A 
ATOM     32  O   UNL     1       4.337  -5.747   3.610  0.00  0.00    -0.470 OA
ENDBRANCH  27  28
ENDBRANCH  25  27
BRANCH  25  33
ATOM     33  C   UNL     1       1.374  -6.507   4.152  0.00  0.00    -0.045 C 
BRANCH  33  34
ATOM     34  C   UNL     1       0.473  -7.743   4.133  0.00  0.00    +0.102 C 
ATOM     35  C   UNL     1       0.849  -8.682   5.299  0.00  0.00    +0.032 C 
ATOM     36  C   UNL     1       0.718 -10.086   4.647  0.00  0.00    +0.030 C 
ATOM     37  C   UNL     1       1.177  -9.781   3.199  0.00  0.00    +0.160 C 
ATOM     38  O   UNL     1       0.667  -8.467   2.912  0.00  0.00    -0.378 OA
ENDBRANCH  33  34
ENDBRANCH  25  33
ENDBRANCH   1  25
TORSDOF 8
