REMARK  Name = ZINC08793172
REMARK  6 active torsions:
REMARK  status: ('A' for Active; 'I' for Inactive)
REMARK    1  A    between atoms: C_4  and  C_7
REMARK    2  A    between atoms: C_7  and  N_53
REMARK    3  A    between atoms: C_13  and  N_17
REMARK    4  A    between atoms: C_14  and  C_15
REMARK    5  A    between atoms: C_18  and  C_20
REMARK    6  A    between atoms: C_20  and  N_21
REMARK                            x       y       z     vdW  Elec       q    Type
REMARK                         _______ _______ _______ _____ _____    ______ ____
ROOT
ATOM      1  C   UNL     1       3.982   5.141  -1.440  0.00  0.00    -0.073 C 
ATOM      2  C   UNL     1       4.632   5.110  -2.826  0.00  0.00    +0.019 C 
ATOM      3  C   UNL     1       3.536   5.292  -3.869  0.00  0.00    -0.022 A 
ATOM      4  C   UNL     1       2.241   5.092  -3.535  0.00  0.00    -0.021 A 
ATOM      5  S   UNL     1       1.337   5.410  -5.021  0.00  0.00    -0.079 S 
ATOM      6  C   UNL     1       2.658   5.803  -6.072  0.00  0.00    +0.090 A 
ATOM      7  C   UNL     1       3.767   5.679  -5.248  0.00  0.00    +0.083 A 
ATOM      8  C   UNL     1       1.723   4.687  -2.190  0.00  0.00    -0.035 C 
ATOM      9  N   UNL     1       2.867   4.171  -1.400  0.00  0.00    +0.386 N 
ATOM     10  H   UNL     1       3.182   3.283  -1.808  0.00  0.00    -0.081 HD
ENDROOT
BRANCH   6  11
ATOM     11  N   UNL     1       2.616   6.156  -7.414  0.00  0.00    -0.278 N 
ATOM     12  C   UNL     1       1.433   6.225  -8.056  0.00  0.00    +0.235 C 
ATOM     13  O   UNL     1       0.405   5.979  -7.462  0.00  0.00    -0.274 OA
ATOM     14  H   UNL     1       3.438   6.354  -7.889  0.00  0.00    +0.155 HD
BRANCH  12  15
ATOM     15  C   UNL     1       1.388   6.609  -9.513  0.00  0.00    +0.213 C 
BRANCH  15  16
ATOM     16  N   UNL     1      -0.002   6.612  -9.974  0.00  0.00    -0.225 N 
ATOM     17  C   UNL     1      -0.631   5.547 -10.504  0.00  0.00    +0.254 C 
ATOM     18  O   UNL     1      -0.144   4.447 -10.671  0.00  0.00    -0.270 OA
ATOM     19  C   UNL     1      -2.015   5.938 -10.844  0.00  0.00    +0.049 A 
ATOM     20  C   UNL     1      -3.099   5.277 -11.399  0.00  0.00    +0.014 A 
ATOM     21  C   UNL     1      -4.291   5.957 -11.596  0.00  0.00    +0.001 A 
ATOM     22  C   UNL     1      -4.406   7.288 -11.242  0.00  0.00    +0.001 A 
ATOM     23  C   UNL     1      -3.330   7.962 -10.684  0.00  0.00    +0.014 A 
ATOM     24  C   UNL     1      -2.132   7.295 -10.482  0.00  0.00    +0.049 A 
ATOM     25  C   UNL     1      -0.817   7.682  -9.930  0.00  0.00    +0.254 C 
ATOM     26  O   UNL     1      -0.521   8.781  -9.507  0.00  0.00    -0.270 OA
ENDBRANCH  15  16
ENDBRANCH  12  15
ENDBRANCH   6  11
BRANCH   7  27
ATOM     27  C   UNL     1       5.090   5.923  -5.740  0.00  0.00    +0.102 C 
ATOM     28  N   UNL     1       6.139   6.117  -6.130  0.00  0.00    -0.191 NA
ENDBRANCH   7  27
BRANCH   9  29
ATOM     29  C   UNL     1       2.451   3.937  -0.001  0.00  0.00    -0.043 C 
BRANCH  29  33
ATOM     30  C   UNL     1      -1.219   1.751   0.017  0.00  0.00    +0.000 A 
ATOM     31  C   UNL     1      -0.013   1.076   0.008  0.00  0.00    +0.000 A 
ATOM     32  C   UNL     1       1.175   1.783   0.000  0.00  0.00    +0.002 A 
ATOM     33  C   UNL     1       1.156   3.165   0.008  0.00  0.00    -0.064 A 
ATOM     34  C   UNL     1      -0.050   3.840   0.023  0.00  0.00    +0.002 A 
ATOM     35  C   UNL     1      -1.238   3.133   0.030  0.00  0.00    +0.000 A 
ENDBRANCH  29  33
ENDBRANCH   9  29
TORSDOF 6
