REMARK  Name = ZINC35026549
REMARK  8 active torsions:
REMARK  status: ('A' for Active; 'I' for Inactive)
REMARK    1  A    between atoms: C_1  and  C_2
REMARK    2  A    between atoms: C_2  and  C_3
REMARK    3  A    between atoms: C_3  and  C_5
REMARK    4  A    between atoms: C_3  and  N_17
REMARK    5  A    between atoms: N_15  and  C_16
REMARK    6  A    between atoms: N_17  and  C_18
REMARK    7  A    between atoms: C_18  and  C_19
REMARK    8  A    between atoms: N_26  and  C_27
REMARK                            x       y       z     vdW  Elec       q    Type
REMARK                         _______ _______ _______ _____ _____    ______ ____
ROOT
ATOM      1  N   UNL     1       2.030   0.059   1.508  0.00  0.00    -0.268 N 
ATOM      2  C   UNL     1       2.348   0.876   2.531  0.00  0.00    +0.307 C 
ATOM      3  O   UNL     1       1.486   1.247   3.304  0.00  0.00    -0.252 OA
ATOM      4  N   UNL     1       3.623   1.283   2.697  0.00  0.00    -0.268 N 
ATOM      5  H   UNL     1       4.323   0.928   2.128  0.00  0.00    +0.156 HD
ENDROOT
BRANCH   4   6
ATOM      6  C   UNL     1       3.935   2.218   3.692  0.00  0.00    +0.053 A 
ATOM      7  C   UNL     1       2.961   3.091   4.157  0.00  0.00    +0.026 A 
ATOM      8  C   UNL     1       3.272   4.012   5.138  0.00  0.00    +0.022 A 
ATOM      9  C   UNL     1       4.553   4.065   5.659  0.00  0.00    +0.042 A 
ATOM     10  C   UNL     1       5.527   3.197   5.198  0.00  0.00    +0.041 A 
ATOM     11  C   UNL     1       5.220   2.269   4.220  0.00  0.00    +0.064 A 
ATOM     12 CL   UNL     1       6.439   1.173   3.648  0.00  0.00    -0.082 Cl
ATOM     13 CL   UNL     1       4.940   5.225   6.891  0.00  0.00    -0.083 Cl
ENDBRANCH   4   6
BRANCH   1  14
ATOM     14  C   UNL     1       0.645  -0.383   1.328  0.00  0.00    +0.144 C 
BRANCH  14  15
ATOM     15  C   UNL     1       0.583  -1.887   1.407  0.00  0.00    +0.133 A 
ATOM     16  N   UNL     1       1.163  -2.577   0.473  0.00  0.00    -0.232 NA
ATOM     17  C   UNL     1       1.149  -3.934   0.479  0.00  0.00    +0.078 A 
ATOM     18  C   UNL     1       1.774  -4.677  -0.525  0.00  0.00    +0.028 A 
ATOM     19  C   UNL     1       1.734  -6.052  -0.479  0.00  0.00    +0.002 A 
ATOM     20  C   UNL     1       1.081  -6.712   0.554  0.00  0.00    +0.001 A 
ATOM     21  C   UNL     1       0.457  -6.000   1.555  0.00  0.00    +0.015 A 
ATOM     22  C   UNL     1       0.485  -4.608   1.528  0.00  0.00    +0.065 A 
ATOM     23  C   UNL     1      -0.162  -3.796   2.569  0.00  0.00    +0.262 A 
ATOM     24  O   UNL     1      -0.751  -4.314   3.500  0.00  0.00    -0.267 OA
ATOM     25  N   UNL     1      -0.073  -2.450   2.455  0.00  0.00    -0.298 N 
ATOM     26  C   UNL     1      -0.695  -1.593   3.468  0.00  0.00    +0.154 C 
ENDBRANCH  14  15
BRANCH  14  28
ATOM     27  C   UNL     1       0.106   1.606  -0.085  0.00  0.00    +0.006 C 
ATOM     28  C   UNL     1       0.137   0.077  -0.041  0.00  0.00    +0.027 C 
ENDBRANCH  14  28
ENDBRANCH   1  14
BRANCH   1  29
ATOM     29  C   UNL     1       3.068  -0.388   0.577  0.00  0.00    +0.184 C 
BRANCH  29  30
ATOM     30  C   UNL     1       3.172   0.588  -0.567  0.00  0.00    +0.122 A 
ATOM     31  C   UNL     1       3.974   1.667  -0.610  0.00  0.00    +0.046 A 
ATOM     32  C   UNL     1       3.751   2.294  -1.857  0.00  0.00    +0.041 A 
ATOM     33  C   UNL     1       2.825   1.561  -2.502  0.00  0.00    +0.195 A 
ATOM     34  O   UNL     1       2.483   0.526  -1.718  0.00  0.00    -0.466 OA
ENDBRANCH  29  30
ENDBRANCH   1  29
TORSDOF 6
