REMARK  Name = ZINC13507365
REMARK  10 active torsions:
REMARK  status: ('A' for Active; 'I' for Inactive)
REMARK    1  A    between atoms: C_1  and  C_2
REMARK    2  A    between atoms: C_6  and  N_9
REMARK    3  A    between atoms: C_7  and  C_8
REMARK    4  A    between atoms: N_9  and  C_10
REMARK    5  A    between atoms: C_10  and  C_12
REMARK    6  A    between atoms: C_10  and  C_18
REMARK    7  A    between atoms: N_20  and  C_21
REMARK    8  A    between atoms: C_26  and  C_28
REMARK    9  A    between atoms: C_28  and  N_29
REMARK   10  A    between atoms: C_30  and  C_32
REMARK                            x       y       z     vdW  Elec       q    Type
REMARK                         _______ _______ _______ _____ _____    ______ ____
ROOT
ATOM      1  N   UNL     1       0.106  -2.573   2.618  0.00  0.00    -0.254 N 
ATOM      2  C   UNL     1      -0.976  -2.932   3.337  0.00  0.00    +0.238 C 
ATOM      3  O   UNL     1      -0.922  -3.891   4.077  0.00  0.00    -0.274 OA
ENDROOT
BRANCH   1   9
ATOM      4  C   UNL     1       0.794   2.236   1.866  0.00  0.00    +0.044 C 
ATOM      5  C   UNL     1       0.370   0.877   1.373  0.00  0.00    -0.046 A 
ATOM      6  C   UNL     1      -0.083   0.722   0.076  0.00  0.00    +0.004 A 
ATOM      7  C   UNL     1      -0.472  -0.523  -0.380  0.00  0.00    +0.002 A 
ATOM      8  C   UNL     1      -0.411  -1.618   0.460  0.00  0.00    +0.024 A 
ATOM      9  C   UNL     1       0.043  -1.466   1.764  0.00  0.00    +0.041 A 
ATOM     10  C   UNL     1       0.439  -0.214   2.217  0.00  0.00    -0.026 A 
ATOM     11  C   UNL     1       0.937  -0.046   3.629  0.00  0.00    +0.046 C 
ENDBRANCH   1   9
BRANCH   1  12
ATOM     12  C   UNL     1       1.348  -3.342   2.730  0.00  0.00    +0.199 C 
BRANCH  12  13
ATOM     13  C   UNL     1       2.433  -2.661   1.938  0.00  0.00    +0.000 A 
ATOM     14  C   UNL     1       3.555  -2.153   2.576  0.00  0.00    +0.009 A 
ATOM     15  C   UNL     1       4.528  -1.534   1.807  0.00  0.00    +0.020 A 
ATOM     16  C   UNL     1       4.350  -1.445   0.439  0.00  0.00    +0.111 A 
ATOM     17  N   UNL     1       3.271  -1.939  -0.134  0.00  0.00    -0.263 NA
ATOM     18  C   UNL     1       2.327  -2.539   0.565  0.00  0.00    +0.116 A 
ENDBRANCH  12  13
BRANCH  12  19
ATOM     19  C   UNL     1       1.128  -4.732   2.189  0.00  0.00    +0.239 C 
ATOM     20  O   UNL     1       0.042  -5.049   1.754  0.00  0.00    -0.273 OA
ATOM     21  N   UNL     1       2.140  -5.622   2.191  0.00  0.00    -0.311 N 
ATOM     22  H   UNL     1       3.009  -5.369   2.539  0.00  0.00    +0.149 HD
BRANCH  21  23
ATOM     23  C   UNL     1       1.927  -6.973   1.665  0.00  0.00    +0.073 C 
ATOM     24  C   UNL     1       1.400  -7.898   2.783  0.00  0.00    +0.022 C 
ATOM     25  C   UNL     1       2.085  -9.259   2.504  0.00  0.00    +0.002 C 
ATOM     26  C   UNL     1       3.502  -8.839   2.039  0.00  0.00    +0.002 C 
ATOM     27  C   UNL     1       3.263  -7.572   1.193  0.00  0.00    +0.022 C 
ENDBRANCH  21  23
ENDBRANCH  12  19
ENDBRANCH   1  12
BRANCH   2  28
ATOM     28  C   UNL     1      -2.254  -2.140   3.222  0.00  0.00    +0.201 C 
BRANCH  28  29
ATOM     29  N   UNL     1      -3.272  -2.727   4.097  0.00  0.00    -0.300 N 
ATOM     30  C   UNL     1      -4.503  -2.182   4.158  0.00  0.00    +0.280 C 
ATOM     31  O   UNL     1      -4.769  -1.202   3.487  0.00  0.00    -0.267 OA
ATOM     32  H   UNL     1      -3.060  -3.508   4.632  0.00  0.00    +0.150 HD
BRANCH  30  33
ATOM     33  C   UNL     1      -5.522  -2.769   5.034  0.00  0.00    +0.189 A 
ATOM     34  C   UNL     1      -6.803  -2.322   5.186  0.00  0.00    +0.054 A 
ATOM     35  C   UNL     1      -7.421  -3.175   6.114  0.00  0.00    +0.042 A 
ATOM     36  C   UNL     1      -6.501  -4.094   6.482  0.00  0.00    +0.196 A 
ATOM     37  O   UNL     1      -5.360  -3.849   5.826  0.00  0.00    -0.458 OA
ENDBRANCH  30  33
ENDBRANCH  28  29
ENDBRANCH   2  28
TORSDOF 8
