REMARK  Name = ZINC33596701
REMARK  11 active torsions:
REMARK  status: ('A' for Active; 'I' for Inactive)
REMARK    1  A    between atoms: C_1  and  C_2
REMARK    2  A    between atoms: C_2  and  C_3
REMARK    3  A    between atoms: C_2  and  C_4
REMARK    4  A    between atoms: C_4  and  N_5
REMARK    5  A    between atoms: N_5  and  C_6
REMARK    6  A    between atoms: C_6  and  C_7
REMARK    7  A    between atoms: C_12  and  C_15
REMARK    8  A    between atoms: C_15  and  C_16
REMARK    9  A    between atoms: N_18  and  C_19
REMARK   10  A    between atoms: C_19  and  C_20
REMARK   11  A    between atoms: C_25  and  C_27
REMARK                            x       y       z     vdW  Elec       q    Type
REMARK                         _______ _______ _______ _____ _____    ______ ____
ROOT
ATOM      1  C   UNL     1      -6.280   5.586   3.419  0.00  0.00    +0.236 C 
ATOM      2  O   UNL     1      -6.967   4.877   2.715  0.00  0.00    -0.274 OA
ATOM      3  N   UNL     1      -5.270   5.051   4.133  0.00  0.00    -0.263 N 
ATOM      4  C   UNL     1      -5.015   3.687   4.063  0.00  0.00    +0.165 A 
ATOM      5  N   UNL     1      -4.087   2.984   4.683  0.00  0.00    -0.229 NA
ATOM      6  C   UNL     1      -3.979   1.683   4.500  0.00  0.00    +0.059 A 
ATOM      7  C   UNL     1      -4.855   1.073   3.663  0.00  0.00    +0.072 A 
ATOM      8  S   UNL     1      -5.842   2.469   3.143  0.00  0.00    -0.060 S 
ATOM      9  H   UNL     1      -4.647   5.695   4.772  0.00  0.00    +0.157 HD
ENDROOT
BRANCH   1  10
ATOM     10  C   UNL     1      -6.556   7.066   3.495  0.00  0.00    +0.204 C 
BRANCH  10  11
ATOM     11  N   UNL     1      -7.694   7.395   2.634  0.00  0.00    -0.288 N 
ATOM     12  C   UNL     1      -7.492   8.035   1.465  0.00  0.00    +0.248 C 
ATOM     13  O   UNL     1      -8.440   8.340   0.767  0.00  0.00    -0.270 OA
BRANCH  12  14
ATOM     14  C   UNL     1      -6.119   8.364   1.031  0.00  0.00    +0.055 A 
ATOM     15  C   UNL     1      -5.040   7.599   1.479  0.00  0.00    +0.016 A 
ATOM     16  C   UNL     1      -3.761   7.911   1.070  0.00  0.00    +0.021 A 
ATOM     17  C   UNL     1      -3.544   8.981   0.216  0.00  0.00    +0.042 A 
ATOM     18  C   UNL     1      -4.609   9.743  -0.233  0.00  0.00    +0.040 A 
ATOM     19  C   UNL     1      -5.896   9.438   0.165  0.00  0.00    +0.054 A 
ATOM     20 CL   UNL     1      -7.231  10.390  -0.403  0.00  0.00    -0.083 Cl
ATOM     21 CL   UNL     1      -1.930   9.367  -0.294  0.00  0.00    -0.083 Cl
ENDBRANCH  12  14
BRANCH  11  22
ATOM     22  C   UNL     1      -9.052   7.030   3.044  0.00  0.00    +0.111 C 
BRANCH  22  24
ATOM     23  C   UNL     1      -9.767   9.417   3.221  0.00  0.00    +0.009 C 
ATOM     24  C   UNL     1      -9.607   8.101   3.984  0.00  0.00    +0.000 C 
ATOM     25  C   UNL     1     -10.968   7.654   4.521  0.00  0.00    +0.009 C 
ENDBRANCH  22  24
ENDBRANCH  11  22
ENDBRANCH  10  11
ENDBRANCH   1  10
BRANCH   6  26
ATOM     26  C   UNL     1      -2.911   0.890   5.209  0.00  0.00    +0.151 C 
BRANCH  26  27
ATOM     27  C   UNL     1      -1.561   1.489   4.910  0.00  0.00    +0.219 C 
ATOM     28  O   UNL     1      -1.474   2.463   4.193  0.00  0.00    -0.275 OA
ATOM     29  N   UNL     1      -0.449   0.941   5.441  0.00  0.00    -0.308 N 
ATOM     30  H   UNL     1      -0.528   0.061   6.095  0.00  0.00    +0.149 HD
BRANCH  29  31
ATOM     31  C   UNL     1       0.864   1.520   5.146  0.00  0.00    +0.178 C 
BRANCH  31  32
ATOM     32  C   UNL     1       1.933   0.724   5.851  0.00  0.00    +0.122 A 
ATOM     33  C   UNL     1       2.581  -0.342   5.346  0.00  0.00    +0.046 A 
ATOM     34  C   UNL     1       3.491  -0.774   6.338  0.00  0.00    +0.041 A 
ATOM     35  C   UNL     1       3.345   0.053   7.389  0.00  0.00    +0.195 A 
ATOM     36  O   UNL     1       2.403   0.962   7.086  0.00  0.00    -0.466 OA
ENDBRANCH  31  32
ENDBRANCH  29  31
ENDBRANCH  26  27
ENDBRANCH   6  26
TORSDOF 9
