REMARK  Name = ZINC18775127
REMARK  5 active torsions:
REMARK  status: ('A' for Active; 'I' for Inactive)
REMARK    1  A    between atoms: C_1  and  C_2
REMARK    2  A    between atoms: C_18  and  S_19
REMARK    3  A    between atoms: S_19  and  C_20
REMARK    4  A    between atoms: C_20  and  C_21
REMARK    5  A    between atoms: C_26  and  C_32
REMARK                            x       y       z     vdW  Elec       q    Type
REMARK                         _______ _______ _______ _____ _____    ______ ____
ROOT
ATOM      1  C   UNL     1       6.048   5.627   6.901  0.00  0.00    +0.044 C 
ATOM      2  C   UNL     1       6.728   4.828   5.819  0.00  0.00    -0.046 A 
ATOM      3  C   UNL     1       7.093   3.506   6.036  0.00  0.00    +0.023 A 
ATOM      4  C   UNL     1       7.714   2.802   5.023  0.00  0.00    +0.113 A 
ATOM      5  N   UNL     1       7.961   3.369   3.858  0.00  0.00    -0.237 NA
ATOM      6  C   UNL     1       7.629   4.626   3.613  0.00  0.00    +0.142 A 
ATOM      7  C   UNL     1       7.006   5.396   4.588  0.00  0.00    +0.050 A 
ATOM      8  N   UNL     1       7.911   5.185   2.365  0.00  0.00    -0.239 N 
ATOM      9  C   UNL     1       9.085   5.827   2.167  0.00  0.00    +0.268 A 
ATOM     10  O   UNL     1       9.907   5.928   3.059  0.00  0.00    -0.267 OA
ATOM     11  C   UNL     1       9.332   6.398   0.836  0.00  0.00    +0.065 A 
ATOM     12  C   UNL     1      10.512   7.077   0.533  0.00  0.00    +0.015 A 
ATOM     13  C   UNL     1      10.691   7.588  -0.723  0.00  0.00    +0.001 A 
ATOM     14  C   UNL     1       9.713   7.438  -1.697  0.00  0.00    +0.002 A 
ATOM     15  C   UNL     1       8.548   6.777  -1.427  0.00  0.00    +0.028 A 
ATOM     16  C   UNL     1       8.334   6.243  -0.153  0.00  0.00    +0.079 A 
ATOM     17  N   UNL     1       7.197   5.577   0.156  0.00  0.00    -0.223 NA
ATOM     18  C   UNL     1       6.997   5.081   1.352  0.00  0.00    +0.178 A 
ENDROOT
BRANCH  18  19
ATOM     19  S   UNL     1       5.485   4.233   1.668  0.00  0.00    -0.081 S 
BRANCH  19  20
ATOM     20  C   UNL     1       4.691   4.392   0.049  0.00  0.00    +0.133 C 
BRANCH  20  21
ATOM     21  C   UNL     1       3.342   3.721   0.083  0.00  0.00    +0.059 A 
ATOM     22  C   UNL     1       2.192   4.484   0.138  0.00  0.00    +0.094 A 
ATOM     23  C   UNL     1       0.952   3.837   0.168  0.00  0.00    +0.259 A 
ATOM     24  O   UNL     1      -0.083   4.484   0.216  0.00  0.00    -0.267 OA
ATOM     25  N   UNL     1       0.917   2.488   0.143  0.00  0.00    -0.265 N 
ATOM     26  C   UNL     1      -0.283   1.844   0.172  0.00  0.00    +0.025 A 
ATOM     27  C   UNL     1      -0.343   0.494   0.147  0.00  0.00    +0.021 A 
ATOM     28  C   UNL     1       0.836  -0.263   0.091  0.00  0.00    +0.005 A 
ATOM     29  C   UNL     1       2.041   0.372   0.062  0.00  0.00    +0.047 A 
ATOM     30  C   UNL     1       2.083   1.778   0.088  0.00  0.00    +0.141 A 
ATOM     31  N   UNL     1       3.261   2.400   0.059  0.00  0.00    -0.233 NA
ATOM     32  C   UNL     1      -1.558   2.646   0.226  0.00  0.00    +0.064 C 
ENDBRANCH  20  21
ENDBRANCH  19  20
ENDBRANCH  18  19
TORSDOF 3
