REMARK  Name = ZINC10099876
REMARK  11 active torsions:
REMARK  status: ('A' for Active; 'I' for Inactive)
REMARK    1  A    between atoms: C_1  and  C_2
REMARK    2  A    between atoms: C_2  and  N_3
REMARK    3  A    between atoms: C_7  and  C_29
REMARK    4  A    between atoms: N_12  and  C_13
REMARK    5  A    between atoms: C_13  and  C_15
REMARK    6  A    between atoms: C_18  and  S_21
REMARK    7  A    between atoms: S_21  and  N_24
REMARK    8  A    between atoms: N_24  and  C_25
REMARK    9  A    between atoms: N_24  and  C_26
REMARK   10  A    between atoms: C_29  and  C_30
REMARK   11  A    between atoms: C_29  and  C_31
REMARK                            x       y       z     vdW  Elec       q    Type
REMARK                         _______ _______ _______ _____ _____    ______ ____
ROOT
ATOM      1  C   UNL     1      -2.284   3.506   5.413  0.00  0.00    +0.269 C 
ATOM      2  O   UNL     1      -1.577   3.761   6.372  0.00  0.00    -0.268 OA
ENDROOT
BRANCH   1  12
ATOM      3  N   UNL     1      -5.476   4.245   6.924  0.00  0.00    -0.321 N 
ATOM      4  C   UNL     1      -5.861   4.680   8.178  0.00  0.00    +0.058 A 
ATOM      5  C   UNL     1      -7.157   4.935   8.652  0.00  0.00    +0.027 A 
ATOM      6  C   UNL     1      -7.362   5.367   9.941  0.00  0.00    +0.006 A 
ATOM      7  C   UNL     1      -6.302   5.564  10.810  0.00  0.00    -0.044 A 
ATOM      8  C   UNL     1      -5.013   5.320  10.369  0.00  0.00    +0.021 A 
ATOM      9  C   UNL     1      -4.807   4.888   9.080  0.00  0.00    +0.039 A 
ATOM     10  S   UNL     1      -3.369   4.462   8.131  0.00  0.00    -0.052 S 
ATOM     11  C   UNL     1      -4.159   4.051   6.644  0.00  0.00    +0.167 A 
ATOM     12  N   UNL     1      -3.611   3.640   5.505  0.00  0.00    -0.152 NA
BRANCH   7  13
ATOM     13  C   UNL     1      -6.549   6.038  12.219  0.00  0.00    +0.013 C 
ATOM     14  C   UNL     1      -7.248   7.399  12.184  0.00  0.00    +0.012 C 
ATOM     15  C   UNL     1      -7.435   5.028  12.949  0.00  0.00    +0.012 C 
ENDBRANCH   7  13
BRANCH   3  17
ATOM     16  C   UNL     1      -5.944   4.417   4.529  0.00  0.00    +0.027 C 
ATOM     17  C   UNL     1      -6.488   3.993   5.895  0.00  0.00    +0.121 C 
ENDBRANCH   3  17
ENDBRANCH   1  12
BRANCH   1  18
ATOM     18  C   UNL     1      -1.673   3.048   4.144  0.00  0.00    +0.039 A 
ATOM     19  C   UNL     1      -0.289   2.907   4.044  0.00  0.00    +0.015 A 
ATOM     20  C   UNL     1       0.275   2.480   2.859  0.00  0.00    +0.029 A 
ATOM     21  C   UNL     1      -0.530   2.192   1.771  0.00  0.00    +0.106 A 
ATOM     22  C   UNL     1      -1.903   2.335   1.862  0.00  0.00    +0.029 A 
ATOM     23  C   UNL     1      -2.479   2.756   3.043  0.00  0.00    +0.015 A 
BRANCH  21  24
ATOM     24  S   UNL     1       0.197   1.648   0.261  0.00  0.00    +0.061 S 
ATOM     25  O   UNL     1       1.536   2.123   0.261  0.00  0.00    -0.153 OA
ATOM     26  O   UNL     1      -0.725   1.967  -0.772  0.00  0.00    -0.153 OA
BRANCH  24  27
ATOM     27  N   UNL     1       0.282  -0.005   0.326  0.00  0.00    -0.177 NA
ATOM     28  C   UNL     1      -0.833  -0.815  -0.172  0.00  0.00    +0.132 C 
BRANCH  27  29
ATOM     29  C   UNL     1       1.471  -0.656   0.881  0.00  0.00    +0.080 C 
ATOM     30  C   UNL     1       1.579  -2.175   0.731  0.00  0.00    +0.022 C 
ATOM     31  C   UNL     1       1.277  -1.561   2.099  0.00  0.00    +0.022 C 
ENDBRANCH  27  29
ENDBRANCH  24  27
ENDBRANCH  21  24
ENDBRANCH   1  18
TORSDOF 7
