REMARK  Name = ZINC60553708
REMARK  9 active torsions:
REMARK  status: ('A' for Active; 'I' for Inactive)
REMARK    1  A    between atoms: C_1  and  C_2
REMARK    2  A    between atoms: C_2  and  N_3
REMARK    3  A    between atoms: N_6  and  C_9
REMARK    4  A    between atoms: C_9  and  C_10
REMARK    5  A    between atoms: C_9  and  C_11
REMARK    6  A    between atoms: C_11  and  N_12
REMARK    7  A    between atoms: C_13  and  C_15
REMARK    8  A    between atoms: C_15  and  C_16
REMARK    9  A    between atoms: C_16  and  N_17
REMARK                            x       y       z     vdW  Elec       q    Type
REMARK                         _______ _______ _______ _____ _____    ______ ____
ROOT
ATOM      1  N   UNL     1      -3.957  -4.643  -2.189  0.00  0.00    -0.314 N 
ATOM      2  C   UNL     1      -3.764  -5.965  -2.368  0.00  0.00    +0.215 C 
ATOM      3  O   UNL     1      -4.288  -6.761  -1.618  0.00  0.00    -0.276 OA
ATOM      4  H   UNL     1      -3.538  -4.006  -2.789  0.00  0.00    +0.149 HD
ENDROOT
BRANCH   1   5
ATOM      5  C   UNL     1      -4.800  -4.168  -1.089  0.00  0.00    +0.122 C 
BRANCH   5   6
ATOM      6  C   UNL     1      -4.853  -2.639  -1.111  0.00  0.00    +0.070 C 
ATOM      7  C   UNL     1      -5.629  -2.138   0.108  0.00  0.00    +0.026 C 
BRANCH   6  11
ATOM      8  N   UNL     1      -1.376  -0.512   0.012  0.00  0.00    +0.381 N 
ATOM      9  C   UNL     1      -2.050  -0.124  -1.234  0.00  0.00    -0.063 C 
ATOM     10  C   UNL     1      -3.492  -0.638  -1.215  0.00  0.00    +0.066 C 
ATOM     11  N   UNL     1      -3.486  -2.101  -1.076  0.00  0.00    -0.302 NA
ATOM     12  C   UNL     1      -2.792  -2.506   0.155  0.00  0.00    +0.066 C 
ATOM     13  C   UNL     1      -1.357  -1.977   0.125  0.00  0.00    -0.063 C 
ATOM     14  H   UNL     1      -1.873  -0.121   0.799  0.00  0.00    -0.082 HD
BRANCH   8  16
ATOM     15  C   UNL     1      -0.019   1.526   0.010  0.00  0.00    -0.017 C 
ATOM     16  C   UNL     1       0.002  -0.004   0.002  0.00  0.00    -0.082 C 
ENDBRANCH   8  16
ENDBRANCH   6  11
ENDBRANCH   5   6
ENDBRANCH   1   5
BRANCH   2  17
ATOM     17  C   UNL     1      -2.897  -6.454  -3.499  0.00  0.00    +0.115 C 
BRANCH  17  18
ATOM     18  C   UNL     1      -2.844  -7.982  -3.478  0.00  0.00    +0.127 C 
BRANCH  18  19
ATOM     19  N   UNL     1      -2.001  -8.458  -4.577  0.00  0.00    -0.224 N 
ATOM     20  C   UNL     1      -2.458  -8.739  -5.817  0.00  0.00    +0.247 C 
ATOM     21  O   UNL     1      -3.598  -8.651  -6.218  0.00  0.00    -0.273 OA
ATOM     22  C   UNL     1      -1.246  -9.186  -6.595  0.00  0.00    +0.113 C 
ATOM     23  C   UNL     1      -0.999  -8.273  -7.803  0.00  0.00    +0.035 C 
ATOM     24  C   UNL     1      -0.453  -9.232  -8.892  0.00  0.00    +0.003 C 
ATOM     25  C   UNL     1      -1.278 -10.523  -8.660  0.00  0.00    +0.003 C 
ATOM     26  C   UNL     1      -1.420 -10.611  -7.124  0.00  0.00    +0.035 C 
ATOM     27  N   UNL     1      -0.143  -9.103  -5.635  0.00  0.00    -0.285 N 
ATOM     28  C   UNL     1      -0.681  -8.662  -4.480  0.00  0.00    +0.309 C 
ATOM     29  O   UNL     1      -0.041  -8.473  -3.465  0.00  0.00    -0.252 OA
ATOM     30  H   UNL     1       0.788  -9.319  -5.798  0.00  0.00    +0.151 HD
ENDBRANCH  18  19
ENDBRANCH  17  18
ENDBRANCH   2  17
TORSDOF 7
