REMARK  Name = ZINC12452869
REMARK  3 active torsions:
REMARK  status: ('A' for Active; 'I' for Inactive)
REMARK    1  A    between atoms: C_8  and  N_10
REMARK    2  A    between atoms: C_21  and  N_55
REMARK    3  A    between atoms: C_25  and  N_55
REMARK                            x       y       z     vdW  Elec       q    Type
REMARK                         _______ _______ _______ _____ _____    ______ ____
ROOT
ATOM      1  N   UNL     1      -4.805   2.396   0.313  0.00  0.00    -0.295 N 
ATOM      2  C   UNL     1      -4.819   2.318   1.669  0.00  0.00    +0.203 A 
ATOM      3  N   UNL     1      -5.943   2.301   2.334  0.00  0.00    -0.230 NA
ATOM      4  C   UNL     1      -7.112   2.358   1.702  0.00  0.00    +0.116 A 
ATOM      5  C   UNL     1      -7.199   2.440   0.303  0.00  0.00    +0.076 A 
ATOM      6  C   UNL     1      -5.947   2.462  -0.396  0.00  0.00    +0.263 A 
ATOM      7  O   UNL     1      -5.918   2.536  -1.612  0.00  0.00    -0.267 OA
ATOM      8  C   UNL     1      -8.550   2.497  -0.252  0.00  0.00    -0.023 A 
ATOM      9  C   UNL     1      -9.575   2.466   0.626  0.00  0.00    -0.006 A 
ATOM     10  S   UNL     1      -8.809   2.360   2.221  0.00  0.00    -0.073 S 
ATOM     11  C   UNL     1     -11.039   2.511   0.314  0.00  0.00    +0.027 C 
ATOM     12  C   UNL     1     -11.225   2.226  -1.183  0.00  0.00    -0.066 C 
ATOM     13  C   UNL     1     -10.239   3.092  -1.974  0.00  0.00    -0.011 C 
ATOM     14  C   UNL     1      -8.813   2.589  -1.753  0.00  0.00    +0.035 C 
ENDROOT
BRANCH   1  22
ATOM     15  C   UNL     1       1.157   3.163   0.008  0.00  0.00    +0.000 A 
ATOM     16  C   UNL     1       1.175   1.780   0.000  0.00  0.00    +0.000 A 
ATOM     17  C   UNL     1      -0.013   1.076   0.008  0.00  0.00    +0.004 A 
ATOM     18  C   UNL     1      -1.222   1.750   0.017  0.00  0.00    -0.042 A 
ATOM     19  C   UNL     1      -1.240   3.132   0.030  0.00  0.00    -0.042 A 
ATOM     20  C   UNL     1      -0.048   3.836   0.023  0.00  0.00    +0.004 A 
ATOM     21  C   UNL     1      -2.671   3.625   0.046  0.00  0.00    +0.061 C 
ATOM     22  C   UNL     1      -3.521   2.413  -0.392  0.00  0.00    +0.100 C 
ATOM     23  C   UNL     1      -2.640   1.220   0.034  0.00  0.00    +0.061 C 
ENDBRANCH   1  22
BRANCH  12  24
ATOM     24  N   UNL     1     -12.603   2.566  -1.585  0.00  0.00    +0.383 N 
ATOM     25  H   UNL     1     -12.617   2.797  -2.586  0.00  0.00    -0.085 HD
ATOM     26  H   UNL     1     -12.924   3.376  -1.042  0.00  0.00    -0.085 HD
BRANCH  24  27
ATOM     27  C   UNL     1     -13.504   1.425  -1.337  0.00  0.00    -0.071 C 
ATOM     28  C   UNL     1     -13.508   0.479  -2.555  0.00  0.00    -0.016 C 
ATOM     29  C   UNL     1     -14.979   0.002  -2.661  0.00  0.00    -0.002 C 
ATOM     30  C   UNL     1     -15.779   1.276  -2.290  0.00  0.00    -0.002 C 
ATOM     31  C   UNL     1     -14.948   1.931  -1.168  0.00  0.00    -0.016 C 
ENDBRANCH  24  27
ENDBRANCH  12  24
TORSDOF 3
