REMARK  Name = ZINC39701945
REMARK  8 active torsions:
REMARK  status: ('A' for Active; 'I' for Inactive)
REMARK    1  A    between atoms: C_1  and  O_2
REMARK    2  A    between atoms: O_2  and  C_3
REMARK    3  A    between atoms: C_6  and  C_9
REMARK    4  A    between atoms: N_11  and  C_12
REMARK    5  A    between atoms: C_16  and  C_19
REMARK    6  A    between atoms: C_19  and  C_20
REMARK    7  A    between atoms: N_22  and  N_23
REMARK    8  A    between atoms: C_24  and  C_25
REMARK                            x       y       z     vdW  Elec       q    Type
REMARK                         _______ _______ _______ _____ _____    ______ ____
ROOT
ATOM      1  C   UNL     1       3.305  -4.545   5.459  0.00  0.00    +0.275 C 
ATOM      2  N   UNL     1       2.429  -4.611   6.651  0.00  0.00    -0.157 NA
ATOM      3  N   UNL     1       1.885  -5.652   6.964  0.00  0.00    -0.175 NA
ATOM      4  C   UNL     1       2.083  -6.880   6.160  0.00  0.00    +0.197 C 
ATOM      5  S   UNL     1       3.531  -6.351   5.137  0.00  0.00    -0.085 S 
ENDROOT
BRANCH   1   8
ATOM      6  C   UNL     1       2.574  -2.537   4.288  0.00  0.00    +0.246 C 
ATOM      7  O   UNL     1       3.080  -1.873   5.172  0.00  0.00    -0.270 OA
ATOM      8  N   UNL     1       2.633  -3.883   4.339  0.00  0.00    -0.280 N 
ATOM      9  H   UNL     1       2.229  -4.413   3.634  0.00  0.00    +0.152 HD
BRANCH   6  13
ATOM     10  C   UNL     1       0.625  -0.618   1.040  0.00  0.00    +0.120 A 
ATOM     11  C   UNL     1       1.202   0.144   2.050  0.00  0.00    +0.046 A 
ATOM     12  C   UNL     1       1.834  -0.475   3.105  0.00  0.00    +0.016 A 
ATOM     13  C   UNL     1       1.896  -1.870   3.159  0.00  0.00    +0.037 A 
ATOM     14  C   UNL     1       1.315  -2.631   2.142  0.00  0.00    +0.016 A 
ATOM     15  C   UNL     1       0.680  -2.005   1.093  0.00  0.00    +0.046 A 
BRANCH  10  17
ATOM     16  C   UNL     1      -0.017   1.425   0.010  0.00  0.00    +0.277 C 
ATOM     17  O   UNL     1       0.002  -0.004   0.002  0.00  0.00    -0.495 OA
ENDBRANCH  10  17
ENDBRANCH   6  13
ENDBRANCH   1   8
BRANCH   4  18
ATOM     18  C   UNL     1       2.433  -8.076   7.047  0.00  0.00    +0.137 C 
BRANCH  18  19
ATOM     19  C   UNL     1       2.660  -9.291   6.185  0.00  0.00    +0.235 C 
ATOM     20  O   UNL     1       2.553  -9.209   4.980  0.00  0.00    -0.274 OA
ATOM     21  N   UNL     1       2.983 -10.470   6.754  0.00  0.00    -0.207 N 
ATOM     22  H   UNL     1       3.070 -10.536   7.718  0.00  0.00    +0.177 HD
BRANCH  21  23
ATOM     23  N   UNL     1       3.194 -11.600   5.952  0.00  0.00    -0.188 NA
ATOM     24  C   UNL     1       3.508 -12.745   6.505  0.00  0.00    +0.136 C 
BRANCH  24  25
ATOM     25  C   UNL     1       3.719 -13.875   5.703  0.00  0.00    +0.000 C 
ATOM     26  C   UNL     1       4.051 -15.159   6.128  0.00  0.00    +0.004 A 
ATOM     27  C   UNL     1       4.270 -15.714   7.409  0.00  0.00    +0.010 A 
ATOM     28  C   UNL     1       4.588 -17.027   7.528  0.00  0.00    +0.001 A 
ATOM     29  C   UNL     1       4.707 -17.857   6.409  0.00  0.00    +0.002 A 
ATOM     30  C   UNL     1       4.511 -17.394   5.151  0.00  0.00    +0.026 A 
ATOM     31  C   UNL     1       4.175 -16.029   4.945  0.00  0.00    +0.043 A 
ATOM     32  N   UNL     1       3.938 -15.347   3.845  0.00  0.00    -0.380 N 
ATOM     33  C   UNL     1       3.628 -13.957   4.195  0.00  0.00    +0.150 C 
ATOM     34  H   UNL     1       3.961 -15.707   2.945  0.00  0.00    +0.160 HD
ENDBRANCH  24  25
ENDBRANCH  21  23
ENDBRANCH  18  19
ENDBRANCH   4  18
TORSDOF 7
