REMARK  Name = ZINC33279398
REMARK  8 active torsions:
REMARK  status: ('A' for Active; 'I' for Inactive)
REMARK    1  A    between atoms: C_1  and  C_2
REMARK    2  A    between atoms: C_2  and  C_3
REMARK    3  A    between atoms: C_5  and  C_8
REMARK    4  A    between atoms: C_10  and  S_13
REMARK    5  A    between atoms: S_13  and  N_16
REMARK    6  A    between atoms: C_20  and  C_23
REMARK    7  A    between atoms: N_25  and  C_26
REMARK    8  A    between atoms: C_29  and  C_33
REMARK                            x       y       z     vdW  Elec       q    Type
REMARK                         _______ _______ _______ _____ _____    ______ ____
ROOT
ATOM      1  N   UNL     1       1.238   5.791   1.633  0.00  0.00    -0.175 NA
ATOM      2  C   UNL     1       2.502   5.551   2.343  0.00  0.00    +0.109 C 
ATOM      3  C   UNL     1       2.989   6.874   2.943  0.00  0.00    +0.018 C 
ATOM      4  C   UNL     1       1.883   7.473   3.814  0.00  0.00    +0.015 C 
ATOM      5  C   UNL     1       0.650   7.758   2.952  0.00  0.00    +0.091 C 
ATOM      6  C   UNL     1       0.139   6.450   2.351  0.00  0.00    +0.122 C 
ENDROOT
BRANCH   5   7
ATOM      7  C   UNL     1      -0.427   8.377   3.805  0.00  0.00    +0.222 C 
ATOM      8  O   UNL     1      -1.502   7.825   3.920  0.00  0.00    -0.275 OA
ATOM      9  N   UNL     1      -0.198   9.543   4.439  0.00  0.00    -0.284 N 
ATOM     10  H   UNL     1       0.799  10.006   4.396  0.00  0.00    +0.155 HD
BRANCH   9  11
ATOM     11  C   UNL     1      -1.227  10.166   5.154  0.00  0.00    +0.052 A 
ATOM     12  C   UNL     1      -2.170   9.399   5.827  0.00  0.00    +0.025 A 
ATOM     13  C   UNL     1      -3.182  10.016   6.536  0.00  0.00    +0.005 A 
ATOM     14  C   UNL     1      -3.264  11.396   6.569  0.00  0.00    -0.049 A 
ATOM     15  C   UNL     1      -2.331  12.164   5.896  0.00  0.00    +0.025 A 
ATOM     16  C   UNL     1      -1.312  11.552   5.189  0.00  0.00    +0.062 A 
ATOM     17 CL   UNL     1      -0.141  12.516   4.343  0.00  0.00    -0.082 Cl
ATOM     18  C   UNL     1      -4.373  12.066   7.338  0.00  0.00    +0.044 C 
ENDBRANCH   9  11
ENDBRANCH   5   7
BRANCH   1  19
ATOM     19  S   UNL     1       1.059   5.333   0.052  0.00  0.00    +0.067 S 
ATOM     20  O   UNL     1       2.365   5.273  -0.504  0.00  0.00    -0.152 OA
ATOM     21  O   UNL     1       0.035   6.153  -0.495  0.00  0.00    -0.152 OA
BRANCH  19  24
ATOM     22  C   UNL     1      -1.079   1.889   0.054  0.00  0.00    +0.031 A 
ATOM     23  C   UNL     1      -0.848   3.263   0.059  0.00  0.00    +0.048 A 
ATOM     24  C   UNL     1       0.436   3.685   0.054  0.00  0.00    +0.143 A 
ATOM     25  S   UNL     1       1.341   2.148   0.051  0.00  0.00    -0.076 S 
ATOM     26  C   UNL     1      -0.002   1.051   0.056  0.00  0.00    +0.058 A 
BRANCH  22  29
ATOM     27  C   UNL     1      -4.123   0.035   0.049  0.00  0.00    +0.227 A 
ATOM     28  N   UNL     1      -2.813   0.045   0.047  0.00  0.00    -0.191 NA
ATOM     29  C   UNL     1      -2.460   1.351   0.052  0.00  0.00    +0.203 A 
ATOM     30  N   UNL     1      -3.566   2.050   0.050  0.00  0.00    -0.056 NA
ATOM     31  O   UNL     1      -4.527   1.309   0.048  0.00  0.00    -0.338 OA
BRANCH  27  33
ATOM     32  C   UNL     1      -5.311  -1.597   1.489  0.00  0.00    +0.014 C 
ATOM     33  C   UNL     1      -5.008  -1.185   0.048  0.00  0.00    +0.095 C 
ENDBRANCH  27  33
ENDBRANCH  22  29
ENDBRANCH  19  24
ENDBRANCH   1  19
TORSDOF 6
