REMARK  Name = ZINC13959438
REMARK  7 active torsions:
REMARK  status: ('A' for Active; 'I' for Inactive)
REMARK    1  A    between atoms: C_1  and  C_2
REMARK    2  A    between atoms: C_6  and  C_41
REMARK    3  A    between atoms: C_7  and  N_8
REMARK    4  A    between atoms: N_17  and  C_20
REMARK    5  A    between atoms: C_20  and  C_21
REMARK    6  A    between atoms: C_24  and  C_35
REMARK    7  A    between atoms: C_27  and  C_29
REMARK                            x       y       z     vdW  Elec       q    Type
REMARK                         _______ _______ _______ _____ _____    ______ ____
ROOT
ATOM      1  C   UNL     1      -2.255   1.988   6.034  0.00  0.00    +0.226 C 
ENDROOT
BRANCH   1   9
ATOM      2  N   UNL     1       0.025  -0.013   2.419  0.00  0.00    -0.206 N 
ATOM      3  C   UNL     1       1.162   0.382   3.065  0.00  0.00    +0.255 C 
ATOM      4  O   UNL     1       2.291  -0.001   2.848  0.00  0.00    -0.272 OA
ATOM      5  C   UNL     1       0.735   1.382   4.093  0.00  0.00    +0.246 C 
ATOM      6  C   UNL     1      -0.681   0.752   4.398  0.00  0.00    +0.216 C 
ATOM      7  C   UNL     1      -1.115   0.347   3.092  0.00  0.00    +0.251 C 
ATOM      8  O   UNL     1      -2.252   0.326   2.671  0.00  0.00    -0.273 OA
ATOM      9  N   UNL     1      -0.979   1.423   5.588  0.00  0.00    -0.214 N 
ATOM     10  N   UNL     1       0.288   1.412   6.256  0.00  0.00    -0.082 NA
ATOM     11  N   UNL     1       1.266   1.364   5.444  0.00  0.00    -0.156 NA
BRANCH   2  18
ATOM     12  C   UNL     1      -0.018   1.503   0.010  0.00  0.00    +0.046 C 
ATOM     13  C   UNL     1       0.002  -0.004   0.002  0.00  0.00    -0.028 A 
ATOM     14  C   UNL     1       0.006  -0.689  -1.198  0.00  0.00    +0.005 A 
ATOM     15  C   UNL     1       0.025  -2.071  -1.206  0.00  0.00    +0.001 A 
ATOM     16  C   UNL     1       0.040  -2.773  -0.014  0.00  0.00    +0.005 A 
ATOM     17  C   UNL     1       0.037  -2.093   1.188  0.00  0.00    -0.028 A 
ATOM     18  C   UNL     1       0.023  -0.705   1.200  0.00  0.00    +0.050 A 
ATOM     19  C   UNL     1       0.054  -2.858   2.487  0.00  0.00    +0.046 C 
ENDBRANCH   2  18
ENDBRANCH   1   9
BRANCH   1  20
ATOM     20  C   UNL     1      -3.026   0.945   6.801  0.00  0.00    +0.254 C 
ATOM     21  O   UNL     1      -2.556  -0.162   6.959  0.00  0.00    -0.272 OA
ATOM     22  N   UNL     1      -4.237   1.243   7.311  0.00  0.00    -0.184 N 
ATOM     23  C   UNL     1      -5.090   0.324   8.082  0.00  0.00    +0.137 C 
ATOM     24  C   UNL     1      -6.334   1.174   8.408  0.00  0.00    +0.087 C 
ATOM     25  C   UNL     1      -6.039   2.512   7.769  0.00  0.00    +0.069 C 
ATOM     26  N   UNL     1      -4.884   2.472   7.200  0.00  0.00    -0.181 NA
BRANCH  25  27
ATOM     27  C   UNL     1      -6.933   3.685   7.798  0.00  0.00    -0.002 A 
ATOM     28  C   UNL     1      -8.162   3.614   8.458  0.00  0.00    +0.010 A 
ATOM     29  C   UNL     1      -8.993   4.715   8.481  0.00  0.00    +0.001 A 
ATOM     30  C   UNL     1      -8.611   5.887   7.852  0.00  0.00    +0.000 A 
ATOM     31  C   UNL     1      -7.396   5.964   7.196  0.00  0.00    +0.001 A 
ATOM     32  C   UNL     1      -6.552   4.873   7.170  0.00  0.00    +0.010 A 
ENDBRANCH  25  27
BRANCH  23  33
ATOM     33  C   UNL     1      -5.466  -0.875   7.250  0.00  0.00    -0.025 A 
ATOM     34  C   UNL     1      -5.748  -0.722   5.905  0.00  0.00    +0.005 A 
ATOM     35  C   UNL     1      -6.093  -1.821   5.142  0.00  0.00    +0.000 A 
ATOM     36  C   UNL     1      -6.156  -3.074   5.723  0.00  0.00    +0.000 A 
ATOM     37  C   UNL     1      -5.873  -3.227   7.067  0.00  0.00    +0.000 A 
ATOM     38  C   UNL     1      -5.524  -2.128   7.830  0.00  0.00    +0.005 A 
ENDBRANCH  23  33
ENDBRANCH   1  20
TORSDOF 5
