REMARK  Name = ZINC23640652
REMARK  3 active torsions:
REMARK  status: ('A' for Active; 'I' for Inactive)
REMARK    1  A    between atoms: C_1  and  C_2
REMARK    2  A    between atoms: N_11  and  C_15
REMARK    3  A    between atoms: C_15  and  N_16
REMARK                            x       y       z     vdW  Elec       q    Type
REMARK                         _______ _______ _______ _____ _____    ______ ____
ROOT
ATOM      1  C   UNL     1      -1.182   2.072   2.512  0.00  0.00    +0.010 C 
ATOM      2  C   UNL     1      -2.059   1.866   1.275  0.00  0.00    +0.018 C 
ATOM      3  C   UNL     1      -2.597   0.433   1.266  0.00  0.00    +0.006 C 
ATOM      4  C   UNL     1      -3.457   0.221   0.018  0.00  0.00    +0.000 C 
ATOM      5  C   UNL     1      -2.608   0.446  -1.234  0.00  0.00    +0.003 C 
ATOM      6  C   UNL     1      -2.069   1.879  -1.234  0.00  0.00    +0.035 C 
ATOM      7  C   UNL     1      -1.230   2.107   0.018  0.00  0.00    +0.115 C 
ATOM      8  C   UNL     1      -0.014   1.208   0.009  0.00  0.00    +0.248 C 
ATOM      9  O   UNL     1       0.002  -0.004   0.002  0.00  0.00    -0.273 OA
ATOM     10  N   UNL     1       1.048   2.039   0.003  0.00  0.00    -0.211 N 
ATOM     11  C   UNL     1       0.670   3.324   0.013  0.00  0.00    +0.310 C 
ATOM     12  O   UNL     1       1.447   4.257   0.010  0.00  0.00    -0.252 OA
ATOM     13  N   UNL     1      -0.670   3.464   0.026  0.00  0.00    -0.285 N 
ATOM     14  H   UNL     1      -1.341   4.336   0.040  0.00  0.00    +0.151 HD
ENDROOT
BRANCH  10  15
ATOM     15  C   UNL     1       2.443   1.592  -0.012  0.00  0.00    +0.205 C 
BRANCH  15  16
ATOM     16  N   UNL     1       2.897   1.450  -1.402  0.00  0.00    -0.282 NA
ATOM     17  C   UNL     1       4.359   1.591  -1.496  0.00  0.00    +0.091 C 
ATOM     18  C   UNL     1       4.809   1.078  -2.865  0.00  0.00    +0.051 C 
ATOM     19  C   UNL     1       3.978   1.713  -3.951  0.00  0.00    -0.042 A 
ATOM     20  C   UNL     1       4.445   1.662  -5.256  0.00  0.00    +0.004 A 
ATOM     21  C   UNL     1       3.714   2.227  -6.281  0.00  0.00    +0.000 A 
ATOM     22  C   UNL     1       2.509   2.847  -6.005  0.00  0.00    +0.000 A 
ATOM     23  C   UNL     1       2.045   2.900  -4.707  0.00  0.00    +0.005 A 
ATOM     24  C   UNL     1       2.779   2.334  -3.675  0.00  0.00    -0.030 A 
ATOM     25  C   UNL     1       2.235   2.425  -2.273  0.00  0.00    +0.121 C 
ENDBRANCH  15  16
ENDBRANCH  10  15
TORSDOF 2
