REMARK  Name = ZINC18205705
REMARK  5 active torsions:
REMARK  status: ('A' for Active; 'I' for Inactive)
REMARK    1  A    between atoms: C_6  and  N_7
REMARK    2  A    between atoms: C_11  and  S_15
REMARK    3  A    between atoms: S_15  and  C_16
REMARK    4  A    between atoms: N_18  and  N_19
REMARK    5  A    between atoms: C_20  and  C_21
REMARK                            x       y       z     vdW  Elec       q    Type
REMARK                         _______ _______ _______ _____ _____    ______ ____
ROOT
ATOM      1  C   UNL     1      -2.273  -4.887  -1.499  0.00  0.00    +0.146 C 
ATOM      2  N   UNL     1      -1.520  -5.151  -0.466  0.00  0.00    -0.380 N 
ATOM      3  N   UNL     1      -2.385  -5.802  -2.521  0.00  0.00    -0.217 N 
ATOM      4  H   UNL     1      -1.040  -5.992  -0.419  0.00  0.00    +0.158 HD
ATOM      5  H   UNL     1      -2.944  -5.606  -3.289  0.00  0.00    +0.176 HD
ATOM      6  H   UNL     1      -1.441  -4.506   0.254  0.00  0.00    +0.158 HD
ENDROOT
BRANCH   3   7
ATOM      7  N   UNL     1      -1.691  -7.017  -2.452  0.00  0.00    -0.188 NA
ATOM      8  C   UNL     1      -1.796  -7.880  -3.416  0.00  0.00    +0.138 C 
BRANCH   8   9
ATOM      9  C   UNL     1      -1.066  -9.159  -3.344  0.00  0.00    -0.002 A 
ATOM     10  C   UNL     1      -0.265  -9.446  -2.236  0.00  0.00    +0.013 A 
ATOM     11  C   UNL     1       0.417 -10.643  -2.171  0.00  0.00    +0.050 A 
ATOM     12  C   UNL     1       0.311 -11.565  -3.202  0.00  0.00    +0.166 A 
ATOM     13  C   UNL     1      -0.487 -11.285  -4.310  0.00  0.00    +0.167 A 
ATOM     14  C   UNL     1      -1.179 -10.089  -4.380  0.00  0.00    +0.059 A 
ATOM     15  O   UNL     1      -0.423 -12.341  -5.172  0.00  0.00    -0.453 OA
ATOM     16  C   UNL     1       0.740 -13.091  -4.774  0.00  0.00    +0.466 C 
ATOM     17  O   UNL     1       0.874 -12.797  -3.372  0.00  0.00    -0.453 OA
ENDBRANCH   8   9
ENDBRANCH   3   7
BRANCH   1  18
ATOM     18  S   UNL     1      -3.145  -3.358  -1.585  0.00  0.00    -0.078 S 
BRANCH  18  23
ATOM     19  N   UNL     1      -1.202  -0.723   0.010  0.00  0.00    -0.209 N 
ATOM     20  C   UNL     1      -2.398  -0.131   0.118  0.00  0.00    +0.228 C 
ATOM     21  O   UNL     1      -2.585   1.062   0.218  0.00  0.00    -0.275 OA
ATOM     22  C   UNL     1      -3.480  -1.189   0.094  0.00  0.00    +0.120 C 
ATOM     23  C   UNL     1      -2.694  -2.508  -0.048  0.00  0.00    +0.149 C 
ATOM     24  C   UNL     1      -1.250  -2.057  -0.095  0.00  0.00    +0.240 C 
ATOM     25  O   UNL     1      -0.289  -2.787  -0.207  0.00  0.00    -0.274 OA
BRANCH  19  31
ATOM     26  C   UNL     1       0.775   0.044  -1.150  0.00  0.00    +0.025 A 
ATOM     27  C   UNL     1       1.961   0.753  -1.155  0.00  0.00    +0.017 A 
ATOM     28  C   UNL     1       2.378   1.415  -0.014  0.00  0.00    +0.018 A 
ATOM     29  C   UNL     1       1.609   1.368   1.135  0.00  0.00    +0.017 A 
ATOM     30  C   UNL     1       0.423   0.660   1.146  0.00  0.00    +0.025 A 
ATOM     31  C   UNL     1       0.002  -0.004   0.002  0.00  0.00    +0.044 A 
ATOM     32 BR   UNL     1       4.001   2.384  -0.025  0.00  0.00    -0.050 Br
ENDBRANCH  19  31
ENDBRANCH  18  23
ENDBRANCH   1  18
TORSDOF 5
