REMARK  Name = ZINC09617338
REMARK  11 active torsions:
REMARK  status: ('A' for Active; 'I' for Inactive)
REMARK    1  A    between atoms: C_1  and  C_2
REMARK    2  A    between atoms: C_2  and  C_3
REMARK    3  A    between atoms: C_3  and  C_5
REMARK    4  A    between atoms: C_3  and  N_6
REMARK    5  A    between atoms: C_7  and  C_9
REMARK    6  A    between atoms: C_9  and  N_10
REMARK    7  A    between atoms: N_19  and  C_22
REMARK    8  A    between atoms: C_22  and  C_23
REMARK    9  A    between atoms: C_26  and  C_29
REMARK   10  A    between atoms: N_31  and  C_32
REMARK   11  A    between atoms: C_32  and  C_33
REMARK                            x       y       z     vdW  Elec       q    Type
REMARK                         _______ _______ _______ _____ _____    ______ ____
ROOT
ATOM      1  N   UNL     1       1.299  -1.160   3.250  0.00  0.00    -0.284 N 
ATOM      2  C   UNL     1       0.161  -1.439   3.993  0.00  0.00    +0.059 A 
ATOM      3  C   UNL     1       0.240  -1.908   5.295  0.00  0.00    +0.027 A 
ATOM      4  C   UNL     1      -0.917  -2.173   5.999  0.00  0.00    +0.002 A 
ATOM      5  C   UNL     1      -2.160  -1.976   5.417  0.00  0.00    +0.001 A 
ATOM      6  C   UNL     1      -2.259  -1.510   4.122  0.00  0.00    +0.015 A 
ATOM      7  C   UNL     1      -1.098  -1.239   3.401  0.00  0.00    +0.063 A 
ATOM      8  C   UNL     1      -1.146  -0.740   2.015  0.00  0.00    +0.265 A 
ATOM      9  O   UNL     1      -2.210  -0.549   1.457  0.00  0.00    -0.267 OA
ATOM     10  N   UNL     1       0.022  -0.500   1.381  0.00  0.00    -0.256 N 
ATOM     11  C   UNL     1       1.200  -0.712   1.987  0.00  0.00    +0.333 A 
ATOM     12  O   UNL     1       2.222  -0.484   1.369  0.00  0.00    -0.246 OA
ENDROOT
BRANCH   1  13
ATOM     13  C   UNL     1       2.622  -1.362   3.847  0.00  0.00    +0.222 C 
BRANCH  13  15
ATOM     14  N   UNL     1       4.288  -3.182   4.026  0.00  0.00    -0.311 N 
ATOM     15  C   UNL     1       3.089  -2.768   3.570  0.00  0.00    +0.233 C 
ATOM     16  O   UNL     1       2.386  -3.527   2.937  0.00  0.00    -0.274 OA
ATOM     17  H   UNL     1       4.850  -2.575   4.533  0.00  0.00    +0.149 HD
BRANCH  14  18
ATOM     18  C   UNL     1       4.742  -4.549   3.757  0.00  0.00    +0.070 C 
ATOM     19  C   UNL     1       4.175  -5.492   4.820  0.00  0.00    +0.028 C 
BRANCH  18  21
ATOM     20  C   UNL     1       6.836  -3.749   2.654  0.00  0.00    +0.005 C 
ATOM     21  C   UNL     1       6.270  -4.595   3.796  0.00  0.00    +0.018 C 
ENDBRANCH  18  21
ENDBRANCH  14  18
ENDBRANCH  13  15
ENDBRANCH   1  13
BRANCH  10  22
ATOM     22  C   UNL     1       0.002  -0.004   0.002  0.00  0.00    +0.165 C 
BRANCH  22  23
ATOM     23  C   UNL     1      -0.018   1.503   0.010  0.00  0.00    -0.027 A 
ATOM     24  C   UNL     1      -1.228   2.175   0.020  0.00  0.00    +0.006 A 
ATOM     25  C   UNL     1      -1.253   3.554   0.032  0.00  0.00    +0.013 A 
ATOM     26  C   UNL     1      -0.056   4.272   0.025  0.00  0.00    +0.037 A 
ATOM     27  C   UNL     1       1.160   3.587   0.010  0.00  0.00    +0.013 A 
ATOM     28  C   UNL     1       1.172   2.208   0.003  0.00  0.00    +0.006 A 
BRANCH  26  29
ATOM     29  C   UNL     1      -0.076   5.750   0.032  0.00  0.00    +0.244 C 
ATOM     30  O   UNL     1       0.968   6.372   0.025  0.00  0.00    -0.270 OA
ATOM     31  N   UNL     1      -1.252   6.408   0.046  0.00  0.00    -0.304 N 
ATOM     32  H   UNL     1      -2.086   5.912   0.052  0.00  0.00    +0.149 HD
BRANCH  31  33
ATOM     33  C   UNL     1      -1.272   7.873   0.053  0.00  0.00    +0.179 C 
BRANCH  33  34
ATOM     34  C   UNL     1      -2.700   8.356   0.069  0.00  0.00    +0.122 A 
ATOM     35  C   UNL     1      -3.434   8.603   1.168  0.00  0.00    +0.046 A 
ATOM     36  C   UNL     1      -4.705   9.033   0.723  0.00  0.00    +0.041 A 
ATOM     37  C   UNL     1      -4.671   9.024  -0.621  0.00  0.00    +0.195 A 
ATOM     38  O   UNL     1      -3.452   8.618  -1.012  0.00  0.00    -0.466 OA
ENDBRANCH  33  34
ENDBRANCH  31  33
ENDBRANCH  26  29
ENDBRANCH  22  23
ENDBRANCH  10  22
TORSDOF 9
