REMARK  Name = ZINC40896892
REMARK  7 active torsions:
REMARK  status: ('A' for Active; 'I' for Inactive)
REMARK    1  A    between atoms: N_10  and  C_11
REMARK    2  A    between atoms: C_11  and  C_12
REMARK    3  A    between atoms: C_12  and  N_13
REMARK    4  A    between atoms: C_14  and  C_16
REMARK    5  A    between atoms: N_21  and  C_23
REMARK    6  A    between atoms: C_26  and  C_30
REMARK    7  A    between atoms: C_32  and  C_35
REMARK                            x       y       z     vdW  Elec       q    Type
REMARK                         _______ _______ _______ _____ _____    ______ ____
ROOT
ATOM      1  C   UNL     1       8.682   2.687   1.303  0.00  0.00    +0.092 C 
ATOM      2  C   UNL     1       8.363   3.852   0.362  0.00  0.00    +0.016 C 
ATOM      3  C   UNL     1       9.655   4.595   0.012  0.00  0.00    +0.020 C 
ATOM      4  C   UNL     1      10.275   5.163   1.293  0.00  0.00    +0.105 C 
ATOM      5  N   UNL     1      10.451   4.070   2.258  0.00  0.00    -0.327 N 
ATOM      6  C   UNL     1       9.292   3.233   2.598  0.00  0.00    +0.118 C 
ENDROOT
BRANCH   5   7
ATOM      7  C   UNL     1      11.696   3.830   2.842  0.00  0.00    +0.065 A 
ATOM      8  C   UNL     1      12.035   4.457   4.036  0.00  0.00    +0.027 A 
ATOM      9  C   UNL     1      13.264   4.222   4.614  0.00  0.00    +0.013 A 
ATOM     10  C   UNL     1      14.168   3.355   4.002  0.00  0.00    +0.025 A 
ATOM     11  C   UNL     1      13.828   2.727   2.805  0.00  0.00    +0.052 A 
ATOM     12  C   UNL     1      12.595   2.959   2.232  0.00  0.00    +0.145 A 
ATOM     13  F   UNL     1      12.261   2.347   1.075  0.00  0.00    -0.204 F 
BRANCH  10  14
ATOM     14  C   UNL     1      15.491   3.102   4.624  0.00  0.00    +0.202 A 
ATOM     15  N   UNL     1      16.445   2.296   4.131  0.00  0.00    -0.187 NA
ATOM     16  C   UNL     1      17.488   2.298   4.926  0.00  0.00    +0.259 A 
ATOM     17  O   UNL     1      17.227   3.115   5.961  0.00  0.00    -0.332 OA
ATOM     18  N   UNL     1      15.923   3.633   5.743  0.00  0.00    -0.056 NA
BRANCH  16  19
ATOM     19  C   UNL     1      18.738   1.533   4.719  0.00  0.00    +0.042 A 
ATOM     20  C   UNL     1      18.902   0.715   3.596  0.00  0.00    +0.033 A 
ATOM     21  C   UNL     1      20.084   0.018   3.443  0.00  0.00    +0.111 A 
ATOM     22  N   UNL     1      21.049   0.117   4.337  0.00  0.00    -0.263 NA
ATOM     23  C   UNL     1      20.935   0.877   5.409  0.00  0.00    +0.111 A 
ATOM     24  C   UNL     1      19.790   1.613   5.638  0.00  0.00    +0.033 A 
ENDBRANCH  16  19
ENDBRANCH  10  14
ENDBRANCH   5   7
BRANCH   1  26
ATOM     25  N   UNL     1       6.702   1.366   0.629  0.00  0.00    -0.314 N 
ATOM     26  C   UNL     1       7.415   1.936   1.621  0.00  0.00    +0.218 C 
ATOM     27  O   UNL     1       7.037   1.845   2.770  0.00  0.00    -0.275 OA
ATOM     28  H   UNL     1       7.005   1.440  -0.289  0.00  0.00    +0.149 HD
BRANCH  25  29
ATOM     29  C   UNL     1       5.470   0.636   0.939  0.00  0.00    +0.123 C 
BRANCH  29  30
ATOM     30  C   UNL     1       4.861   0.093  -0.355  0.00  0.00    +0.124 C 
BRANCH  30  40
ATOM     31  C   UNL     1      -0.017   1.377   0.010  0.00  0.00    +0.000 A 
ATOM     32  C   UNL     1       1.170   2.088   0.002  0.00  0.00    +0.002 A 
ATOM     33  C   UNL     1       2.375   1.416  -0.015  0.00  0.00    +0.023 A 
ATOM     34  C   UNL     1       2.396   0.025  -0.024  0.00  0.00    +0.033 A 
ATOM     35  C   UNL     1       1.207  -0.687  -0.013  0.00  0.00    -0.026 A 
ATOM     36  C   UNL     1       0.002  -0.004   0.002  0.00  0.00    +0.005 A 
ATOM     37  C   UNL     1       1.192  -2.192  -0.011  0.00  0.00    +0.038 C 
ATOM     38  C   UNL     1       2.521  -2.742  -0.528  0.00  0.00    +0.024 C 
ATOM     39  C   UNL     1       3.667  -2.076   0.246  0.00  0.00    +0.105 C 
ATOM     40  N   UNL     1       3.629  -0.637  -0.046  0.00  0.00    -0.328 N 
ENDBRANCH  30  40
ENDBRANCH  29  30
ENDBRANCH  25  29
ENDBRANCH   1  26
TORSDOF 7
