REMARK  Name = ZINC32581115
REMARK  9 active torsions:
REMARK  status: ('A' for Active; 'I' for Inactive)
REMARK    1  A    between atoms: C_1  and  C_2
REMARK    2  A    between atoms: C_4  and  O_9
REMARK    3  A    between atoms: O_9  and  C_10
REMARK    4  A    between atoms: C_10  and  C_11
REMARK    5  A    between atoms: N_13  and  N_14
REMARK    6  A    between atoms: C_15  and  C_16
REMARK    7  A    between atoms: C_18  and  N_23
REMARK    8  A    between atoms: C_21  and  O_22
REMARK    9  A    between atoms: N_24  and  C_25
REMARK                            x       y       z     vdW  Elec       q    Type
REMARK                         _______ _______ _______ _____ _____    ______ ____
ROOT
ATOM      1  C   UNL     1       0.083  -8.455  -6.732  0.00  0.00    +0.038 A 
ATOM      2  C   UNL     1       0.095  -9.834  -6.923  0.00  0.00    +0.042 A 
ATOM      3  C   UNL     1       0.095 -10.354  -8.218  0.00  0.00    +0.087 A 
ATOM      4  C   UNL     1       0.083  -9.488  -9.319  0.00  0.00    +0.033 A 
ATOM      5  C   UNL     1       0.071  -8.123  -9.127  0.00  0.00    +0.048 A 
ATOM      6  C   UNL     1       0.066  -7.597  -7.843  0.00  0.00    +0.126 A 
ENDROOT
BRANCH   1   8
ATOM      7  N   UNL     1       0.066  -6.611  -5.192  0.00  0.00    -0.188 NA
ATOM      8  C   UNL     1       0.083  -7.897  -5.367  0.00  0.00    +0.142 C 
BRANCH   7  11
ATOM      9  C   UNL     1       0.048  -4.746  -3.712  0.00  0.00    +0.270 C 
ATOM     10  O   UNL     1       0.033  -4.003  -4.671  0.00  0.00    -0.270 OA
ATOM     11  N   UNL     1       0.065  -6.082  -3.895  0.00  0.00    -0.204 N 
ATOM     12  H   UNL     1       0.077  -6.676  -3.128  0.00  0.00    +0.177 HD
BRANCH   9  13
ATOM     13  C   UNL     1       0.047  -4.176  -2.317  0.00  0.00    +0.326 C 
BRANCH  13  14
ATOM     14  O   UNL     1       0.028  -2.749  -2.386  0.00  0.00    -0.483 OA
BRANCH  14  18
ATOM     15  C   UNL     1      -0.018   1.503   0.010  0.00  0.00    +0.045 C 
ATOM     16  C   UNL     1       0.002  -0.004   0.002  0.00  0.00    -0.029 A 
ATOM     17  C   UNL     1       0.006  -0.688  -1.199  0.00  0.00    +0.050 A 
ATOM     18  C   UNL     1       0.025  -2.075  -1.206  0.00  0.00    +0.122 A 
ATOM     19  C   UNL     1       0.040  -2.773  -0.007  0.00  0.00    +0.047 A 
ATOM     20  C   UNL     1       0.036  -2.086   1.192  0.00  0.00    +0.024 A 
ATOM     21  C   UNL     1       0.023  -0.702   1.196  0.00  0.00    +0.044 A 
ATOM     22 CL   UNL     1       0.025   0.160   2.704  0.00  0.00    -0.083 Cl
ENDBRANCH  14  18
ENDBRANCH  13  14
ENDBRANCH   9  13
ENDBRANCH   7  11
ENDBRANCH   1   8
BRANCH   6  23
ATOM     23  O   UNL     1       0.048  -6.253  -7.661  0.00  0.00    -0.506 OA
ATOM     24  H   UNL     1       0.927  -5.851  -7.613  0.00  0.00    +0.292 HD
ENDBRANCH   6  23
BRANCH   3  25
ATOM     25  N   UNL     1       0.107 -11.705  -8.413  0.00  0.00    -0.149 NA
ATOM     26  N   UNL     1       0.107 -12.184  -9.610  0.00  0.00    -0.149 NA
BRANCH  26  27
ATOM     27  C   UNL     1       0.119 -13.538  -9.805  0.00  0.00    +0.087 A 
ATOM     28  C   UNL     1       0.126 -14.405  -8.709  0.00  0.00    +0.029 A 
ATOM     29  C   UNL     1       0.138 -15.768  -8.912  0.00  0.00    +0.003 A 
ATOM     30  C   UNL     1       0.144 -16.280 -10.198  0.00  0.00    +0.015 A 
ATOM     31  C   UNL     1       0.139 -15.428 -11.289  0.00  0.00    +0.020 A 
ATOM     32  C   UNL     1       0.119 -14.060 -11.101  0.00  0.00    +0.044 A 
ATOM     33 BR   UNL     1       0.148 -16.138 -13.042  0.00  0.00    -0.050 Br
ENDBRANCH  26  27
ENDBRANCH   3  25
TORSDOF 8
