REMARK  Name = ZINC21715084
REMARK  9 active torsions:
REMARK  status: ('A' for Active; 'I' for Inactive)
REMARK    1  A    between atoms: C_1  and  C_2
REMARK    2  A    between atoms: C_2  and  C_3
REMARK    3  A    between atoms: N_9  and  C_10
REMARK    4  A    between atoms: C_10  and  C_11
REMARK    5  A    between atoms: C_11  and  C_12
REMARK    6  A    between atoms: C_12  and  N_13
REMARK    7  A    between atoms: C_16  and  C_23
REMARK    8  A    between atoms: C_28  and  O_29
REMARK    9  A    between atoms: O_29  and  C_30
REMARK                            x       y       z     vdW  Elec       q    Type
REMARK                         _______ _______ _______ _____ _____    ______ ____
ROOT
ATOM      1  N   UNL     1      -0.726  -0.167   0.549  0.00  0.00    -0.328 N 
ATOM      2  C   UNL     1      -0.827  -1.502   0.889  0.00  0.00    +0.135 A 
ATOM      3  C   UNL     1      -1.929  -1.980   1.599  0.00  0.00    +0.108 A 
ATOM      4  C   UNL     1      -3.171  -1.442   2.168  0.00  0.00    +0.130 A 
ATOM      5  N   UNL     1      -3.768  -2.473   2.716  0.00  0.00    -0.075 NA
ATOM      6  O   UNL     1      -3.150  -3.505   2.585  0.00  0.00    -0.334 OA
ATOM      7  C   UNL     1      -1.995  -3.350   1.922  0.00  0.00    +0.264 A 
ATOM      8  N   UNL     1      -0.995  -4.135   1.545  0.00  0.00    -0.198 NA
ATOM      9  C   UNL     1       0.031  -3.644   0.880  0.00  0.00    +0.227 A 
ATOM     10  N   UNL     1       0.129  -2.368   0.554  0.00  0.00    -0.220 NA
ATOM     11  H   UNL     1      -1.558   0.520   0.764  0.00  0.00    +0.147 HD
ENDROOT
BRANCH   4  12
ATOM     12  C   UNL     1      -3.647  -0.040   2.131  0.00  0.00    +0.046 A 
ATOM     13  C   UNL     1      -2.801   0.997   2.523  0.00  0.00    +0.014 A 
ATOM     14  C   UNL     1      -3.248   2.302   2.483  0.00  0.00    +0.001 A 
ATOM     15  C   UNL     1      -4.536   2.585   2.064  0.00  0.00    +0.004 A 
ATOM     16  C   UNL     1      -5.384   1.566   1.677  0.00  0.00    +0.046 A 
ATOM     17  C   UNL     1      -4.948   0.250   1.707  0.00  0.00    +0.129 A 
BRANCH  17  18
ATOM     18  O   UNL     1      -5.780  -0.753   1.327  0.00  0.00    -0.494 OA
ATOM     19  C   UNL     1      -7.095  -0.381   0.907  0.00  0.00    +0.277 C 
ENDBRANCH  17  18
ENDBRANCH   4  12
BRANCH   1  20
ATOM     20  C   UNL     1       0.489   0.334  -0.097  0.00  0.00    +0.101 C 
BRANCH  20  21
ATOM     21  C   UNL     1       0.343   1.834  -0.365  0.00  0.00    +0.000 C 
BRANCH  21  22
ATOM     22  C   UNL     1       1.613   2.357  -1.040  0.00  0.00    -0.077 C 
BRANCH  22  28
ATOM     23  C   UNL     1       2.766   4.397  -1.648  0.00  0.00    -0.069 C 
ATOM     24  C   UNL     1       2.610   5.915  -1.766  0.00  0.00    -0.015 C 
ATOM     25  C   UNL     1       1.569   6.234  -2.842  0.00  0.00    -0.003 C 
ATOM     26  C   UNL     1       0.244   5.558  -2.477  0.00  0.00    -0.019 C 
ATOM     27  C   UNL     1       0.469   4.050  -2.339  0.00  0.00    -0.078 C 
ATOM     28  N   UNL     1       1.472   3.797  -1.297  0.00  0.00    +0.382 N 
ATOM     29  H   UNL     1       1.122   4.275  -0.370  0.00  0.00    -0.081 HD
BRANCH  23  31
ATOM     30  C   UNL     1       3.271   4.564   0.793  0.00  0.00    +0.002 C 
ATOM     31  C   UNL     1       3.791   4.073  -0.560  0.00  0.00    -0.019 C 
ENDBRANCH  23  31
ENDBRANCH  22  28
ENDBRANCH  21  22
ENDBRANCH  20  21
ENDBRANCH   1  20
TORSDOF 7
