REMARK  Name = ZINC45767015
REMARK  12 active torsions:
REMARK  status: ('A' for Active; 'I' for Inactive)
REMARK    1  A    between atoms: C_1  and  C_2
REMARK    2  A    between atoms: C_2  and  C_3
REMARK    3  A    between atoms: C_2  and  C_4
REMARK    4  A    between atoms: C_4  and  C_6
REMARK    5  A    between atoms: C_4  and  N_23
REMARK    6  A    between atoms: N_12  and  C_15
REMARK    7  A    between atoms: C_15  and  C_16
REMARK    8  A    between atoms: N_18  and  C_19
REMARK    9  A    between atoms: C_19  and  C_20
REMARK   10  A    between atoms: C_19  and  C_21
REMARK   11  A    between atoms: C_19  and  C_22
REMARK   12  A    between atoms: C_24  and  C_26
REMARK                            x       y       z     vdW  Elec       q    Type
REMARK                         _______ _______ _______ _____ _____    ______ ____
ROOT
ATOM      1  C   UNL     1      -2.309  -0.747  -0.747  0.00  0.00    +0.236 C 
ATOM      2  O   UNL     1      -3.252   0.016  -0.722  0.00  0.00    -0.274 OA
ATOM      3  N   UNL     1      -1.724  -1.056  -1.921  0.00  0.00    -0.302 N 
ATOM      4  C   UNL     1      -0.582  -1.993  -1.922  0.00  0.00    +0.106 C 
ATOM      5  C   UNL     1      -0.678  -2.982  -3.098  0.00  0.00    +0.000 C 
ATOM      6  C   UNL     1      -2.117  -3.410  -3.279  0.00  0.00    -0.077 C 
ATOM      7  N   UNL     1      -2.757  -2.545  -4.268  0.00  0.00    +0.386 N 
ATOM      8  C   UNL     1      -3.334  -1.367  -3.743  0.00  0.00    -0.059 C 
ATOM      9  C   UNL     1      -2.242  -0.464  -3.137  0.00  0.00    +0.089 C 
ATOM     10  H   UNL     1      -2.067  -2.283  -4.956  0.00  0.00    -0.081 HD
ENDROOT
BRANCH   1  11
ATOM     11  C   UNL     1      -1.792  -1.348   0.534  0.00  0.00    +0.162 C 
BRANCH  11  12
ATOM     12  N   UNL     1      -2.591  -0.858   1.661  0.00  0.00    -0.303 N 
ATOM     13  C   UNL     1      -2.679  -1.586   2.792  0.00  0.00    +0.220 C 
ATOM     14  O   UNL     1      -2.096  -2.646   2.877  0.00  0.00    -0.275 OA
ATOM     15  H   UNL     1      -3.056  -0.009   1.593  0.00  0.00    +0.149 HD
BRANCH  13  16
ATOM     16  C   UNL     1      -3.500  -1.082   3.950  0.00  0.00    +0.048 C 
ATOM     17  C   UNL     1      -4.954  -0.909   3.508  0.00  0.00    +0.019 C 
ATOM     18  C   UNL     1      -5.788  -0.398   4.684  0.00  0.00    -0.009 C 
ATOM     19  C   UNL     1      -5.721  -1.405   5.833  0.00  0.00    +0.007 C 
ATOM     20  C   UNL     1      -4.266  -1.577   6.276  0.00  0.00    -0.009 C 
ATOM     21  C   UNL     1      -3.432  -2.089   5.100  0.00  0.00    +0.019 C 
ATOM     22  C   UNL     1      -3.713  -0.230   6.745  0.00  0.00    +0.007 C 
ATOM     23  C   UNL     1      -3.780   0.777   5.596  0.00  0.00    -0.009 C 
ATOM     24  C   UNL     1      -5.235   0.949   5.153  0.00  0.00    +0.007 C 
ATOM     25  C   UNL     1      -2.947   0.265   4.420  0.00  0.00    +0.019 C 
ENDBRANCH  13  16
ENDBRANCH  11  12
BRANCH  11  27
ATOM     26  C   UNL     1      -0.240   0.569   0.931  0.00  0.00    +0.009 C 
ATOM     27  C   UNL     1      -0.330  -0.945   0.733  0.00  0.00    +0.012 C 
ATOM     28  C   UNL     1       0.232  -1.655   1.966  0.00  0.00    +0.009 C 
ENDBRANCH  11  27
ENDBRANCH   1  11
BRANCH   7  29
ATOM     29  C   UNL     1      -3.809  -3.315  -4.945  0.00  0.00    +0.019 C 
BRANCH  29  30
ATOM     30  C   UNL     1      -3.181  -4.417  -5.758  0.00  0.00    +0.197 C 
ATOM     31  O   UNL     1      -1.975  -4.484  -5.860  0.00  0.00    -0.278 OA
ATOM     32  N   UNL     1      -3.961  -5.328  -6.374  0.00  0.00    -0.312 N 
ATOM     33  H   UNL     1      -4.926  -5.275  -6.293  0.00  0.00    +0.149 HD
BRANCH  32  34
ATOM     34  C   UNL     1      -3.350  -6.399  -7.165  0.00  0.00    +0.026 C 
ATOM     35  C   UNL     1      -2.437  -7.239  -6.268  0.00  0.00    +0.031 C 
ATOM     36  C   UNL     1      -4.448  -7.290  -7.751  0.00  0.00    +0.031 C 
ATOM     37  C   UNL     1      -2.528  -5.789  -8.301  0.00  0.00    +0.031 C 
ENDBRANCH  32  34
ENDBRANCH  29  30
ENDBRANCH   7  29
TORSDOF 7
