REMARK  Name = ZINC20765630
REMARK  9 active torsions:
REMARK  status: ('A' for Active; 'I' for Inactive)
REMARK    1  A    between atoms: C_1  and  C_2
REMARK    2  A    between atoms: C_7  and  N_12
REMARK    3  A    between atoms: C_9  and  C_11
REMARK    4  A    between atoms: C_13  and  C_15
REMARK    5  A    between atoms: C_15  and  C_17
REMARK    6  A    between atoms: C_15  and  N_24
REMARK    7  A    between atoms: C_17  and  C_18
REMARK    8  A    between atoms: N_24  and  S_25
REMARK    9  A    between atoms: S_25  and  C_28
REMARK                            x       y       z     vdW  Elec       q    Type
REMARK                         _______ _______ _______ _____ _____    ______ ____
ROOT
ATOM      1  C   UNL     1       4.204   2.420  -1.469  0.00  0.00    +0.166 C 
ENDROOT
BRANCH   1   3
ATOM      2  N   UNL     1       6.624   2.406  -0.959  0.00  0.00    -0.311 N 
ATOM      3  C   UNL     1       5.581   3.028  -1.543  0.00  0.00    +0.232 C 
ATOM      4  O   UNL     1       5.749   4.077  -2.129  0.00  0.00    -0.274 OA
ATOM      5  H   UNL     1       6.471   1.455  -0.428  0.00  0.00    +0.149 HD
BRANCH   2  11
ATOM      6  C   UNL     1      11.466   1.415  -0.808  0.00  0.00    +0.008 C 
ATOM      7  C   UNL     1      10.413   2.515  -0.957  0.00  0.00    -0.009 C 
ATOM      8  C   UNL     1      10.580   3.538   0.169  0.00  0.00    +0.003 C 
ATOM      9  C   UNL     1       9.528   4.638   0.019  0.00  0.00    +0.002 C 
ATOM     10  C   UNL     1       8.130   4.020   0.095  0.00  0.00    +0.022 C 
ATOM     11  C   UNL     1       7.963   2.998  -1.032  0.00  0.00    +0.076 C 
ATOM     12  C   UNL     1       9.015   1.898  -0.882  0.00  0.00    +0.009 C 
ATOM     13  C   UNL     1       8.837   1.202   0.469  0.00  0.00    +0.009 C 
ENDBRANCH   2  11
ENDBRANCH   1   3
BRANCH   1  14
ATOM     14  N   UNL     1       3.251   3.280  -2.175  0.00  0.00    -0.178 NA
ATOM     15  H   UNL     1       2.676   4.036  -1.620  0.00  0.00    +0.149 HD
BRANCH  14  16
ATOM     16  S   UNL     1       2.854   2.957  -3.750  0.00  0.00    +0.059 S 
ATOM     17  O   UNL     1       1.898   3.934  -4.136  0.00  0.00    -0.153 OA
ATOM     18  O   UNL     1       4.078   2.771  -4.448  0.00  0.00    -0.153 OA
BRANCH  16  19
ATOM     19  C   UNL     1       2.023   1.403  -3.770  0.00  0.00    +0.105 A 
ATOM     20  C   UNL     1       2.751   0.231  -3.852  0.00  0.00    +0.029 A 
ATOM     21  C   UNL     1       2.099  -0.988  -3.862  0.00  0.00    +0.017 A 
ATOM     22  C   UNL     1       0.718  -1.034  -3.802  0.00  0.00    +0.018 A 
ATOM     23  C   UNL     1      -0.010   0.139  -3.725  0.00  0.00    +0.017 A 
ATOM     24  C   UNL     1       0.642   1.357  -3.710  0.00  0.00    +0.029 A 
ATOM     25 BR   UNL     1      -0.174  -2.702  -3.824  0.00  0.00    -0.050 Br
ENDBRANCH  16  19
ENDBRANCH  14  16
ENDBRANCH   1  14
BRANCH   1  26
ATOM     26  C   UNL     1       3.783   2.288  -0.004  0.00  0.00    +0.065 C 
BRANCH  26  27
ATOM     27  C   UNL     1       2.445   1.598   0.074  0.00  0.00    -0.045 A 
ATOM     28  C   UNL     1       1.286   2.347   0.161  0.00  0.00    +0.004 A 
ATOM     29  C   UNL     1       0.059   1.714   0.233  0.00  0.00    +0.000 A 
ATOM     30  C   UNL     1      -0.009   0.334   0.219  0.00  0.00    +0.000 A 
ATOM     31  C   UNL     1       1.150  -0.414   0.133  0.00  0.00    +0.000 A 
ATOM     32  C   UNL     1       2.377   0.218   0.061  0.00  0.00    +0.004 A 
ENDBRANCH  26  27
ENDBRANCH   1  26
TORSDOF 7
