REMARK  Name = ZINC49683915
REMARK  5 active torsions:
REMARK  status: ('A' for Active; 'I' for Inactive)
REMARK    1  A    between atoms: C_1  and  C_2
REMARK    2  A    between atoms: C_5  and  C_8
REMARK    3  A    between atoms: C_11  and  C_13
REMARK    4  A    between atoms: N_15  and  C_16
REMARK    5  A    between atoms: C_21  and  C_22
REMARK                            x       y       z     vdW  Elec       q    Type
REMARK                         _______ _______ _______ _____ _____    ______ ____
ROOT
ATOM      1  C   UNL     1       0.088  -4.250  -0.022  0.00  0.00    +0.249 A 
ATOM      2  N   UNL     1       0.100  -5.024  -1.089  0.00  0.00    -0.107 NA
ATOM      3  N   UNL     1       0.107  -6.257  -0.721  0.00  0.00    -0.102 NA
ATOM      4  C   UNL     1       0.099  -6.319   0.593  0.00  0.00    +0.304 A 
ATOM      5  O   UNL     1       0.092  -5.051   1.058  0.00  0.00    -0.412 OA
ENDROOT
BRANCH   1  10
ATOM      6  C   UNL     1       0.042   1.503   0.009  0.00  0.00    +0.044 C 
ATOM      7  C   UNL     1       0.054  -0.004   0.001  0.00  0.00    -0.050 A 
ATOM      8  C   UNL     1       0.061  -0.686  -1.203  0.00  0.00    +0.004 A 
ATOM      9  C   UNL     1       0.072  -2.065  -1.218  0.00  0.00    +0.013 A 
ATOM     10  C   UNL     1       0.076  -2.773  -0.014  0.00  0.00    +0.039 A 
ATOM     11  C   UNL     1       0.069  -2.078   1.197  0.00  0.00    +0.013 A 
ATOM     12  C   UNL     1       0.064  -0.699   1.197  0.00  0.00    +0.004 A 
ENDBRANCH   1  10
BRANCH   4  13
ATOM     13  C   UNL     1       0.103  -7.545   1.407  0.00  0.00    +0.305 C 
ATOM     14  O   UNL     1       0.094  -7.470   2.620  0.00  0.00    -0.265 OA
ATOM     15  N   UNL     1       0.116  -8.752   0.807  0.00  0.00    -0.276 N 
ATOM     16  H   UNL     1       0.042  -8.815  -0.158  0.00  0.00    +0.155 HD
BRANCH  15  17
ATOM     17  C   UNL     1       0.235  -9.909   1.573  0.00  0.00    +0.051 A 
ATOM     18  C   UNL     1       0.839  -9.860   2.822  0.00  0.00    +0.024 A 
ATOM     19  C   UNL     1       0.957 -11.008   3.579  0.00  0.00    +0.002 A 
ATOM     20  C   UNL     1       0.475 -12.216   3.102  0.00  0.00    +0.001 A 
ATOM     21  C   UNL     1      -0.128 -12.284   1.864  0.00  0.00    +0.021 A 
ATOM     22  C   UNL     1      -0.260 -11.130   1.088  0.00  0.00    +0.073 A 
BRANCH  22  23
ATOM     23  C   UNL     1      -0.890 -11.193  -0.196  0.00  0.00    +0.101 C 
ATOM     24  N   UNL     1      -1.391 -11.243  -1.214  0.00  0.00    -0.191 NA
ENDBRANCH  22  23
ENDBRANCH  15  17
ENDBRANCH   4  13
TORSDOF 4
