REMARK  Name = ZINC06408531
REMARK  12 active torsions:
REMARK  status: ('A' for Active; 'I' for Inactive)
REMARK    1  A    between atoms: C_1  and  C_2
REMARK    2  A    between atoms: C_9  and  C_14
REMARK    3  A    between atoms: C_14  and  C_16
REMARK    4  A    between atoms: C_14  and  N_66
REMARK    5  A    between atoms: N_20  and  C_21
REMARK    6  A    between atoms: C_21  and  C_22
REMARK    7  A    between atoms: C_21  and  C_23
REMARK    8  A    between atoms: C_21  and  C_24
REMARK    9  A    between atoms: C_25  and  C_26
REMARK   10  A    between atoms: C_25  and  N_66
REMARK   11  A    between atoms: C_33  and  C_34
REMARK   12  A    between atoms: C_33  and  N_66
REMARK                            x       y       z     vdW  Elec       q    Type
REMARK                         _______ _______ _______ _____ _____    ______ ____
ROOT
ATOM      1  C   UNL     1      -1.095  -0.196   0.112  0.00  0.00    +0.040 C 
ENDROOT
BRANCH   1  10
ATOM      2  C   UNL     1       5.705   2.841  -0.283  0.00  0.00    +0.044 C 
ATOM      3  C   UNL     1       4.205   2.978  -0.235  0.00  0.00    -0.050 A 
ATOM      4  C   UNL     1       3.628   4.240  -0.274  0.00  0.00    +0.005 A 
ATOM      5  C   UNL     1       2.259   4.390  -0.230  0.00  0.00    +0.026 A 
ATOM      6  C   UNL     1       1.444   3.265  -0.146  0.00  0.00    +0.049 A 
ATOM      7  C   UNL     1       2.033   1.987  -0.107  0.00  0.00    -0.001 A 
ATOM      8  C   UNL     1       3.425   1.860  -0.153  0.00  0.00    +0.013 A 
ATOM      9  C   UNL     1       1.167   0.809  -0.019  0.00  0.00    +0.017 A 
ATOM     10  C   UNL     1      -0.176   0.994   0.021  0.00  0.00    +0.011 A 
ATOM     11  C   UNL     1      -0.715   2.298  -0.021  0.00  0.00    +0.251 A 
ATOM     12  O   UNL     1      -1.925   2.441   0.011  0.00  0.00    -0.268 OA
ATOM     13  N   UNL     1       0.072   3.385  -0.102  0.00  0.00    -0.322 N 
ATOM     14  H   UNL     1      -0.332   4.266  -0.129  0.00  0.00    +0.169 HD
ENDBRANCH   1  10
BRANCH   1  15
ATOM     15  C   UNL     1      -1.839  -0.158   1.422  0.00  0.00    +0.143 A 
ATOM     16  N   UNL     1      -2.794   0.676   1.755  0.00  0.00    -0.115 NA
ATOM     17  N   UNL     1      -3.174   0.388   2.952  0.00  0.00    -0.023 NA
ATOM     18  N   UNL     1      -2.486  -0.608   3.391  0.00  0.00    -0.043 NA
ATOM     19  N   UNL     1      -1.656  -0.976   2.474  0.00  0.00    -0.225 N 
BRANCH  19  20
ATOM     20  C   UNL     1      -0.693  -2.076   2.564  0.00  0.00    +0.059 C 
ATOM     21  C   UNL     1       0.712  -1.549   2.267  0.00  0.00    +0.036 C 
ATOM     22  C   UNL     1      -0.727  -2.670   3.974  0.00  0.00    +0.036 C 
ATOM     23  C   UNL     1      -1.058  -3.158   1.546  0.00  0.00    +0.036 C 
ENDBRANCH  19  20
ENDBRANCH   1  15
BRANCH   1  24
ATOM     24  N   UNL     1      -2.074  -0.137  -0.994  0.00  0.00    +0.397 N 
ATOM     25  H   UNL     1      -2.724   0.639  -0.823  0.00  0.00    -0.079 HD
BRANCH  24  26
ATOM     26  C   UNL     1      -1.375   0.096  -2.276  0.00  0.00    -0.041 C 
BRANCH  26  27
ATOM     27  C   UNL     1      -2.398   0.420  -3.334  0.00  0.00    -0.064 A 
ATOM     28  C   UNL     1      -2.849  -0.571  -4.185  0.00  0.00    +0.003 A 
ATOM     29  C   UNL     1      -3.791  -0.276  -5.153  0.00  0.00    +0.020 A 
ATOM     30  C   UNL     1      -4.274   1.015  -5.276  0.00  0.00    +0.041 A 
ATOM     31  C   UNL     1      -3.818   2.008  -4.427  0.00  0.00    +0.020 A 
ATOM     32  C   UNL     1      -2.880   1.710  -3.457  0.00  0.00    +0.003 A 
ATOM     33 CL   UNL     1      -5.453   1.389  -6.495  0.00  0.00    -0.084 Cl
ENDBRANCH  26  27
ENDBRANCH  24  26
BRANCH  24  34
ATOM     34  C   UNL     1      -2.840  -1.399  -1.058  0.00  0.00    -0.001 C 
BRANCH  34  35
ATOM     35  C   UNL     1      -3.924  -1.359  -0.012  0.00  0.00    +0.089 A 
ATOM     36  C   UNL     1      -5.119  -0.756  -0.140  0.00  0.00    +0.042 A 
ATOM     37  C   UNL     1      -5.816  -0.966   1.073  0.00  0.00    +0.041 A 
ATOM     38  C   UNL     1      -5.004  -1.685   1.869  0.00  0.00    +0.195 A 
ATOM     39  O   UNL     1      -3.862  -1.925   1.205  0.00  0.00    -0.470 OA
ENDBRANCH  34  35
ENDBRANCH  24  34
ENDBRANCH   1  24
TORSDOF 8
