REMARK  Name = ZINC60346557
REMARK  8 active torsions:
REMARK  status: ('A' for Active; 'I' for Inactive)
REMARK    1  A    between atoms: C_1  and  C_2
REMARK    2  A    between atoms: C_2  and  C_26
REMARK    3  A    between atoms: N_5  and  C_9
REMARK    4  A    between atoms: C_9  and  C_10
REMARK    5  A    between atoms: N_12  and  C_13
REMARK    6  A    between atoms: C_14  and  C_22
REMARK    7  A    between atoms: C_22  and  O_24
REMARK    8  A    between atoms: O_24  and  C_25
REMARK                            x       y       z     vdW  Elec       q    Type
REMARK                         _______ _______ _______ _____ _____    ______ ____
ROOT
ATOM      1  C   UNL     1      -2.585  -3.391   1.260  0.00  0.00    +0.236 C 
ATOM      2  O   UNL     1      -1.707  -3.759   0.508  0.00  0.00    -0.274 OA
ATOM      3  N   UNL     1      -3.573  -4.239   1.608  0.00  0.00    -0.278 N 
ATOM      4  H   UNL     1      -4.275  -3.944   2.209  0.00  0.00    +0.155 HD
ENDROOT
BRANCH   3   5
ATOM      5  C   UNL     1      -3.587  -5.531   1.106  0.00  0.00    +0.086 A 
ATOM      6  C   UNL     1      -4.519  -6.529   1.347  0.00  0.00    +0.091 A 
ATOM      7  C   UNL     1      -4.304  -7.809   0.694  0.00  0.00    -0.021 A 
ATOM      8  C   UNL     1      -3.199  -7.856  -0.080  0.00  0.00    -0.004 A 
ATOM      9  S   UNL     1      -2.484  -6.244   0.060  0.00  0.00    -0.077 S 
ATOM     10  C   UNL     1      -2.707  -9.025  -0.877  0.00  0.00    +0.043 C 
ATOM     11  C   UNL     1      -3.439 -10.283  -0.388  0.00  0.00    +0.005 C 
ATOM     12  C   UNL     1      -4.939  -9.986  -0.311  0.00  0.00    +0.005 C 
ATOM     13  C   UNL     1      -5.219  -9.016   0.839  0.00  0.00    +0.037 C 
BRANCH   6  14
ATOM     14  C   UNL     1      -5.670  -6.303   2.224  0.00  0.00    +0.342 C 
ATOM     15  O   UNL     1      -6.713  -5.883   1.762  0.00  0.00    -0.245 OA
BRANCH  14  16
ATOM     16  O   UNL     1      -5.573  -6.562   3.544  0.00  0.00    -0.464 OA
ATOM     17  C   UNL     1      -6.734  -6.319   4.340  0.00  0.00    +0.280 C 
ENDBRANCH  14  16
ENDBRANCH   6  14
ENDBRANCH   3   5
BRANCH   1  18
ATOM     18  C   UNL     1      -2.569  -1.986   1.805  0.00  0.00    +0.214 C 
BRANCH  18  23
ATOM     19  C   UNL     1      -0.019   1.526   0.010  0.00  0.00    +0.047 C 
ATOM     20  C   UNL     1       0.002  -0.004   0.002  0.00  0.00    +0.136 C 
ATOM     21  C   UNL     1      -1.403  -0.557   0.139  0.00  0.00    +0.251 C 
ATOM     22  O   UNL     1      -2.332  -0.392  -0.621  0.00  0.00    -0.272 OA
ATOM     23  N   UNL     1      -1.403  -1.272   1.282  0.00  0.00    -0.215 N 
ATOM     24  C   UNL     1      -0.206  -1.247   1.879  0.00  0.00    +0.310 C 
ATOM     25  O   UNL     1       0.040  -1.819   2.924  0.00  0.00    -0.252 OA
ATOM     26  N   UNL     1       0.695  -0.520   1.195  0.00  0.00    -0.281 N 
ATOM     27  H   UNL     1       1.621  -0.365   1.440  0.00  0.00    +0.152 HD
BRANCH  20  28
ATOM     28  C   UNL     1       0.657  -0.517  -1.255  0.00  0.00    -0.009 A 
ATOM     29  C   UNL     1       2.021  -0.736  -1.296  0.00  0.00    +0.014 A 
ATOM     30  C   UNL     1       2.579  -1.197  -2.442  0.00  0.00    +0.045 A 
ATOM     31  S   UNL     1       1.158  -1.337  -3.513  0.00  0.00    -0.105 S 
ATOM     32  C   UNL     1      -0.084  -0.776  -2.360  0.00  0.00    +0.051 A 
ENDBRANCH  20  28
ENDBRANCH  18  23
ENDBRANCH   1  18
TORSDOF 6
