REMARK  Name = ZINC39575919
REMARK  11 active torsions:
REMARK  status: ('A' for Active; 'I' for Inactive)
REMARK    1  A    between atoms: C_1  and  O_2
REMARK    2  A    between atoms: O_2  and  C_3
REMARK    3  A    between atoms: C_6  and  C_9
REMARK    4  A    between atoms: C_13  and  S_24
REMARK    5  A    between atoms: N_15  and  C_16
REMARK    6  A    between atoms: C_19  and  O_22
REMARK    7  A    between atoms: O_22  and  C_23
REMARK    8  A    between atoms: S_24  and  C_25
REMARK    9  A    between atoms: C_25  and  C_26
REMARK   10  A    between atoms: N_28  and  N_29
REMARK   11  A    between atoms: C_30  and  C_31
REMARK                            x       y       z     vdW  Elec       q    Type
REMARK                         _______ _______ _______ _____ _____    ______ ____
ROOT
ATOM      1  C   UNL     1       2.326  -2.239  -4.514  0.00  0.00    +0.188 C 
ATOM      2  N   UNL     1       2.006  -1.633  -5.827  0.00  0.00    -0.230 NA
ATOM      3  N   UNL     1       2.101  -2.751  -6.779  0.00  0.00    -0.226 NA
ATOM      4  C   UNL     1       1.542  -3.893  -6.009  0.00  0.00    +0.218 C 
ATOM      5  N   UNL     1       2.031  -3.678  -4.631  0.00  0.00    -0.284 N 
ATOM      6  H   UNL     1       1.078  -1.237  -5.825  0.00  0.00    +0.143 HD
ATOM      7  H   UNL     1       3.060  -2.925  -7.038  0.00  0.00    +0.143 HD
ENDROOT
BRANCH   1  11
ATOM      8  C   UNL     1      -0.099  -0.490  -1.462  0.00  0.00    +0.120 A 
ATOM      9  C   UNL     1      -0.692  -1.178  -2.510  0.00  0.00    +0.046 A 
ATOM     10  C   UNL     1       0.095  -1.743  -3.496  0.00  0.00    +0.010 A 
ATOM     11  C   UNL     1       1.471  -1.622  -3.438  0.00  0.00    -0.011 A 
ATOM     12  C   UNL     1       2.064  -0.937  -2.393  0.00  0.00    +0.010 A 
ATOM     13  C   UNL     1       1.281  -0.365  -1.408  0.00  0.00    +0.046 A 
BRANCH   8  15
ATOM     14  C   UNL     1      -2.285  -0.101  -0.610  0.00  0.00    +0.277 C 
ATOM     15  O   UNL     1      -0.871   0.067  -0.491  0.00  0.00    -0.495 OA
ENDBRANCH   8  15
ENDBRANCH   1  11
BRANCH   5  16
ATOM     16  C   UNL     1       2.183  -4.648  -3.634  0.00  0.00    +0.033 A 
ATOM     17  C   UNL     1       2.757  -4.308  -2.416  0.00  0.00    +0.027 A 
ATOM     18  C   UNL     1       2.907  -5.266  -1.432  0.00  0.00    +0.047 A 
ATOM     19  C   UNL     1       2.485  -6.567  -1.661  0.00  0.00    +0.120 A 
ATOM     20  C   UNL     1       1.912  -6.907  -2.877  0.00  0.00    +0.047 A 
ATOM     21  C   UNL     1       1.756  -5.950  -3.860  0.00  0.00    +0.027 A 
BRANCH  19  22
ATOM     22  O   UNL     1       2.632  -7.510  -0.692  0.00  0.00    -0.495 OA
ATOM     23  C   UNL     1       2.175  -8.829  -0.995  0.00  0.00    +0.277 C 
ENDBRANCH  19  22
ENDBRANCH   5  16
BRANCH   4  24
ATOM     24  S   UNL     1      -0.272  -3.862  -6.054  0.00  0.00    -0.112 S 
BRANCH  24  25
ATOM     25  C   UNL     1      -0.678  -4.410  -7.736  0.00  0.00    +0.169 C 
BRANCH  25  26
ATOM     26  C   UNL     1      -2.174  -4.516  -7.881  0.00  0.00    +0.242 C 
ATOM     27  O   UNL     1      -2.895  -4.249  -6.944  0.00  0.00    -0.273 OA
ATOM     28  N   UNL     1      -2.710  -4.909  -9.054  0.00  0.00    -0.206 N 
ATOM     29  H   UNL     1      -2.133  -5.123  -9.804  0.00  0.00    +0.177 HD
BRANCH  28  30
ATOM     30  N   UNL     1      -4.101  -5.008  -9.190  0.00  0.00    -0.188 NA
ATOM     31  C   UNL     1      -4.622  -5.388 -10.329  0.00  0.00    +0.136 C 
BRANCH  31  32
ATOM     32  C   UNL     1      -6.014  -5.487 -10.465  0.00  0.00    +0.000 C 
ATOM     33  C   UNL     1      -6.724  -5.880 -11.597  0.00  0.00    +0.004 A 
ATOM     34  C   UNL     1      -6.316  -6.279 -12.889  0.00  0.00    +0.010 A 
ATOM     35  C   UNL     1      -7.248  -6.614 -13.816  0.00  0.00    +0.001 A 
ATOM     36  C   UNL     1      -8.615  -6.575 -13.527  0.00  0.00    +0.002 A 
ATOM     37  C   UNL     1      -9.079  -6.202 -12.311  0.00  0.00    +0.026 A 
ATOM     38  C   UNL     1      -8.164  -5.837 -11.288  0.00  0.00    +0.043 A 
ATOM     39  N   UNL     1      -8.357  -5.445 -10.046  0.00  0.00    -0.380 N 
ATOM     40  C   UNL     1      -7.059  -5.196  -9.410  0.00  0.00    +0.150 C 
ATOM     41  H   UNL     1      -9.221  -5.341  -9.618  0.00  0.00    +0.160 HD
ENDBRANCH  31  32
ENDBRANCH  28  30
ENDBRANCH  25  26
ENDBRANCH  24  25
ENDBRANCH   4  24
TORSDOF 9
