REMARK  Name = ZINC39612219
REMARK  10 active torsions:
REMARK  status: ('A' for Active; 'I' for Inactive)
REMARK    1  A    between atoms: C_1  and  C_2
REMARK    2  A    between atoms: C_2  and  C_3
REMARK    3  A    between atoms: C_10  and  C_12
REMARK    4  A    between atoms: C_12  and  O_13
REMARK    5  A    between atoms: O_13  and  C_14
REMARK    6  A    between atoms: C_14  and  C_16
REMARK    7  A    between atoms: C_16  and  C_18
REMARK    8  A    between atoms: C_16  and  N_29
REMARK    9  A    between atoms: C_18  and  C_19
REMARK   10  A    between atoms: C_30  and  C_32
REMARK                            x       y       z     vdW  Elec       q    Type
REMARK                         _______ _______ _______ _____ _____    ______ ____
ROOT
ATOM      1  C   UNL     1      -5.023   2.941   4.042  0.00  0.00    +0.186 C 
ENDROOT
BRANCH   1   2
ATOM      2  N   UNL     1      -5.708   3.235   5.303  0.00  0.00    -0.298 N 
ATOM      3  C   UNL     1      -7.013   3.571   5.299  0.00  0.00    +0.246 C 
ATOM      4  O   UNL     1      -7.622   3.630   4.249  0.00  0.00    -0.270 OA
ATOM      5  H   UNL     1      -5.222   3.187   6.142  0.00  0.00    +0.150 HD
BRANCH   3   6
ATOM      6  C   UNL     1      -7.704   3.867   6.572  0.00  0.00    +0.055 A 
ATOM      7  C   UNL     1      -7.006   3.805   7.779  0.00  0.00    +0.014 A 
ATOM      8  C   UNL     1      -7.656   4.083   8.963  0.00  0.00    +0.001 A 
ATOM      9  C   UNL     1      -8.998   4.422   8.957  0.00  0.00    +0.001 A 
ATOM     10  C   UNL     1      -9.697   4.485   7.766  0.00  0.00    +0.021 A 
ATOM     11  C   UNL     1      -9.056   4.216   6.571  0.00  0.00    +0.053 A 
ATOM     12 CL   UNL     1      -9.932   4.303   5.075  0.00  0.00    -0.083 Cl
ENDBRANCH   3   6
ENDBRANCH   1   2
BRANCH   1  13
ATOM     13  C   UNL     1      -3.845   2.039   4.308  0.00  0.00    +0.328 C 
ATOM     14  O   UNL     1      -3.603   1.679   5.435  0.00  0.00    -0.249 OA
BRANCH  13  15
ATOM     15  O   UNL     1      -3.066   1.637   3.292  0.00  0.00    -0.454 OA
BRANCH  15  16
ATOM     16  C   UNL     1      -1.967   0.783   3.617  0.00  0.00    +0.327 C 
BRANCH  16  23
ATOM     17  C   UNL     1       0.689  -0.613   1.228  0.00  0.00    +0.076 C 
ATOM     18  C   UNL     1       0.820  -2.126   1.025  0.00  0.00    +0.022 C 
ATOM     19  C   UNL     1       1.368  -2.762   2.305  0.00  0.00    +0.003 C 
ATOM     20  C   UNL     1       0.394  -2.512   3.458  0.00  0.00    +0.019 C 
ATOM     21  C   UNL     1       0.257  -1.004   3.688  0.00  0.00    +0.108 C 
ATOM     22  N   UNL     1      -0.128  -0.363   2.423  0.00  0.00    -0.296 N 
ATOM     23  C   UNL     1      -1.211   0.437   2.360  0.00  0.00    +0.254 C 
ATOM     24  O   UNL     1      -1.577   0.878   1.291  0.00  0.00    -0.272 OA
BRANCH  17  26
ATOM     25  C   UNL     1       0.865  -0.251  -1.238  0.00  0.00    +0.006 C 
ATOM     26  C   UNL     1       0.013   0.011   0.005  0.00  0.00    +0.019 C 
ENDBRANCH  17  26
ENDBRANCH  16  23
ENDBRANCH  15  16
ENDBRANCH  13  15
ENDBRANCH   1  13
BRANCH   1  27
ATOM     27  C   UNL     1      -4.534   4.247   3.411  0.00  0.00    +0.071 C 
BRANCH  27  28
ATOM     28  C   UNL     1      -5.720   5.097   3.033  0.00  0.00    -0.020 A 
ATOM     29  C   UNL     1      -6.314   5.148   1.831  0.00  0.00    +0.087 A 
ATOM     30  N   UNL     1      -7.358   6.032   1.864  0.00  0.00    -0.360 N 
ATOM     31  H   UNL     1      -7.937   6.238   1.114  0.00  0.00    +0.165 HD
ATOM     32  C   UNL     1      -7.463   6.585   3.120  0.00  0.00    +0.047 A 
ATOM     33  C   UNL     1      -6.445   6.019   3.910  0.00  0.00    +0.003 A 
ATOM     34  C   UNL     1      -6.312   6.394   5.248  0.00  0.00    +0.010 A 
ATOM     35  C   UNL     1      -7.174   7.307   5.786  0.00  0.00    +0.001 A 
ATOM     36  C   UNL     1      -8.182   7.866   5.012  0.00  0.00    +0.002 A 
ATOM     37  C   UNL     1      -8.326   7.517   3.687  0.00  0.00    +0.026 A 
ENDBRANCH  27  28
ENDBRANCH   1  27
TORSDOF 9
