REMARK  Name = ZINC09833434
REMARK  10 active torsions:
REMARK  status: ('A' for Active; 'I' for Inactive)
REMARK    1  A    between atoms: C_1  and  C_2
REMARK    2  A    between atoms: C_5  and  C_38
REMARK    3  A    between atoms: N_8  and  C_10
REMARK    4  A    between atoms: C_10  and  C_11
REMARK    5  A    between atoms: C_11  and  C_12
REMARK    6  A    between atoms: C_12  and  N_13
REMARK    7  A    between atoms: C_14  and  C_16
REMARK    8  A    between atoms: C_26  and  C_28
REMARK    9  A    between atoms: C_33  and  N_34
REMARK   10  A    between atoms: C_35  and  C_37
REMARK                            x       y       z     vdW  Elec       q    Type
REMARK                         _______ _______ _______ _____ _____    ______ ____
ROOT
ATOM      1  C   UNL     1      -6.682   0.964  -3.353  0.00  0.00    +0.039 A 
ATOM      2  C   UNL     1      -5.295   0.765  -3.328  0.00  0.00    +0.015 A 
ATOM      3  C   UNL     1      -4.578   1.040  -2.204  0.00  0.00    +0.030 A 
ATOM      4  C   UNL     1      -5.224   1.528  -1.055  0.00  0.00    +0.088 A 
ATOM      5  C   UNL     1      -6.618   1.730  -1.074  0.00  0.00    +0.068 A 
ATOM      6  C   UNL     1      -7.340   1.447  -2.226  0.00  0.00    +0.041 A 
ATOM      7  N   UNL     1      -7.266   2.211   0.050  0.00  0.00    -0.319 N 
ATOM      8  H   UNL     1      -8.354   2.368   0.032  0.00  0.00    +0.169 HD
ATOM      9  C   UNL     1      -6.543   2.480   1.159  0.00  0.00    +0.275 A 
ATOM     10  O   UNL     1      -7.088   2.903   2.162  0.00  0.00    -0.266 OA
ATOM     11  C   UNL     1      -5.085   2.254   1.138  0.00  0.00    +0.138 A 
ATOM     12  N   UNL     1      -4.506   1.802   0.050  0.00  0.00    -0.240 NA
ENDROOT
BRANCH  11  13
ATOM     13  C   UNL     1      -4.275   2.541   2.339  0.00  0.00    +0.027 A 
ATOM     14  C   UNL     1      -3.328   3.567   2.319  0.00  0.00    +0.012 A 
ATOM     15  C   UNL     1      -2.575   3.831   3.443  0.00  0.00    +0.001 A 
ATOM     16  C   UNL     1      -2.755   3.083   4.596  0.00  0.00    +0.002 A 
ATOM     17  C   UNL     1      -3.691   2.069   4.632  0.00  0.00    +0.024 A 
ATOM     18  C   UNL     1      -4.453   1.786   3.508  0.00  0.00    +0.043 A 
BRANCH  18  19
ATOM     19  N   UNL     1      -5.397   0.759   3.541  0.00  0.00    -0.285 N 
ATOM     20  C   UNL     1      -6.048   0.479   4.687  0.00  0.00    +0.214 C 
ATOM     21  O   UNL     1      -5.764   1.072   5.706  0.00  0.00    -0.276 OA
ATOM     22  C   UNL     1      -7.128  -0.571   4.703  0.00  0.00    +0.109 C 
ATOM     23  H   UNL     1      -5.609   0.178   2.631  0.00  0.00    +0.155 HD
ENDBRANCH  18  19
ENDBRANCH  11  13
BRANCH   1  25
ATOM     24  N   UNL     1      -6.812   0.194  -5.674  0.00  0.00    -0.311 N 
ATOM     25  C   UNL     1      -7.447   0.661  -4.581  0.00  0.00    +0.244 C 
ATOM     26  O   UNL     1      -8.651   0.834  -4.605  0.00  0.00    -0.270 OA
ATOM     27  H   UNL     1      -5.723   0.038  -5.652  0.00  0.00    +0.149 HD
BRANCH  24  28
ATOM     28  C   UNL     1      -7.571  -0.106  -6.890  0.00  0.00    +0.102 C 
BRANCH  28  29
ATOM     29  C   UNL     1      -6.618  -0.618  -7.973  0.00  0.00    +0.000 C 
BRANCH  29  30
ATOM     30  C   UNL     1      -7.411  -0.931  -9.243  0.00  0.00    -0.077 C 
BRANCH  30  36
ATOM     31  C   UNL     1      -3.571   0.146 -12.122  0.00  0.00    +0.005 C 
ATOM     32  C   UNL     1      -4.533  -0.955 -11.671  0.00  0.00    -0.031 C 
ATOM     33  C   UNL     1      -5.261  -1.529 -12.890  0.00  0.00    +0.003 C 
ATOM     34  C   UNL     1      -6.264  -2.587 -12.424  0.00  0.00    -0.031 C 
ATOM     35  C   UNL     1      -7.241  -1.955 -11.430  0.00  0.00    -0.076 C 
ATOM     36  N   UNL     1      -6.496  -1.422 -10.282  0.00  0.00    +0.380 N 
ATOM     37  C   UNL     1      -5.560  -0.370 -10.699  0.00  0.00    -0.076 C 
ATOM     38  C   UNL     1      -5.516  -3.736 -11.745  0.00  0.00    +0.005 C 
ATOM     39  H   UNL     1      -5.905  -2.246  -9.854  0.00  0.00    -0.082 HD
ENDBRANCH  30  36
ENDBRANCH  29  30
ENDBRANCH  28  29
ENDBRANCH  24  28
ENDBRANCH   1  25
TORSDOF 7
