REMARK  Name = ZINC36528387
REMARK  13 active torsions:
REMARK  status: ('A' for Active; 'I' for Inactive)
REMARK    1  A    between atoms: C_1  and  C_2
REMARK    2  A    between atoms: C_2  and  C_3
REMARK    3  A    between atoms: C_3  and  C_4
REMARK    4  A    between atoms: C_5  and  C_6
REMARK    5  A    between atoms: C_6  and  C_8
REMARK    6  A    between atoms: C_6  and  N_22
REMARK    7  A    between atoms: N_10  and  C_11
REMARK    8  A    between atoms: C_11  and  S_12
REMARK    9  A    between atoms: S_12  and  C_15
REMARK   10  A    between atoms: C_18  and  C_21
REMARK   11  A    between atoms: N_22  and  C_23
REMARK   12  A    between atoms: C_24  and  C_26
REMARK   13  A    between atoms: C_26  and  C_27
REMARK                            x       y       z     vdW  Elec       q    Type
REMARK                         _______ _______ _______ _____ _____    ______ ____
ROOT
ATOM      1  C   UNL     1       1.923  -4.165   1.310  0.00  0.00    +0.184 C 
ENDROOT
BRANCH   1   2
ATOM      2  C   UNL     1       2.832  -4.649   0.210  0.00  0.00    +0.239 C 
ATOM      3  O   UNL     1       2.392  -5.347  -0.678  0.00  0.00    -0.273 OA
ATOM      4  N   UNL     1       4.136  -4.305   0.213  0.00  0.00    -0.294 N 
ATOM      5  H   UNL     1       4.488  -3.747   0.923  0.00  0.00    +0.150 HD
BRANCH   4   6
ATOM      6  C   UNL     1       5.020  -4.776  -0.856  0.00  0.00    +0.278 C 
BRANCH   6   7
ATOM      7  S   UNL     1       5.135  -3.507  -2.147  0.00  0.00    +0.013 S 
ATOM      8  O   UNL     1       6.040  -3.922  -3.162  0.00  0.00    -0.168 OA
ATOM      9  O   UNL     1       3.839  -3.031  -2.483  0.00  0.00    -0.168 OA
BRANCH   7  10
ATOM     10  C   UNL     1       5.929  -2.140  -1.369  0.00  0.00    +0.090 A 
ATOM     11  C   UNL     1       5.174  -1.175  -0.730  0.00  0.00    +0.027 A 
ATOM     12  C   UNL     1       5.797  -0.102  -0.120  0.00  0.00    +0.005 A 
ATOM     13  C   UNL     1       7.175   0.005  -0.148  0.00  0.00    -0.050 A 
ATOM     14  C   UNL     1       7.930  -0.961  -0.787  0.00  0.00    +0.005 A 
ATOM     15  C   UNL     1       7.308  -2.036  -1.394  0.00  0.00    +0.027 A 
ATOM     16  C   UNL     1       7.854   1.175   0.516  0.00  0.00    +0.044 C 
ENDBRANCH   7  10
ENDBRANCH   6   7
ENDBRANCH   4   6
ENDBRANCH   1   2
BRANCH   1  17
ATOM     17  N   UNL     1       0.567  -4.670   1.080  0.00  0.00    -0.289 N 
ATOM     18  C   UNL     1      -0.147  -4.319  -0.150  0.00  0.00    +0.133 C 
ATOM     19  C   UNL     1      -0.023  -5.458   2.000  0.00  0.00    +0.220 C 
ATOM     20  O   UNL     1       0.568  -5.749   3.019  0.00  0.00    -0.275 OA
BRANCH  19  21
ATOM     21  C   UNL     1      -1.418  -5.978   1.764  0.00  0.00    +0.131 C 
BRANCH  21  22
ATOM     22  C   UNL     1      -1.842  -6.828   2.934  0.00  0.00    -0.039 A 
ATOM     23  C   UNL     1      -1.579  -8.185   2.934  0.00  0.00    +0.005 A 
ATOM     24  C   UNL     1      -1.968  -8.964   4.008  0.00  0.00    +0.015 A 
ATOM     25  C   UNL     1      -2.620  -8.386   5.082  0.00  0.00    +0.018 A 
ATOM     26  C   UNL     1      -2.883  -7.028   5.081  0.00  0.00    +0.015 A 
ATOM     27  C   UNL     1      -2.489  -6.249   4.010  0.00  0.00    +0.005 A 
ATOM     28 BR   UNL     1      -3.152  -9.452   6.550  0.00  0.00    -0.050 Br
ENDBRANCH  21  22
ENDBRANCH  19  21
ENDBRANCH   1  17
BRANCH   1  30
ATOM     29  C   UNL     1       0.762  -2.018   1.233  0.00  0.00    -0.029 C 
ATOM     30  C   UNL     1       1.902  -2.658   1.318  0.00  0.00    +0.000 C 
BRANCH  29  31
ATOM     31  C   UNL     1       0.742  -0.511   1.242  0.00  0.00    +0.027 C 
BRANCH  31  33
ATOM     32  C   UNL     1      -0.019   1.526   0.010  0.00  0.00    +0.004 C 
ATOM     33  C   UNL     1       0.002  -0.004   0.002  0.00  0.00    +0.001 C 
ENDBRANCH  31  33
ENDBRANCH  29  31
ENDBRANCH   1  30
TORSDOF 10
