REMARK  Name = ZINC62261068
REMARK  6 active torsions:
REMARK  status: ('A' for Active; 'I' for Inactive)
REMARK    1  A    between atoms: C_1  and  C_2
REMARK    2  A    between atoms: C_2  and  C_3
REMARK    3  A    between atoms: C_2  and  C_4
REMARK    4  A    between atoms: C_5  and  C_20
REMARK    5  A    between atoms: N_8  and  C_9
REMARK    6  A    between atoms: C_12  and  N_15
REMARK                            x       y       z     vdW  Elec       q    Type
REMARK                         _______ _______ _______ _____ _____    ______ ____
ROOT
ATOM      1  C   UNL     1      -1.389  -1.792  -2.095  0.00  0.00    +0.067 A 
ATOM      2  C   UNL     1      -0.458  -1.013  -2.770  0.00  0.00    +0.029 A 
ATOM      3  C   UNL     1       0.133  -1.489  -3.923  0.00  0.00    +0.025 A 
ATOM      4  C   UNL     1      -0.202  -2.748  -4.406  0.00  0.00    +0.030 A 
ATOM      5  C   UNL     1      -1.132  -3.527  -3.730  0.00  0.00    +0.025 A 
ATOM      6  C   UNL     1      -1.720  -3.052  -2.575  0.00  0.00    +0.029 A 
ENDROOT
BRANCH   1  11
ATOM      7  C   UNL     1      -1.412  -0.526   0.013  0.00  0.00    +0.078 A 
ATOM      8  C   UNL     1      -2.370  -0.292   0.979  0.00  0.00    +0.148 A 
ATOM      9  N   UNL     1      -3.496  -0.934   0.616  0.00  0.00    -0.126 NA
ATOM     10  N   UNL     1      -3.305  -1.545  -0.500  0.00  0.00    -0.060 NA
ATOM     11  N   UNL     1      -1.990  -1.307  -0.923  0.00  0.00    -0.216 N 
BRANCH   7  13
ATOM     12  C   UNL     1      -0.019   1.526   0.010  0.00  0.00    +0.014 C 
ATOM     13  C   UNL     1       0.002  -0.004   0.002  0.00  0.00    +0.034 C 
ATOM     14  C   UNL     1       0.742  -0.511   1.242  0.00  0.00    +0.014 C 
ENDBRANCH   7  13
BRANCH   8  15
ATOM     15  C   UNL     1      -2.191   0.515   2.191  0.00  0.00    +0.282 C 
ATOM     16  O   UNL     1      -3.110   0.650   2.971  0.00  0.00    -0.294 OA
ENDBRANCH   8  15
ENDBRANCH   1  11
BRANCH   4  17
ATOM     17  N   UNL     1       0.397  -3.230  -5.573  0.00  0.00    -0.330 N 
ATOM     18  C   UNL     1       1.397  -2.517  -6.381  0.00  0.00    +0.105 C 
ATOM     19  C   UNL     1       1.747  -3.422  -7.581  0.00  0.00    +0.020 C 
ATOM     20  C   UNL     1       0.509  -4.351  -7.688  0.00  0.00    +0.020 C 
ATOM     21  C   UNL     1       0.135  -4.541  -6.195  0.00  0.00    +0.105 C 
ENDBRANCH   4  17
TORSDOF 4
