REMARK  Name = ZINC36249082
REMARK  12 active torsions:
REMARK  status: ('A' for Active; 'I' for Inactive)
REMARK    1  A    between atoms: C_1  and  C_2
REMARK    2  A    between atoms: C_5  and  S_8
REMARK    3  A    between atoms: S_8  and  N_11
REMARK    4  A    between atoms: N_11  and  C_12
REMARK    5  A    between atoms: N_11  and  C_17
REMARK    6  A    between atoms: C_12  and  C_13
REMARK    7  A    between atoms: C_13  and  N_14
REMARK    8  A    between atoms: N_14  and  C_15
REMARK    9  A    between atoms: N_14  and  C_16
REMARK   10  A    between atoms: C_17  and  C_18
REMARK   11  A    between atoms: C_19  and  C_33
REMARK   12  A    between atoms: C_22  and  N_23
REMARK                            x       y       z     vdW  Elec       q    Type
REMARK                         _______ _______ _______ _____ _____    ______ ____
ROOT
ATOM      1  C   UNL     1       2.772  -3.445  -1.720  0.00  0.00    +0.057 A 
ATOM      2  C   UNL     1       2.220  -2.556  -2.666  0.00  0.00    +0.120 A 
ATOM      3  N   UNL     1       2.269  -1.346  -2.161  0.00  0.00    -0.076 NA
ATOM      4  O   UNL     1       2.855  -1.431  -0.875  0.00  0.00    -0.339 OA
ATOM      5  C   UNL     1       3.145  -2.721  -0.634  0.00  0.00    +0.226 A 
ENDROOT
BRANCH   5   6
ATOM      6  N   UNL     1       3.724  -3.223   0.517  0.00  0.00    -0.294 N 
ATOM      7  C   UNL     1       5.040  -3.883   0.487  0.00  0.00    +0.113 C 
ATOM      8  C   UNL     1       6.010  -3.036   1.310  0.00  0.00    +0.054 C 
ATOM      9  C   UNL     1       5.401  -2.660   2.635  0.00  0.00    -0.041 A 
ATOM     10  C   UNL     1       6.263  -2.275   3.655  0.00  0.00    +0.004 A 
ATOM     11  C   UNL     1       5.771  -1.909   4.889  0.00  0.00    +0.000 A 
ATOM     12  C   UNL     1       4.407  -1.923   5.118  0.00  0.00    +0.000 A 
ATOM     13  C   UNL     1       3.549  -2.308   4.109  0.00  0.00    +0.005 A 
ATOM     14  C   UNL     1       4.044  -2.682   2.867  0.00  0.00    -0.027 A 
ATOM     15  C   UNL     1       3.056  -3.113   1.818  0.00  0.00    +0.143 C 
ENDBRANCH   5   6
BRANCH   2  16
ATOM     16  C   UNL     1       1.679  -2.925  -3.999  0.00  0.00    +0.004 A 
ATOM     17  C   UNL     1       2.321  -3.892  -4.770  0.00  0.00    +0.010 A 
ATOM     18  C   UNL     1       1.814  -4.231  -6.008  0.00  0.00    +0.001 A 
ATOM     19  C   UNL     1       0.671  -3.614  -6.483  0.00  0.00    +0.000 A 
ATOM     20  C   UNL     1       0.030  -2.654  -5.721  0.00  0.00    +0.001 A 
ATOM     21  C   UNL     1       0.525  -2.311  -4.479  0.00  0.00    +0.010 A 
ENDBRANCH   2  16
BRANCH   1  22
ATOM     22  C   UNL     1       2.916  -4.936  -1.883  0.00  0.00    +0.152 C 
BRANCH  22  23
ATOM     23  N   UNL     1       1.859  -5.614  -1.129  0.00  0.00    -0.174 NA
BRANCH  23  24
ATOM     24  S   UNL     1       0.433  -6.008  -1.873  0.00  0.00    +0.061 S 
ATOM     25  O   UNL     1       0.050  -7.280  -1.369  0.00  0.00    -0.153 OA
ATOM     26  O   UNL     1       0.617  -5.761  -3.260  0.00  0.00    -0.153 OA
BRANCH  24  31
ATOM     27  C   UNL     1      -3.724  -2.075   0.040  0.00  0.00    +0.044 C 
ATOM     28  C   UNL     1      -2.686  -3.057  -0.437  0.00  0.00    -0.050 A 
ATOM     29  C   UNL     1      -2.035  -2.846  -1.639  0.00  0.00    +0.005 A 
ATOM     30  C   UNL     1      -1.083  -3.747  -2.077  0.00  0.00    +0.029 A 
ATOM     31  C   UNL     1      -0.780  -4.859  -1.313  0.00  0.00    +0.106 A 
ATOM     32  C   UNL     1      -1.430  -5.069  -0.112  0.00  0.00    +0.029 A 
ATOM     33  C   UNL     1      -2.379  -4.166   0.329  0.00  0.00    +0.005 A 
ENDBRANCH  24  31
ENDBRANCH  23  24
BRANCH  23  34
ATOM     34  C   UNL     1       2.064  -5.945   0.284  0.00  0.00    +0.091 C 
BRANCH  34  35
ATOM     35  C   UNL     1       2.758  -7.303   0.395  0.00  0.00    -0.062 C 
BRANCH  35  36
ATOM     36  N   UNL     1       2.848  -7.694   1.808  0.00  0.00    +0.377 N 
ATOM     37  C   UNL     1       3.364  -9.066   1.905  0.00  0.00    -0.097 C 
ATOM     38  C   UNL     1       3.755  -6.779   2.512  0.00  0.00    -0.097 C 
ATOM     39  H   UNL     1       1.931  -7.649   2.228  0.00  0.00    -0.083 HD
ENDBRANCH  35  36
ENDBRANCH  34  35
ENDBRANCH  23  34
ENDBRANCH  22  23
ENDBRANCH   1  22
TORSDOF 9
