REMARK  Name = ZINC40316594
REMARK  10 active torsions:
REMARK  status: ('A' for Active; 'I' for Inactive)
REMARK    1  A    between atoms: C_5  and  O_7
REMARK    2  A    between atoms: O_7  and  C_8
REMARK    3  A    between atoms: C_8  and  C_9
REMARK    4  A    between atoms: C_9  and  C_11
REMARK    5  A    between atoms: C_9  and  O_34
REMARK    6  A    between atoms: C_11  and  N_12
REMARK    7  A    between atoms: N_12  and  C_13
REMARK    8  A    between atoms: N_12  and  C_26
REMARK    9  A    between atoms: C_13  and  C_14
REMARK   10  A    between atoms: C_17  and  C_19
REMARK                            x       y       z     vdW  Elec       q    Type
REMARK                         _______ _______ _______ _____ _____    ______ ____
ROOT
ATOM      1  N   UNL     1      -0.840  -6.310   0.459  0.00  0.00    +0.389 N 
ATOM      2  H   UNL     1      -0.625  -7.074   1.083  0.00  0.00    -0.081 HD
ENDROOT
BRANCH   1   3
ATOM      3  C   UNL     1       0.123  -6.298  -0.650  0.00  0.00    -0.045 C 
ATOM      4  C   UNL     1      -0.477  -5.546  -1.850  0.00  0.00    +0.009 C 
ATOM      5  C   UNL     1       0.380  -5.799  -3.114  0.00  0.00    +0.164 C 
ATOM      6  S   UNL     1       1.105  -7.457  -2.784  0.00  0.00    -0.033 S 
ATOM      7  O   UNL     1       2.518  -7.335  -2.702  0.00  0.00    -0.174 OA
ATOM      8  O   UNL     1       0.535  -8.397  -3.685  0.00  0.00    -0.174 OA
ATOM      9  C   UNL     1       0.429  -7.756  -1.097  0.00  0.00    +0.151 C 
ENDBRANCH   1   3
BRANCH   1  10
ATOM     10  C   UNL     1      -0.758  -5.040   1.193  0.00  0.00    -0.043 C 
BRANCH  10  11
ATOM     11  C   UNL     1       0.557  -4.986   1.973  0.00  0.00    +0.135 C 
BRANCH  11  12
ATOM     12  O   UNL     1       1.647  -4.846   1.060  0.00  0.00    -0.390 OA
ATOM     13  H   UNL     1       1.647  -4.012   0.572  0.00  0.00    +0.210 HD
ENDBRANCH  11  12
BRANCH  11  14
ATOM     14  C   UNL     1       0.535  -3.791   2.928  0.00  0.00    +0.258 C 
BRANCH  14  15
ATOM     15  O   UNL     1       1.712  -3.806   3.738  0.00  0.00    -0.487 OA
BRANCH  15  20
ATOM     16  C   UNL     1       1.013  -0.809   5.679  0.00  0.00    +0.004 A 
ATOM     17  C   UNL     1       2.127  -0.764   6.496  0.00  0.00    +0.003 A 
ATOM     18  C   UNL     1       3.104  -1.737   6.391  0.00  0.00    +0.042 A 
ATOM     19  C   UNL     1       2.968  -2.758   5.468  0.00  0.00    +0.165 A 
ATOM     20  C   UNL     1       1.849  -2.804   4.647  0.00  0.00    +0.156 A 
ATOM     21  C   UNL     1       0.871  -1.827   4.755  0.00  0.00    +0.048 A 
ATOM     22  F   UNL     1       3.923  -3.708   5.364  0.00  0.00    -0.202 F 
ENDBRANCH  15  20
ENDBRANCH  14  15
ENDBRANCH  11  14
ENDBRANCH  10  11
ENDBRANCH   1  10
BRANCH   1  23
ATOM     23  C   UNL     1      -2.199  -6.481  -0.073  0.00  0.00    -0.003 C 
BRANCH  23  24
ATOM     24  C   UNL     1      -2.323  -7.844  -0.704  0.00  0.00    +0.089 A 
ATOM     25  C   UNL     1      -2.586  -8.992  -0.049  0.00  0.00    +0.043 A 
ATOM     26  C   UNL     1      -2.615 -10.020  -1.013  0.00  0.00    +0.050 A 
ATOM     27  C   UNL     1      -2.365  -9.437  -2.215  0.00  0.00    +0.135 A 
ATOM     28  O   UNL     1      -2.195  -8.116  -2.013  0.00  0.00    -0.462 OA
BRANCH  27  29
ATOM     29  C   UNL     1      -2.297 -10.130  -3.518  0.00  0.00    +0.019 A 
ATOM     30  C   UNL     1      -2.579 -11.495  -3.601  0.00  0.00    +0.011 A 
ATOM     31  C   UNL     1      -2.514 -12.138  -4.820  0.00  0.00    +0.002 A 
ATOM     32  C   UNL     1      -2.170 -11.433  -5.960  0.00  0.00    +0.020 A 
ATOM     33  C   UNL     1      -1.889 -10.079  -5.885  0.00  0.00    +0.042 A 
ATOM     34  C   UNL     1      -1.957  -9.423  -4.672  0.00  0.00    +0.031 A 
ATOM     35 CL   UNL     1      -1.458  -9.203  -7.321  0.00  0.00    -0.084 Cl
ENDBRANCH  27  29
ENDBRANCH  23  24
ENDBRANCH   1  23
TORSDOF 10
