REMARK  Name = ZINC59927823
REMARK  7 active torsions:
REMARK  status: ('A' for Active; 'I' for Inactive)
REMARK    1  A    between atoms: C_1  and  S_2
REMARK    2  A    between atoms: S_2  and  C_5
REMARK    3  A    between atoms: C_8  and  N_11
REMARK    4  A    between atoms: C_12  and  C_16
REMARK    5  A    between atoms: C_16  and  S_17
REMARK    6  A    between atoms: S_17  and  C_18
REMARK    7  A    between atoms: C_21  and  C_23
REMARK                            x       y       z     vdW  Elec       q    Type
REMARK                         _______ _______ _______ _____ _____    ______ ____
ROOT
ATOM      1  N   UNL     1       2.841  -1.462  -4.998  0.00  0.00    -0.196 N 
ATOM      2  C   UNL     1       4.073  -1.067  -5.386  0.00  0.00    +0.167 A 
ATOM      3  N   UNL     1       4.309  -1.619  -6.548  0.00  0.00    -0.112 NA
ATOM      4  N   UNL     1       3.310  -2.335  -6.920  0.00  0.00    -0.023 NA
ATOM      5  N   UNL     1       2.379  -2.297  -6.029  0.00  0.00    -0.039 NA
ENDROOT
BRANCH   1   9
ATOM      6  C   UNL     1       0.845  -0.437  -1.483  0.00  0.00    +0.088 A 
ATOM      7  C   UNL     1       0.133  -0.612  -2.655  0.00  0.00    +0.029 A 
ATOM      8  C   UNL     1       0.791  -0.952  -3.821  0.00  0.00    +0.030 A 
ATOM      9  C   UNL     1       2.170  -1.117  -3.815  0.00  0.00    +0.069 A 
ATOM     10  C   UNL     1       2.882  -0.940  -2.637  0.00  0.00    +0.030 A 
ATOM     11  C   UNL     1       2.219  -0.596  -1.476  0.00  0.00    +0.029 A 
BRANCH   6  13
ATOM     12  C   UNL     1      -0.022   1.810   0.012  0.00  0.00    +0.200 C 
ATOM     13  S   UNL     1       0.002  -0.004   0.002  0.00  0.00    -0.006 S 
ATOM     14  O   UNL     1       0.835  -0.488   1.046  0.00  0.00    -0.170 OA
ATOM     15  O   UNL     1      -1.315  -0.510  -0.168  0.00  0.00    -0.170 OA
ENDBRANCH   6  13
ENDBRANCH   1   9
BRANCH   2  16
ATOM     16  C   UNL     1       5.003  -0.159  -4.623  0.00  0.00    +0.157 C 
BRANCH  16  17
ATOM     17  S   UNL     1       6.058  -1.153  -3.533  0.00  0.00    -0.058 S 
BRANCH  17  18
ATOM     18  C   UNL     1       7.073   0.037  -2.721  0.00  0.00    +0.278 A 
ATOM     19  N   UNL     1       7.034   1.339  -2.893  0.00  0.00    -0.101 NA
ATOM     20  N   UNL     1       7.914   1.897  -2.139  0.00  0.00    -0.106 NA
ATOM     21  C   UNL     1       8.550   0.976  -1.457  0.00  0.00    +0.249 A 
ATOM     22  O   UNL     1       8.027  -0.220  -1.807  0.00  0.00    -0.411 OA
BRANCH  21  23
ATOM     23  C   UNL     1       9.635   1.204  -0.480  0.00  0.00    +0.039 A 
ATOM     24  C   UNL     1      10.230   0.123   0.173  0.00  0.00    +0.013 A 
ATOM     25  C   UNL     1      11.242   0.343   1.083  0.00  0.00    +0.001 A 
ATOM     26  C   UNL     1      11.669   1.632   1.350  0.00  0.00    +0.000 A 
ATOM     27  C   UNL     1      11.084   2.708   0.707  0.00  0.00    +0.001 A 
ATOM     28  C   UNL     1      10.075   2.502  -0.211  0.00  0.00    +0.013 A 
ENDBRANCH  21  23
ENDBRANCH  17  18
ENDBRANCH  16  17
ENDBRANCH   2  16
TORSDOF 6
