REMARK  Name = ZINC38570865
REMARK  10 active torsions:
REMARK  status: ('A' for Active; 'I' for Inactive)
REMARK    1  A    between atoms: C_1  and  C_2
REMARK    2  A    between atoms: C_2  and  O_3
REMARK    3  A    between atoms: O_3  and  C_4
REMARK    4  A    between atoms: C_9  and  C_10
REMARK    5  A    between atoms: C_12  and  C_24
REMARK    6  A    between atoms: N_26  and  C_27
REMARK    7  A    between atoms: C_27  and  C_29
REMARK    8  A    between atoms: C_27  and  C_30
REMARK    9  A    between atoms: C_30  and  O_32
REMARK   10  A    between atoms: O_32  and  C_33
REMARK                            x       y       z     vdW  Elec       q    Type
REMARK                         _______ _______ _______ _____ _____    ______ ____
ROOT
ATOM      1  C   UNL     1       4.413  -0.116  -3.136  0.00  0.00    +0.079 C 
ATOM      2  N   UNL     1       3.639   0.946  -3.078  0.00  0.00    -0.244 NA
ATOM      3  C   UNL     1       3.502   1.837  -4.070  0.00  0.00    +0.126 C 
ATOM      4  C   UNL     1       4.394   1.869  -5.144  0.00  0.00    +0.039 C 
ATOM      5  C   UNL     1       5.288   0.812  -5.225  0.00  0.00    -0.008 C 
ATOM      6  C   UNL     1       6.478   0.610  -5.874  0.00  0.00    +0.004 A 
ATOM      7  C   UNL     1       7.120   1.315  -6.917  0.00  0.00    +0.010 A 
ATOM      8  C   UNL     1       8.348   0.864  -7.303  0.00  0.00    +0.001 A 
ATOM      9  C   UNL     1       8.978  -0.237  -6.722  0.00  0.00    +0.002 A 
ATOM     10  C   UNL     1       8.420  -0.984  -5.729  0.00  0.00    +0.026 A 
ATOM     11  C   UNL     1       7.127  -0.594  -5.282  0.00  0.00    +0.044 A 
ATOM     12  N   UNL     1       6.339  -1.156  -4.397  0.00  0.00    -0.372 N 
ATOM     13  C   UNL     1       5.077  -0.458  -4.422  0.00  0.00    +0.160 C 
ATOM     14  H   UNL     1       6.567  -1.907  -3.826  0.00  0.00    +0.161 HD
ENDROOT
BRANCH   1  20
ATOM     15  C   UNL     1       4.163  -2.276  -1.922  0.00  0.00    +0.129 A 
ATOM     16  C   UNL     1       4.374  -3.053  -0.794  0.00  0.00    +0.046 A 
ATOM     17  C   UNL     1       5.028  -2.522   0.301  0.00  0.00    +0.004 A 
ATOM     18  C   UNL     1       5.479  -1.211   0.284  0.00  0.00    +0.001 A 
ATOM     19  C   UNL     1       5.280  -0.422  -0.826  0.00  0.00    +0.013 A 
ATOM     20  C   UNL     1       4.624  -0.947  -1.948  0.00  0.00    +0.040 A 
BRANCH  15  21
ATOM     21  O   UNL     1       3.521  -2.795  -2.997  0.00  0.00    -0.492 OA
BRANCH  21  23
ATOM     22  C   UNL     1       2.362  -4.551  -4.187  0.00  0.00    +0.048 C 
ATOM     23  C   UNL     1       3.010  -4.124  -2.868  0.00  0.00    +0.226 C 
ENDBRANCH  21  23
ENDBRANCH  15  21
ENDBRANCH   1  20
BRANCH   3  24
ATOM     24  C   UNL     1       2.384   2.805  -4.026  0.00  0.00    +0.263 C 
ATOM     25  O   UNL     1       2.195   3.558  -4.962  0.00  0.00    -0.269 OA
ATOM     26  N   UNL     1       1.575   2.852  -2.949  0.00  0.00    -0.297 N 
ATOM     27  H   UNL     1       1.768   2.304  -2.173  0.00  0.00    +0.150 HD
BRANCH  26  28
ATOM     28  C   UNL     1       0.403   3.732  -2.951  0.00  0.00    +0.179 C 
ATOM     29  C   UNL     1      -0.765   3.024  -3.641  0.00  0.00    +0.040 C 
BRANCH  28  30
ATOM     30  C   UNL     1       0.021   4.063  -1.531  0.00  0.00    +0.327 C 
ATOM     31  O   UNL     1       0.300   3.300  -0.637  0.00  0.00    -0.249 OA
BRANCH  30  32
ATOM     32  O   UNL     1      -0.629   5.206  -1.260  0.00  0.00    -0.467 OA
ATOM     33  C   UNL     1      -0.960   5.455   0.107  0.00  0.00    +0.280 C 
ENDBRANCH  30  32
ENDBRANCH  28  30
ENDBRANCH  26  28
ENDBRANCH   3  24
TORSDOF 7
