REMARK  Name = ZINC36588625
REMARK  14 active torsions:
REMARK  status: ('A' for Active; 'I' for Inactive)
REMARK    1  A    between atoms: C_1  and  C_2
REMARK    2  A    between atoms: C_5  and  C_9
REMARK    3  A    between atoms: C_6  and  C_8
REMARK    4  A    between atoms: C_9  and  C_11
REMARK    5  A    between atoms: C_9  and  N_20
REMARK    6  A    between atoms: N_13  and  C_14
REMARK    7  A    between atoms: N_20  and  C_37
REMARK    8  A    between atoms: C_21  and  C_23
REMARK    9  A    between atoms: C_23  and  C_24
REMARK   10  A    between atoms: C_23  and  C_30
REMARK   11  A    between atoms: C_23  and  O_36
REMARK   12  A    between atoms: C_37  and  C_38
REMARK   13  A    between atoms: C_37  and  C_39
REMARK   14  A    between atoms: C_37  and  C_40
REMARK                            x       y       z     vdW  Elec       q    Type
REMARK                         _______ _______ _______ _____ _____    ______ ____
ROOT
ATOM      1  N   UNL     1       0.595  -3.184  -1.661  0.00  0.00    -0.278 N 
ATOM      2  C   UNL     1       1.281  -3.376  -0.517  0.00  0.00    +0.258 C 
ATOM      3  O   UNL     1       1.240  -2.541   0.362  0.00  0.00    -0.272 OA
ENDROOT
BRANCH   1   4
ATOM      4  C   UNL     1       0.714  -4.149  -2.757  0.00  0.00    +0.030 C 
ATOM      5  C   UNL     1       0.429  -3.449  -4.087  0.00  0.00    +0.031 C 
ATOM      6  C   UNL     1       2.131  -4.725  -2.777  0.00  0.00    +0.031 C 
ATOM      7  C   UNL     1      -0.294  -5.282  -2.551  0.00  0.00    +0.031 C 
ENDBRANCH   1   4
BRANCH   1   8
ATOM      8  C   UNL     1      -0.270  -2.011  -1.809  0.00  0.00    +0.193 C 
BRANCH   8  13
ATOM      9  C   UNL     1      -5.409  -3.087   0.605  0.00  0.00    +0.044 C 
ATOM     10  C   UNL     1      -4.069  -2.807  -0.025  0.00  0.00    -0.050 A 
ATOM     11  C   UNL     1      -2.929  -3.405   0.480  0.00  0.00    +0.004 A 
ATOM     12  C   UNL     1      -1.700  -3.147  -0.097  0.00  0.00    +0.006 A 
ATOM     13  C   UNL     1      -1.610  -2.292  -1.180  0.00  0.00    -0.015 A 
ATOM     14  C   UNL     1      -2.749  -1.695  -1.685  0.00  0.00    -0.045 A 
ATOM     15  C   UNL     1      -3.980  -1.956  -1.111  0.00  0.00    +0.007 A 
ATOM     16  C   UNL     1      -2.652  -0.763  -2.865  0.00  0.00    +0.044 C 
ENDBRANCH   8  13
BRANCH   8  17
ATOM     17  C   UNL     1       0.367  -0.828  -1.127  0.00  0.00    +0.238 C 
ATOM     18  O   UNL     1       1.528  -0.881  -0.778  0.00  0.00    -0.273 OA
ATOM     19  N   UNL     1      -0.353   0.289  -0.903  0.00  0.00    -0.311 N 
ATOM     20  H   UNL     1      -1.297   0.310  -1.125  0.00  0.00    +0.149 HD
BRANCH  19  21
ATOM     21  C   UNL     1       0.290   1.472  -0.325  0.00  0.00    +0.073 C 
ATOM     22  C   UNL     1       0.303   1.351   1.200  0.00  0.00    +0.022 C 
ATOM     23  C   UNL     1       0.975   2.586   1.804  0.00  0.00    +0.002 C 
ATOM     24  C   UNL     1       0.197   3.839   1.398  0.00  0.00    +0.000 C 
ATOM     25  C   UNL     1       0.184   3.960  -0.127  0.00  0.00    +0.002 C 
ATOM     26  C   UNL     1      -0.488   2.725  -0.731  0.00  0.00    +0.022 C 
ENDBRANCH  19  21
ENDBRANCH   8  17
ENDBRANCH   1   8
BRANCH   2  27
ATOM     27  C   UNL     1       2.099  -4.627  -0.329  0.00  0.00    +0.192 C 
BRANCH  27  28
ATOM     28  C   UNL     1       2.554  -4.720   1.105  0.00  0.00    -0.003 A 
ATOM     29  C   UNL     1       1.695  -4.362   2.127  0.00  0.00    +0.007 A 
ATOM     30  C   UNL     1       2.113  -4.447   3.442  0.00  0.00    +0.000 A 
ATOM     31  C   UNL     1       3.389  -4.889   3.735  0.00  0.00    +0.000 A 
ATOM     32  C   UNL     1       4.248  -5.248   2.712  0.00  0.00    +0.000 A 
ATOM     33  C   UNL     1       3.829  -5.167   1.397  0.00  0.00    +0.007 A 
ENDBRANCH  27  28
BRANCH  27  34
ATOM     34  C   UNL     1       1.259  -5.832  -0.668  0.00  0.00    -0.003 A 
ATOM     35  C   UNL     1      -0.084  -5.852  -0.342  0.00  0.00    +0.007 A 
ATOM     36  C   UNL     1      -0.854  -6.957  -0.652  0.00  0.00    +0.000 A 
ATOM     37  C   UNL     1      -0.281  -8.041  -1.291  0.00  0.00    +0.000 A 
ATOM     38  C   UNL     1       1.061  -8.021  -1.618  0.00  0.00    +0.000 A 
ATOM     39  C   UNL     1       1.831  -6.914  -1.311  0.00  0.00    +0.007 A 
ENDBRANCH  27  34
BRANCH  27  40
ATOM     40  O   UNL     1       3.240  -4.584  -1.189  0.00  0.00    -0.371 OA
ATOM     41  H   UNL     1       3.867  -3.880  -0.976  0.00  0.00    +0.212 HD
ENDBRANCH  27  40
ENDBRANCH   2  27
TORSDOF 9
