REMARK  Name = ZINC30062847
REMARK  5 active torsions:
REMARK  status: ('A' for Active; 'I' for Inactive)
REMARK    1  A    between atoms: C_3  and  N_30
REMARK    2  A    between atoms: C_4  and  N_27
REMARK    3  A    between atoms: C_6  and  C_7
REMARK    4  A    between atoms: C_16  and  S_18
REMARK    5  A    between atoms: S_18  and  N_21
REMARK                            x       y       z     vdW  Elec       q    Type
REMARK                         _______ _______ _______ _____ _____    ______ ____
ROOT
ATOM      1  C   UNL     1       1.829   3.211   0.001  0.00  0.00    +0.251 C 
ATOM      2  O   UNL     1       3.009   3.410  -0.212  0.00  0.00    -0.270 OA
ATOM      3  N   UNL     1       1.401   1.975   0.325  0.00  0.00    -0.267 N 
ATOM      4  C   UNL     1       0.030   1.635   0.714  0.00  0.00    +0.118 C 
ATOM      5  C   UNL     1       0.049   0.121   0.980  0.00  0.00    +0.056 C 
ATOM      6  C   UNL     1       1.479  -0.294   0.713  0.00  0.00    -0.023 A 
ATOM      7  C   UNL     1       2.201   0.829   0.340  0.00  0.00    +0.040 A 
ATOM      8  C   UNL     1       3.558   0.693   0.039  0.00  0.00    +0.026 A 
ATOM      9  C   UNL     1       4.166  -0.542   0.114  0.00  0.00    +0.030 A 
ATOM     10  C   UNL     1       3.437  -1.656   0.488  0.00  0.00    +0.106 A 
ATOM     11  C   UNL     1       2.092  -1.529   0.787  0.00  0.00    +0.034 A 
ENDROOT
BRANCH   1  17
ATOM     12  C   UNL     1      -0.380   4.121  -0.699  0.00  0.00    +0.015 A 
ATOM     13  C   UNL     1      -1.280   5.159  -0.782  0.00  0.00    +0.026 A 
ATOM     14  C   UNL     1      -0.947   6.412  -0.276  0.00  0.00    +0.060 A 
ATOM     15  C   UNL     1       0.293   6.619   0.321  0.00  0.00    +0.148 A 
ATOM     16  C   UNL     1       1.195   5.583   0.413  0.00  0.00    +0.047 A 
ATOM     17  C   UNL     1       0.864   4.323  -0.095  0.00  0.00    +0.040 A 
BRANCH  14  18
ATOM     18  N   UNL     1      -1.856   7.460  -0.366  0.00  0.00    -0.328 N 
ATOM     19  C   UNL     1      -3.063   7.180   0.421  0.00  0.00    +0.105 C 
ATOM     20  C   UNL     1      -3.974   8.410   0.417  0.00  0.00    +0.019 C 
ATOM     21  C   UNL     1      -4.353   8.754  -1.026  0.00  0.00    +0.003 C 
ATOM     22  C   UNL     1      -3.076   8.994  -1.837  0.00  0.00    +0.019 C 
ATOM     23  C   UNL     1      -2.191   7.747  -1.767  0.00  0.00    +0.105 C 
ENDBRANCH  14  18
BRANCH  15  24
ATOM     24  N   UNL     1       0.643   7.953   0.859  0.00  0.00    +0.058 N 
ATOM     25  O   UNL     1       1.728   8.134   1.381  0.00  0.00    -0.126 OA
ATOM     26  O   UNL     1      -0.155   8.870   0.778  0.00  0.00    -0.126 OA
ENDBRANCH  15  24
ENDBRANCH   1  17
BRANCH  10  27
ATOM     27  S   UNL     1       4.217  -3.233   0.582  0.00  0.00    +0.061 S 
ATOM     28  O   UNL     1       5.603  -2.988   0.781  0.00  0.00    -0.153 OA
ATOM     29  O   UNL     1       3.445  -4.016   1.481  0.00  0.00    -0.153 OA
BRANCH  27  30
ATOM     30  N   UNL     1       4.071  -3.941  -0.908  0.00  0.00    -0.177 NA
ATOM     31  C   UNL     1       2.913  -4.787  -1.224  0.00  0.00    +0.109 C 
ATOM     32  C   UNL     1       2.261  -4.263  -2.512  0.00  0.00    +0.017 C 
ATOM     33  C   UNL     1       3.314  -4.200  -3.621  0.00  0.00    +0.003 C 
ATOM     34  C   UNL     1       4.427  -3.231  -3.215  0.00  0.00    +0.017 C 
ATOM     35  C   UNL     1       5.101  -3.740  -1.937  0.00  0.00    +0.109 C 
ENDBRANCH  27  30
ENDBRANCH  10  27
TORSDOF 5
