REMARK  Name = ZINC32836153
REMARK  7 active torsions:
REMARK  status: ('A' for Active; 'I' for Inactive)
REMARK    1  A    between atoms: C_1  and  C_2
REMARK    2  A    between atoms: C_2  and  C_3
REMARK    3  A    between atoms: C_9  and  C_13
REMARK    4  A    between atoms: C_13  and  N_14
REMARK    5  A    between atoms: N_14  and  C_15
REMARK    6  A    between atoms: N_14  and  C_21
REMARK    7  A    between atoms: C_15  and  C_16
REMARK                            x       y       z     vdW  Elec       q    Type
REMARK                         _______ _______ _______ _____ _____    ______ ____
ROOT
ATOM      1  N   UNL     1       0.960   6.020   1.304  0.00  0.00    +0.391 N 
ATOM      2  H   UNL     1       0.262   5.536   2.003  0.00  0.00    -0.080 HD
ENDROOT
BRANCH   1   3
ATOM      3  C   UNL     1       2.255   5.333   1.412  0.00  0.00    -0.045 C 
ATOM      4  C   UNL     1       2.496   4.905   2.869  0.00  0.00    +0.009 C 
ATOM      5  C   UNL     1       3.971   4.476   3.056  0.00  0.00    +0.164 C 
ATOM      6  S   UNL     1       4.845   5.470   1.778  0.00  0.00    -0.033 S 
ATOM      7  O   UNL     1       5.438   4.589   0.834  0.00  0.00    -0.174 OA
ATOM      8  O   UNL     1       5.649   6.449   2.422  0.00  0.00    -0.174 OA
ATOM      9  C   UNL     1       3.399   6.301   0.996  0.00  0.00    +0.151 C 
ENDBRANCH   1   3
BRANCH   1  10
ATOM     10  C   UNL     1       0.406   5.889  -0.050  0.00  0.00    -0.021 C 
BRANCH  10  17
ATOM     11  C   UNL     1      -0.646  -0.317  -0.638  0.00  0.00    +0.102 A 
ATOM     12  N   UNL     1      -1.538   0.625  -0.691  0.00  0.00    -0.159 NA
ATOM     13  N   UNL     1      -1.194   1.966  -0.548  0.00  0.00    -0.171 N 
ATOM     14  C   UNL     1      -2.035   3.042  -0.579  0.00  0.00    +0.275 A 
ATOM     15  O   UNL     1      -3.233   2.877  -0.746  0.00  0.00    -0.266 OA
ATOM     16  C   UNL     1      -1.521   4.329  -0.421  0.00  0.00    +0.093 A 
ATOM     17  C   UNL     1      -0.168   4.507  -0.226  0.00  0.00    +0.033 A 
ATOM     18  N   UNL     1       0.622   3.437  -0.197  0.00  0.00    -0.228 NA
ATOM     19  C   UNL     1       0.133   2.232  -0.350  0.00  0.00    +0.199 A 
ATOM     20  S   UNL     1       0.858   0.608  -0.369  0.00  0.00    -0.033 S 
BRANCH  11  22
ATOM     21  C   UNL     1      -2.313  -2.118  -0.992  0.00  0.00    +0.011 C 
ATOM     22  C   UNL     1      -0.832  -1.806  -0.770  0.00  0.00    +0.061 C 
ENDBRANCH  11  22
ENDBRANCH  10  17
ENDBRANCH   1  10
BRANCH   1  23
ATOM     23  C   UNL     1       1.080   7.432   1.690  0.00  0.00    -0.002 C 
BRANCH  23  24
ATOM     24  C   UNL     1       1.374   7.527   3.165  0.00  0.00    +0.089 A 
ATOM     25  C   UNL     1       2.589   7.703   3.715  0.00  0.00    +0.042 A 
ATOM     26  C   UNL     1       2.404   7.736   5.116  0.00  0.00    +0.041 A 
ATOM     27  C   UNL     1       1.088   7.569   5.339  0.00  0.00    +0.195 A 
ATOM     28  O   UNL     1       0.469   7.443   4.154  0.00  0.00    -0.470 OA
ENDBRANCH  23  24
ENDBRANCH   1  23
TORSDOF 6
