REMARK  Name = ZINC13495815
REMARK  15 active torsions:
REMARK  status: ('A' for Active; 'I' for Inactive)
REMARK    1  A    between atoms: C_1  and  C_2
REMARK    2  A    between atoms: C_2  and  C_3
REMARK    3  A    between atoms: C_3  and  C_5
REMARK    4  A    between atoms: C_3  and  N_68
REMARK    5  A    between atoms: N_9  and  C_10
REMARK    6  A    between atoms: C_10  and  C_11
REMARK    7  A    between atoms: C_11  and  O_13
REMARK    8  A    between atoms: O_13  and  C_14
REMARK    9  A    between atoms: C_14  and  C_15
REMARK   10  A    between atoms: C_16  and  C_17
REMARK   11  A    between atoms: C_16  and  N_68
REMARK   12  A    between atoms: C_17  and  C_18
REMARK   13  A    between atoms: C_24  and  C_25
REMARK   14  A    between atoms: C_24  and  N_68
REMARK   15  A    between atoms: C_31  and  C_37
REMARK                            x       y       z     vdW  Elec       q    Type
REMARK                         _______ _______ _______ _____ _____    ______ ____
ROOT
ATOM      1  N   UNL     1      -0.679   1.821   1.534  0.00  0.00    +0.389 N 
ATOM      2  H   UNL     1      -1.688   1.810   1.725  0.00  0.00    -0.080 HD
ENDROOT
BRANCH   1   3
ATOM      3  C   UNL     1      -0.034   0.730   2.294  0.00  0.00    +0.003 C 
BRANCH   3   4
ATOM      4  C   UNL     1       1.389   0.537   1.837  0.00  0.00    +0.139 A 
ATOM      5  N   UNL     1       1.796   0.334   0.608  0.00  0.00    -0.115 NA
ATOM      6  N   UNL     1       3.079   0.221   0.627  0.00  0.00    -0.023 NA
ATOM      7  N   UNL     1       3.501   0.339   1.838  0.00  0.00    -0.043 NA
ATOM      8  N   UNL     1       2.489   0.535   2.614  0.00  0.00    -0.220 N 
BRANCH   8   9
ATOM      9  C   UNL     1       2.529   0.720   4.066  0.00  0.00    +0.267 C 
BRANCH   9  10
ATOM     10  C   UNL     1       2.411  -0.619   4.747  0.00  0.00    +0.329 C 
ATOM     11  O   UNL     1       2.305  -1.625   4.086  0.00  0.00    -0.249 OA
BRANCH  10  12
ATOM     12  O   UNL     1       2.424  -0.695   6.087  0.00  0.00    -0.464 OA
BRANCH  12  13
ATOM     13  C   UNL     1       2.307  -2.018   6.674  0.00  0.00    +0.229 C 
ATOM     14  C   UNL     1       2.341  -1.904   8.199  0.00  0.00    +0.048 C 
ENDBRANCH  12  13
ENDBRANCH  10  12
ENDBRANCH   9  10
ENDBRANCH   8   9
ENDBRANCH   3   4
BRANCH   3  16
ATOM     15  C   UNL     1      -2.243  -0.395   2.607  0.00  0.00    +0.002 C 
ATOM     16  C   UNL     1      -0.822  -0.562   2.065  0.00  0.00    -0.011 C 
ENDBRANCH   3  16
ENDBRANCH   1   3
BRANCH   1  17
ATOM     17  C   UNL     1      -0.125   3.125   1.955  0.00  0.00    -0.073 C 
BRANCH  17  18
ATOM     18  C   UNL     1      -0.680   3.471   3.338  0.00  0.00    +0.016 C 
BRANCH  18  19
ATOM     19  C   UNL     1      -0.236   4.859   3.724  0.00  0.00    -0.049 A 
ATOM     20  C   UNL     1       0.948   5.039   4.415  0.00  0.00    +0.003 A 
ATOM     21  C   UNL     1       1.357   6.312   4.765  0.00  0.00    +0.000 A 
ATOM     22  C   UNL     1       0.576   7.404   4.433  0.00  0.00    +0.000 A 
ATOM     23  C   UNL     1      -0.610   7.224   3.748  0.00  0.00    +0.000 A 
ATOM     24  C   UNL     1      -1.017   5.951   3.393  0.00  0.00    +0.003 A 
ENDBRANCH  18  19
ENDBRANCH  17  18
ENDBRANCH   1  17
BRANCH   1  25
ATOM     25  C   UNL     1      -0.462   1.624   0.085  0.00  0.00    -0.037 C 
BRANCH  25  26
ATOM     26  C   UNL     1      -1.421   2.506  -0.672  0.00  0.00    +0.001 A 
ATOM     27  C   UNL     1      -1.018   3.725  -1.108  0.00  0.00    +0.017 A 
ATOM     28  C   UNL     1      -1.973   4.556  -1.844  0.00  0.00    -0.001 A 
ATOM     29  C   UNL     1      -1.613   5.820  -2.323  0.00  0.00    +0.010 A 
ATOM     30  C   UNL     1      -2.529   6.572  -3.003  0.00  0.00    +0.001 A 
ATOM     31  C   UNL     1      -3.813   6.093  -3.222  0.00  0.00    +0.005 A 
ATOM     32  C   UNL     1      -4.190   4.851  -2.759  0.00  0.00    -0.026 A 
ATOM     33  C   UNL     1      -3.274   4.067  -2.064  0.00  0.00    +0.052 A 
ATOM     34  N   UNL     1      -3.623   2.820  -1.590  0.00  0.00    -0.322 N 
ATOM     35  H   UNL     1      -4.521   2.485  -1.742  0.00  0.00    +0.169 HD
ATOM     36  C   UNL     1      -2.738   2.063  -0.920  0.00  0.00    +0.251 A 
ATOM     37  O   UNL     1      -3.082   0.966  -0.515  0.00  0.00    -0.268 OA
ATOM     38  C   UNL     1      -5.588   4.344  -3.003  0.00  0.00    +0.046 C 
ENDBRANCH  25  26
ENDBRANCH   1  25
TORSDOF 12
