REMARK  Name = ZINC36547642
REMARK  12 active torsions:
REMARK  status: ('A' for Active; 'I' for Inactive)
REMARK    1  A    between atoms: C_1  and  C_2
REMARK    2  A    between atoms: C_5  and  S_8
REMARK    3  A    between atoms: S_8  and  C_11
REMARK    4  A    between atoms: C_11  and  N_12
REMARK    5  A    between atoms: C_13  and  C_15
REMARK    6  A    between atoms: C_15  and  C_17
REMARK    7  A    between atoms: C_15  and  N_25
REMARK    8  A    between atoms: C_20  and  C_24
REMARK    9  A    between atoms: C_22  and  C_23
REMARK   10  A    between atoms: N_25  and  C_26
REMARK   11  A    between atoms: C_33  and  C_35
REMARK   12  A    between atoms: C_35  and  O_36
REMARK                            x       y       z     vdW  Elec       q    Type
REMARK                         _______ _______ _______ _____ _____    ______ ____
ROOT
ATOM      1  C   UNL     1       3.474  -5.083   3.898  0.00  0.00    +0.198 C 
ENDROOT
BRANCH   1   2
ATOM      2  C   UNL     1       4.824  -5.031   3.230  0.00  0.00    -0.015 A 
ATOM      3  C   UNL     1       5.350  -6.168   2.646  0.00  0.00    +0.006 A 
ATOM      4  C   UNL     1       6.588  -6.120   2.033  0.00  0.00    +0.004 A 
ATOM      5  C   UNL     1       7.300  -4.935   2.005  0.00  0.00    -0.050 A 
ATOM      6  C   UNL     1       6.773  -3.798   2.589  0.00  0.00    +0.007 A 
ATOM      7  C   UNL     1       5.533  -3.845   3.197  0.00  0.00    -0.045 A 
ATOM      8  C   UNL     1       4.956  -2.605   3.829  0.00  0.00    +0.044 C 
ATOM      9  C   UNL     1       8.650  -4.883   1.338  0.00  0.00    +0.044 C 
ENDBRANCH   1   2
BRANCH   1  11
ATOM     10  N   UNL     1       2.110  -5.966   2.032  0.00  0.00    -0.294 N 
ATOM     11  C   UNL     1       2.638  -6.161   3.257  0.00  0.00    +0.240 C 
ATOM     12  O   UNL     1       2.440  -7.204   3.843  0.00  0.00    -0.273 OA
ATOM     13  H   UNL     1       2.208  -5.107   1.593  0.00  0.00    +0.150 HD
BRANCH  10  14
ATOM     14  C   UNL     1       1.387  -7.051   1.365  0.00  0.00    +0.278 C 
BRANCH  14  15
ATOM     15  S   UNL     1      -0.391  -6.880   1.683  0.00  0.00    +0.013 S 
ATOM     16  O   UNL     1      -0.620  -6.646   3.066  0.00  0.00    -0.168 OA
ATOM     17  O   UNL     1      -1.112  -7.889   0.990  0.00  0.00    -0.168 OA
BRANCH  15  22
ATOM     18  C   UNL     1      -1.966  -1.725  -1.029  0.00  0.00    +0.044 C 
ATOM     19  C   UNL     1      -1.572  -3.013  -0.352  0.00  0.00    -0.050 A 
ATOM     20  C   UNL     1      -1.629  -4.205  -1.048  0.00  0.00    +0.005 A 
ATOM     21  C   UNL     1      -1.268  -5.386  -0.426  0.00  0.00    +0.027 A 
ATOM     22  C   UNL     1      -0.850  -5.374   0.891  0.00  0.00    +0.090 A 
ATOM     23  C   UNL     1      -0.791  -4.181   1.587  0.00  0.00    +0.027 A 
ATOM     24  C   UNL     1      -1.148  -3.000   0.964  0.00  0.00    +0.005 A 
ENDBRANCH  15  22
ENDBRANCH  14  15
ENDBRANCH  10  14
ENDBRANCH   1  11
BRANCH   1  25
ATOM     25  N   UNL     1       3.644  -5.380   5.322  0.00  0.00    -0.252 N 
ATOM     26  C   UNL     1       2.576  -5.378   6.144  0.00  0.00    +0.246 C 
ATOM     27  O   UNL     1       2.724  -5.575   7.332  0.00  0.00    -0.273 OA
BRANCH  25  28
ATOM     28  C   UNL     1       4.917  -5.666   5.830  0.00  0.00    +0.056 A 
ATOM     29  C   UNL     1       5.721  -4.640   6.310  0.00  0.00    +0.025 A 
ATOM     30  C   UNL     1       6.976  -4.925   6.811  0.00  0.00    +0.002 A 
ATOM     31  C   UNL     1       7.434  -6.230   6.834  0.00  0.00    +0.002 A 
ATOM     32  C   UNL     1       6.637  -7.254   6.356  0.00  0.00    +0.022 A 
ATOM     33  C   UNL     1       5.377  -6.977   5.860  0.00  0.00    +0.062 A 
ATOM     34 CL   UNL     1       4.373  -8.264   5.268  0.00  0.00    -0.082 Cl
ENDBRANCH  25  28
BRANCH  26  35
ATOM     35  C   UNL     1       1.198  -5.132   5.587  0.00  0.00    +0.252 C 
BRANCH  35  36
ATOM     36  O   UNL     1       0.261  -5.027   6.662  0.00  0.00    -0.386 OA
ATOM     37  H   UNL     1      -0.649  -4.867   6.376  0.00  0.00    +0.210 HD
ENDBRANCH  35  36
ENDBRANCH  26  35
ENDBRANCH   1  25
TORSDOF 9
