REMARK  Name = ZINC08818343
REMARK  9 active torsions:
REMARK  status: ('A' for Active; 'I' for Inactive)
REMARK    1  A    between atoms: C_1  and  C_2
REMARK    2  A    between atoms: C_2  and  C_3
REMARK    3  A    between atoms: C_15  and  C_28
REMARK    4  A    between atoms: C_20  and  C_22
REMARK    5  A    between atoms: C_31  and  N_34
REMARK    6  A    between atoms: N_34  and  C_35
REMARK    7  A    between atoms: N_34  and  C_37
REMARK    8  A    between atoms: C_35  and  C_36
REMARK    9  A    between atoms: C_37  and  C_38
REMARK                            x       y       z     vdW  Elec       q    Type
REMARK                         _______ _______ _______ _____ _____    ______ ____
ROOT
ATOM      1  C   UNL     1       0.707  -0.490  -1.238  0.00  0.00    +0.220 C 
ATOM      2  O   UNL     1       1.150   0.309  -2.036  0.00  0.00    -0.275 OA
ATOM      3  N   UNL     1       0.847  -1.812  -1.460  0.00  0.00    -0.255 N 
ATOM      4  C   UNL     1       0.328  -2.721  -0.536  0.00  0.00    +0.058 A 
ATOM      5  C   UNL     1       0.828  -2.808   0.753  0.00  0.00    +0.025 A 
ATOM      6  C   UNL     1       0.311  -3.755   1.620  0.00  0.00    +0.002 A 
ATOM      7  C   UNL     1      -0.693  -4.611   1.205  0.00  0.00    +0.002 A 
ATOM      8  C   UNL     1      -1.206  -4.516  -0.077  0.00  0.00    +0.025 A 
ATOM      9  C   UNL     1      -0.704  -3.555  -0.938  0.00  0.00    +0.053 A 
ATOM     10  N   UNL     1      -1.246  -3.335  -2.199  0.00  0.00    -0.316 N 
ATOM     11  C   UNL     1      -0.575  -3.498  -3.368  0.00  0.00    +0.017 C 
ATOM     12  C   UNL     1      -1.327  -4.290  -4.425  0.00  0.00    +0.059 C 
ATOM     13  C   UNL     1      -0.961  -3.774  -5.816  0.00  0.00    +0.032 C 
ATOM     14  C   UNL     1       0.550  -3.953  -5.998  0.00  0.00    +0.088 C 
ATOM     15  C   UNL     1       1.256  -3.239  -4.885  0.00  0.00    +0.163 C 
ATOM     16  C   UNL     1       0.659  -3.031  -3.619  0.00  0.00    +0.040 C 
ATOM     17  C   UNL     1       1.526  -2.266  -2.655  0.00  0.00    +0.182 C 
ATOM     18  O   UNL     1       2.381  -2.822  -5.077  0.00  0.00    -0.292 OA
ATOM     19  H   UNL     1      -2.170  -3.045  -2.247  0.00  0.00    +0.152 HD
ENDROOT
BRANCH  13  20
ATOM     20  C   UNL     1      -1.701  -4.564  -6.865  0.00  0.00    -0.043 A 
ATOM     21  C   UNL     1      -1.517  -5.931  -6.957  0.00  0.00    +0.006 A 
ATOM     22  C   UNL     1      -2.195  -6.657  -7.919  0.00  0.00    +0.022 A 
ATOM     23  C   UNL     1      -3.057  -6.015  -8.788  0.00  0.00    +0.013 A 
ATOM     24  C   UNL     1      -3.242  -4.648  -8.695  0.00  0.00    +0.022 A 
ATOM     25  C   UNL     1      -2.567  -3.924  -7.731  0.00  0.00    +0.006 A 
BRANCH  23  26
ATOM     26  N   UNL     1      -3.743  -6.748  -9.761  0.00  0.00    -0.394 NA
ATOM     27  H   UNL     1      -3.491  -7.723  -9.687  0.00  0.00    +0.126 HD
BRANCH  26  28
ATOM     28  C   UNL     1      -5.190  -6.599  -9.558  0.00  0.00    +0.081 C 
ATOM     29  C   UNL     1      -5.939  -7.499 -10.543  0.00  0.00    +0.022 C 
ENDBRANCH  26  28
BRANCH  26  30
ATOM     30  C   UNL     1      -3.381  -6.250 -11.095  0.00  0.00    +0.081 C 
ATOM     31  C   UNL     1      -1.898  -6.519 -11.355  0.00  0.00    +0.022 C 
ENDBRANCH  26  30
ENDBRANCH  23  26
ENDBRANCH  13  20
BRANCH  17  32
ATOM     32  C   UNL     1       2.675  -3.150  -2.245  0.00  0.00    +0.130 A 
ATOM     33  C   UNL     1       3.899  -3.160  -2.804  0.00  0.00    +0.047 A 
ATOM     34  C   UNL     1       4.656  -4.136  -2.115  0.00  0.00    +0.041 A 
ATOM     35  C   UNL     1       3.850  -4.663  -1.176  0.00  0.00    +0.195 A 
ATOM     36  O   UNL     1       2.653  -4.059  -1.256  0.00  0.00    -0.466 OA
ENDBRANCH  17  32
BRANCH   1  38
ATOM     37  C   UNL     1      -0.019   1.526   0.010  0.00  0.00    +0.013 C 
ATOM     38  C   UNL     1       0.002  -0.004   0.002  0.00  0.00    +0.093 C 
ENDBRANCH   1  38
TORSDOF 6
