REMARK  Name = ZINC06546108
REMARK  5 active torsions:
REMARK  status: ('A' for Active; 'I' for Inactive)
REMARK    1  A    between atoms: C_1  and  C_2
REMARK    2  A    between atoms: C_5  and  C_23
REMARK    3  A    between atoms: C_6  and  N_8
REMARK    4  A    between atoms: C_9  and  S_22
REMARK    5  A    between atoms: C_10  and  C_20
REMARK                            x       y       z     vdW  Elec       q    Type
REMARK                         _______ _______ _______ _____ _____    ______ ____
ROOT
ATOM      1  N   UNL     1      -1.142   2.946   0.742  0.00  0.00    -0.268 N 
ATOM      2  C   UNL     1      -0.087   3.764   0.420  0.00  0.00    +0.090 C 
ATOM      3  C   UNL     1       1.117   3.153   0.034  0.00  0.00    +0.141 C 
ATOM      4  C   UNL     1       1.175   1.690   0.008  0.00  0.00    +0.258 C 
ATOM      5  O   UNL     1       2.250   1.121  -0.047  0.00  0.00    -0.269 OA
ATOM      6  N   UNL     1       0.032   0.977   0.044  0.00  0.00    -0.286 N 
ATOM      7  C   UNL     1      -1.268   1.653   0.051  0.00  0.00    +0.125 C 
ATOM      8  C   UNL     1      -1.719   1.893  -1.393  0.00  0.00    +0.051 C 
ATOM      9  C   UNL     1      -3.176   2.372  -1.372  0.00  0.00    +0.008 C 
ATOM     10  C   UNL     1      -4.058   1.216  -0.895  0.00  0.00    +0.027 C 
ATOM     11  C   UNL     1      -3.490   0.615   0.357  0.00  0.00    -0.027 C 
ATOM     12  C   UNL     1      -2.276   0.801   0.766  0.00  0.00    +0.014 C 
ATOM     13  H   UNL     1       0.070   0.008   0.063  0.00  0.00    +0.151 HD
ENDROOT
BRANCH   1  19
ATOM     14  C   UNL     1      -5.195   5.466   1.920  0.00  0.00    +0.044 C 
ATOM     15  C   UNL     1      -4.055   4.558   2.302  0.00  0.00    -0.049 A 
ATOM     16  C   UNL     1      -3.935   4.110   3.605  0.00  0.00    +0.004 A 
ATOM     17  C   UNL     1      -2.890   3.276   3.959  0.00  0.00    +0.005 A 
ATOM     18  C   UNL     1      -1.965   2.884   3.011  0.00  0.00    -0.029 A 
ATOM     19  C   UNL     1      -2.080   3.337   1.703  0.00  0.00    +0.040 A 
ATOM     20  C   UNL     1      -3.131   4.174   1.350  0.00  0.00    +0.027 A 
ATOM     21  C   UNL     1      -0.830   1.971   3.396  0.00  0.00    +0.045 C 
ENDBRANCH   1  19
BRANCH   3  22
ATOM     22  C   UNL     1       2.259   3.941  -0.324  0.00  0.00    +0.107 C 
ATOM     23  N   UNL     1       3.164   4.566  -0.608  0.00  0.00    -0.191 NA
ENDBRANCH   3  22
BRANCH   2  24
ATOM     24  S   UNL     1      -0.239   5.518   0.491  0.00  0.00    -0.126 S 
ATOM     25  H   UNL     1       1.059   5.892   0.088  0.00  0.00    +0.108 HD
ENDBRANCH   2  24
TORSDOF 3
