REMARK  Name = ZINC09329395
REMARK  4 active torsions:
REMARK  status: ('A' for Active; 'I' for Inactive)
REMARK    1  A    between atoms: C_1  and  C_2
REMARK    2  A    between atoms: C_2  and  C_18
REMARK    3  A    between atoms: C_9  and  N_10
REMARK    4  A    between atoms: N_11  and  N_15
REMARK                            x       y       z     vdW  Elec       q    Type
REMARK                         _______ _______ _______ _____ _____    ______ ____
ROOT
ATOM      1  C   UNL     1       4.581   6.878   0.233  0.00  0.00    +0.041 C 
ATOM      2  C   UNL     1       4.234   5.402   0.437  0.00  0.00    +0.068 C 
ATOM      3  C   UNL     1       2.785   5.156   0.007  0.00  0.00    +0.071 C 
ATOM      4  C   UNL     1       2.543   3.649  -0.002  0.00  0.00    -0.020 A 
ATOM      5  C   UNL     1       3.600   2.805  -0.016  0.00  0.00    +0.021 A 
ATOM      6  S   UNL     1       2.884   1.186  -0.019  0.00  0.00    -0.071 S 
ATOM      7  C   UNL     1       1.172   1.656  -0.000  0.00  0.00    +0.118 A 
ATOM      8  C   UNL     1       1.214   3.048   0.007  0.00  0.00    +0.051 A 
ATOM      9  C   UNL     1      -0.110   3.727   0.023  0.00  0.00    +0.129 A 
ATOM     10  N   UNL     1      -1.254   2.954   0.029  0.00  0.00    -0.202 N 
ATOM     11  C   UNL     1      -1.192   1.612   0.017  0.00  0.00    +0.368 A 
ATOM     12  O   UNL     1      -2.224   0.968   0.018  0.00  0.00    -0.243 OA
ATOM     13  N   UNL     1      -0.011   0.966   0.007  0.00  0.00    -0.184 NA
ATOM     14  C   UNL     1       5.045   3.193  -0.028  0.00  0.00    +0.203 C 
ATOM     15  O   UNL     1       5.123   4.594  -0.340  0.00  0.00    -0.368 OA
ATOM     16  C   UNL     1       4.391   5.044   1.917  0.00  0.00    +0.041 C 
ENDROOT
BRANCH   9  17
ATOM     17  N   UNL     1      -0.188   5.032   0.030  0.00  0.00    -0.343 N 
ATOM     18  H   UNL     1      -1.171   5.524   0.041  0.00  0.00    +0.144 HD
ATOM     19  H   UNL     1       0.731   5.638   0.024  0.00  0.00    +0.144 HD
ENDBRANCH   9  17
BRANCH  10  20
ATOM     20  N   UNL     1      -2.475   3.568   0.043  0.00  0.00    -0.293 N 
ATOM     21  H   UNL     1      -3.394   2.963   0.048  0.00  0.00    +0.163 HD
ATOM     22  H   UNL     1      -2.538   4.666   0.049  0.00  0.00    +0.163 HD
ENDBRANCH  10  20
TORSDOF 2
