REMARK  Name = ZINC02792399
REMARK  10 active torsions:
REMARK  status: ('A' for Active; 'I' for Inactive)
REMARK    1  A    between atoms: C_1  and  C_2
REMARK    2  A    between atoms: C_2  and  C_4
REMARK    3  A    between atoms: C_2  and  N_10
REMARK    4  A    between atoms: C_11  and  C_16
REMARK    5  A    between atoms: C_16  and  S_17
REMARK    6  A    between atoms: S_17  and  C_18
REMARK    7  A    between atoms: C_21  and  C_30
REMARK    8  A    between atoms: N_22  and  C_23
REMARK    9  A    between atoms: C_23  and  C_24
REMARK   10  A    between atoms: N_33  and  C_35
REMARK                            x       y       z     vdW  Elec       q    Type
REMARK                         _______ _______ _______ _____ _____    ______ ____
ROOT
ATOM      1  C   UNL     1      -4.829   4.179  -1.319  0.00  0.00    +0.192 A 
ATOM      2  N   UNL     1      -5.549   4.968  -0.553  0.00  0.00    -0.122 NA
ATOM      3  N   UNL     1      -4.782   5.682   0.191  0.00  0.00    -0.127 NA
ATOM      4  C   UNL     1      -3.526   5.389  -0.049  0.00  0.00    +0.185 A 
ATOM      5  N   UNL     1      -3.516   4.415  -1.021  0.00  0.00    -0.298 N 
ENDROOT
BRANCH   4   6
ATOM      6  C   UNL     1      -2.343   5.993   0.601  0.00  0.00    +0.130 A 
ATOM      7  C   UNL     1      -2.362   6.992   1.597  0.00  0.00    +0.052 A 
ATOM      8  C   UNL     1      -1.083   7.271   1.928  0.00  0.00    +0.108 A 
ATOM      9  N   UNL     1      -0.277   6.487   1.180  0.00  0.00    -0.274 N 
ATOM     10  N   UNL     1      -1.083   5.690   0.358  0.00  0.00    -0.168 NA
ATOM     11  C   UNL     1       1.187   6.470   1.224  0.00  0.00    +0.172 C 
ENDBRANCH   4   6
BRANCH   1  12
ATOM     12  S   UNL     1      -5.441   3.030  -2.505  0.00  0.00    -0.078 S 
BRANCH  12  13
ATOM     13  C   UNL     1      -7.220   3.299  -2.315  0.00  0.00    +0.153 C 
BRANCH  13  15
ATOM     14  N   UNL     1      -8.402   1.124  -2.975  0.00  0.00    -0.297 N 
ATOM     15  C   UNL     1      -7.969   2.396  -3.260  0.00  0.00    +0.145 A 
ATOM     16  N   UNL     1      -8.314   2.693  -4.472  0.00  0.00    -0.133 NA
ATOM     17  N   UNL     1      -8.987   1.590  -5.016  0.00  0.00    -0.122 NA
ATOM     18  C   UNL     1      -9.029   0.635  -4.064  0.00  0.00    +0.203 A 
ATOM     19  S   UNL     1      -9.746  -0.913  -4.212  0.00  0.00    -0.009 SA
BRANCH  14  21
ATOM     20  C   UNL     1      -9.023  -0.880  -1.718  0.00  0.00    +0.036 C 
ATOM     21  C   UNL     1      -8.215   0.419  -1.705  0.00  0.00    +0.118 C 
BRANCH  21  22
ATOM     22  C   UNL     1      -6.754   0.100  -1.518  0.00  0.00    -0.025 A 
ATOM     23  C   UNL     1      -6.070  -0.604  -2.493  0.00  0.00    +0.005 A 
ATOM     24  C   UNL     1      -4.729  -0.893  -2.324  0.00  0.00    +0.000 A 
ATOM     25  C   UNL     1      -4.074  -0.487  -1.177  0.00  0.00    +0.000 A 
ATOM     26  C   UNL     1      -4.758   0.212  -0.200  0.00  0.00    +0.000 A 
ATOM     27  C   UNL     1      -6.098   0.505  -0.371  0.00  0.00    +0.005 A 
ENDBRANCH  21  22
ENDBRANCH  14  21
ENDBRANCH  13  15
ENDBRANCH  12  13
ENDBRANCH   1  12
BRANCH   5  28
ATOM     28  C   UNL     1      -2.343   3.770  -1.616  0.00  0.00    +0.157 C 
BRANCH  28  29
ATOM     29  C   UNL     1      -1.977   2.527  -0.802  0.00  0.00    +0.138 C 
ATOM     30  C   UNL     1      -0.821   1.761  -1.482  0.00  0.00    +0.035 C 
ATOM     31  C   UNL     1       0.032   1.244  -0.302  0.00  0.00    +0.031 C 
ATOM     32  C   UNL     1      -0.707   1.759   0.953  0.00  0.00    +0.160 C 
ATOM     33  O   UNL     1      -1.459   2.905   0.491  0.00  0.00    -0.375 OA
ENDBRANCH  28  29
ENDBRANCH   5  28
TORSDOF 8
