REMARK  Name = ZINC12486473
REMARK  9 active torsions:
REMARK  status: ('A' for Active; 'I' for Inactive)
REMARK    1  A    between atoms: C_4  and  C_7
REMARK    2  A    between atoms: C_7  and  C_9
REMARK    3  A    between atoms: C_7  and  N_19
REMARK    4  A    between atoms: N_11  and  C_12
REMARK    5  A    between atoms: C_12  and  C_13
REMARK    6  A    between atoms: N_19  and  C_20
REMARK    7  A    between atoms: C_27  and  C_29
REMARK    8  A    between atoms: C_29  and  N_30
REMARK    9  A    between atoms: C_31  and  C_33
REMARK                            x       y       z     vdW  Elec       q    Type
REMARK                         _______ _______ _______ _____ _____    ______ ____
ROOT
ATOM      1  N   UNL     1      -3.842   2.884   6.691  0.00  0.00    -0.254 N 
ATOM      2  C   UNL     1      -3.396   4.156   6.718  0.00  0.00    +0.238 C 
ATOM      3  O   UNL     1      -2.700   4.573   5.816  0.00  0.00    -0.274 OA
ENDROOT
BRANCH   1   4
ATOM      4  C   UNL     1      -4.559   2.371   7.779  0.00  0.00    +0.038 A 
ATOM      5  C   UNL     1      -5.839   2.836   8.049  0.00  0.00    +0.025 A 
ATOM      6  C   UNL     1      -6.546   2.325   9.120  0.00  0.00    +0.022 A 
ATOM      7  C   UNL     1      -5.976   1.357   9.929  0.00  0.00    +0.041 A 
ATOM      8  C   UNL     1      -4.698   0.896   9.664  0.00  0.00    +0.022 A 
ATOM      9  C   UNL     1      -3.989   1.401   8.592  0.00  0.00    +0.025 A 
ATOM     10 CL   UNL     1      -6.865   0.722  11.278  0.00  0.00    -0.084 Cl
ENDBRANCH   1   4
BRANCH   1  11
ATOM     11  C   UNL     1      -3.577   2.039   5.524  0.00  0.00    +0.197 C 
BRANCH  11  15
ATOM     12  C   UNL     1      -4.945  -1.932   6.303  0.00  0.00    +0.000 A 
ATOM     13  C   UNL     1      -3.622  -1.710   5.969  0.00  0.00    +0.000 A 
ATOM     14  C   UNL     1      -3.179  -0.425   5.717  0.00  0.00    +0.006 A 
ATOM     15  C   UNL     1      -4.060   0.638   5.799  0.00  0.00    -0.018 A 
ATOM     16  C   UNL     1      -5.381   0.416   6.137  0.00  0.00    +0.006 A 
ATOM     17  C   UNL     1      -5.825  -0.869   6.384  0.00  0.00    +0.000 A 
ENDBRANCH  11  15
BRANCH  11  18
ATOM     18  C   UNL     1      -4.303   2.595   4.326  0.00  0.00    +0.239 C 
ATOM     19  O   UNL     1      -4.976   3.598   4.436  0.00  0.00    -0.273 OA
ATOM     20  N   UNL     1      -4.205   1.977   3.132  0.00  0.00    -0.311 N 
ATOM     21  H   UNL     1      -3.667   1.175   3.044  0.00  0.00    +0.149 HD
BRANCH  20  22
ATOM     22  C   UNL     1      -4.910   2.518   1.968  0.00  0.00    +0.135 C 
BRANCH  22  23
ATOM     23  C   UNL     1      -4.633   1.635   0.749  0.00  0.00    +0.135 C 
ATOM     24  C   UNL     1      -5.369   2.187  -0.492  0.00  0.00    +0.035 C 
ATOM     25  C   UNL     1      -4.383   1.935  -1.655  0.00  0.00    +0.031 C 
ATOM     26  C   UNL     1      -3.169   1.260  -0.979  0.00  0.00    +0.160 C 
ATOM     27  O   UNL     1      -3.230   1.684   0.401  0.00  0.00    -0.375 OA
ENDBRANCH  22  23
ENDBRANCH  20  22
ENDBRANCH  11  18
ENDBRANCH   1  11
BRANCH   2  28
ATOM     28  C   UNL     1      -3.761   5.058   7.868  0.00  0.00    +0.201 C 
BRANCH  28  29
ATOM     29  N   UNL     1      -3.239   6.404   7.617  0.00  0.00    -0.300 N 
ATOM     30  C   UNL     1      -3.446   7.386   8.518  0.00  0.00    +0.280 C 
ATOM     31  O   UNL     1      -4.066   7.154   9.539  0.00  0.00    -0.267 OA
ATOM     32  H   UNL     1      -2.745   6.589   6.803  0.00  0.00    +0.150 HD
BRANCH  30  33
ATOM     33  C   UNL     1      -2.923   8.733   8.266  0.00  0.00    +0.189 A 
ATOM     34  C   UNL     1      -3.061   9.813   9.090  0.00  0.00    +0.054 A 
ATOM     35  C   UNL     1      -2.410  10.886   8.461  0.00  0.00    +0.042 A 
ATOM     36  C   UNL     1      -1.911  10.419   7.295  0.00  0.00    +0.196 A 
ATOM     37  O   UNL     1      -2.218   9.120   7.184  0.00  0.00    -0.458 OA
ENDBRANCH  30  33
ENDBRANCH  28  29
ENDBRANCH   2  28
TORSDOF 9
