REMARK  Name = ZINC43736409
REMARK  13 active torsions:
REMARK  status: ('A' for Active; 'I' for Inactive)
REMARK    1  A    between atoms: C_1  and  C_2
REMARK    2  A    between atoms: C_4  and  C_43
REMARK    3  A    between atoms: C_14  and  O_28
REMARK    4  A    between atoms: C_15  and  C_19
REMARK    5  A    between atoms: C_19  and  C_20
REMARK    6  A    between atoms: C_20  and  C_22
REMARK    7  A    between atoms: C_20  and  C_23
REMARK    8  A    between atoms: C_23  and  N_24
REMARK    9  A    between atoms: C_25  and  C_27
REMARK   10  A    between atoms: C_32  and  C_42
REMARK   11  A    between atoms: C_35  and  O_38
REMARK   12  A    between atoms: O_38  and  C_39
REMARK   13  A    between atoms: C_39  and  C_41
REMARK                            x       y       z     vdW  Elec       q    Type
REMARK                         _______ _______ _______ _____ _____    ______ ____
ROOT
ATOM      1  C   UNL     1      -1.088   1.560  -0.668  0.00  0.00    +0.047 C 
ATOM      2  C   UNL     1      -0.602   0.134  -0.668  0.00  0.00    -0.005 C 
ATOM      3  C   UNL     1      -1.364  -0.898  -0.384  0.00  0.00    -0.025 C 
ATOM      4  C   UNL     1      -2.659  -1.435   0.195  0.00  0.00    -0.005 C 
ATOM      5  C   UNL     1      -3.548  -0.343   0.717  0.00  0.00    +0.011 C 
ATOM      6  C   UNL     1      -3.085   0.180   2.071  0.00  0.00    +0.005 C 
ATOM      7  C   UNL     1      -3.061  -0.987   3.065  0.00  0.00    +0.003 C 
ATOM      8  C   UNL     1      -2.020  -2.003   2.612  0.00  0.00    +0.001 C 
ATOM      9  C   UNL     1      -2.212  -2.490   1.199  0.00  0.00    +0.006 C 
ATOM     10  C   UNL     1      -0.836  -2.997   0.677  0.00  0.00    +0.044 C 
ATOM     11  C   UNL     1      -0.582  -2.192  -0.600  0.00  0.00    +0.098 C 
ATOM     12  C   UNL     1       0.865  -1.761  -0.802  0.00  0.00    +0.096 C 
ATOM     13  C   UNL     1       0.769  -0.257  -0.991  0.00  0.00    +0.165 C 
ATOM     14  O   UNL     1       1.664   0.483  -1.343  0.00  0.00    -0.292 OA
ATOM     15  C   UNL     1      -2.070  -3.206   3.567  0.00  0.00    +0.031 C 
ATOM     16  C   UNL     1      -1.937  -2.734   4.984  0.00  0.00    -0.027 C 
ATOM     17  C   UNL     1      -2.206  -1.526   5.365  0.00  0.00    -0.064 C 
ATOM     18  C   UNL     1      -2.708  -0.442   4.444  0.00  0.00    -0.008 C 
ATOM     19  C   UNL     1      -1.648   0.653   4.344  0.00  0.00    +0.015 C 
ATOM     20  C   UNL     1      -0.824   0.702   5.630  0.00  0.00    +0.046 C 
ATOM     21  C   UNL     1      -1.683   0.364   6.847  0.00  0.00    +0.180 C 
ATOM     22  C   UNL     1      -2.011  -1.135   6.821  0.00  0.00    +0.075 C 
ATOM     23  C   UNL     1      -3.967   0.179   5.053  0.00  0.00    +0.016 C 
ATOM     24  C   UNL     1      -3.416  -2.144  -0.929  0.00  0.00    +0.016 C 
ENDROOT
BRANCH  11  25
ATOM     25  O   UNL     1      -1.073  -2.893  -1.744  0.00  0.00    -0.384 OA
ATOM     26  H   UNL     1      -0.609  -3.722  -1.926  0.00  0.00    +0.211 HD
ENDBRANCH  11  25
BRANCH  12  27
ATOM     27  C   UNL     1       1.705  -2.103   0.430  0.00  0.00    +0.019 C 
BRANCH  27  28
ATOM     28  C   UNL     1       3.176  -1.789   0.149  0.00  0.00    +0.004 C 
ATOM     29  C   UNL     1       3.994  -1.994   1.425  0.00  0.00    +0.009 C 
BRANCH  28  30
ATOM     30  C   UNL     1       3.696  -2.722  -0.946  0.00  0.00    +0.107 C 
BRANCH  30  31
ATOM     31  N   UNL     1       5.066  -2.344  -1.300  0.00  0.00    -0.315 N 
ATOM     32  C   UNL     1       5.731  -3.031  -2.249  0.00  0.00    +0.210 C 
ATOM     33  O   UNL     1       5.196  -3.963  -2.811  0.00  0.00    -0.276 OA
ATOM     34  C   UNL     1       7.141  -2.642  -2.613  0.00  0.00    +0.109 C 
ATOM     35  H   UNL     1       5.495  -1.599  -0.851  0.00  0.00    +0.149 HD
ENDBRANCH  30  31
ENDBRANCH  28  30
ENDBRANCH  27  28
ENDBRANCH  12  27
BRANCH  21  36
ATOM     36  O   UNL     1      -0.957   0.667   8.041  0.00  0.00    -0.461 OA
BRANCH  36  37
ATOM     37  C   UNL     1      -1.675   1.030   9.115  0.00  0.00    +0.304 C 
ATOM     38  O   UNL     1      -2.879   1.090   9.045  0.00  0.00    -0.251 OA
ATOM     39  C   UNL     1      -0.978   1.364  10.409  0.00  0.00    +0.136 C 
ENDBRANCH  36  37
ENDBRANCH  21  36
TORSDOF 7
