REMARK  Name = ZINC19225205
REMARK  6 active torsions:
REMARK  status: ('A' for Active; 'I' for Inactive)
REMARK    1  A    between atoms: C_1  and  C_2
REMARK    2  A    between atoms: C_3  and  C_7
REMARK    3  A    between atoms: N_12  and  C_13
REMARK    4  A    between atoms: C_13  and  C_14
REMARK    5  A    between atoms: C_15  and  C_24
REMARK    6  A    between atoms: C_17  and  C_19
REMARK                            x       y       z     vdW  Elec       q    Type
REMARK                         _______ _______ _______ _____ _____    ______ ____
ROOT
ATOM      1  C   UNL     1       1.619  -3.239  -0.031  0.00  0.00    +0.144 C 
ENDROOT
BRANCH   1   2
ATOM      2  C   UNL     1       0.700  -2.045  -0.015  0.00  0.00    +0.097 A 
ATOM      3  C   UNL     1      -0.643  -2.081  -0.003  0.00  0.00    +0.127 A 
ATOM      4  O   UNL     1      -1.078  -0.804   0.013  0.00  0.00    -0.440 OA
ATOM      5  C   UNL     1       0.002  -0.004   0.002  0.00  0.00    +0.231 A 
ATOM      6  N   UNL     1       1.078  -0.756  -0.012  0.00  0.00    -0.212 NA
ATOM      7  C   UNL     1      -1.504  -3.318  -0.002  0.00  0.00    +0.088 C 
BRANCH   5   8
ATOM      8  C   UNL     1      -0.018   1.473   0.010  0.00  0.00    +0.074 A 
ATOM      9  C   UNL     1      -1.201   2.344   0.020  0.00  0.00    +0.054 A 
ATOM     10  C   UNL     1      -0.733   3.603   0.028  0.00  0.00    +0.195 A 
ATOM     11  O   UNL     1       0.608   3.573   0.015  0.00  0.00    -0.470 OA
ATOM     12  C   UNL     1       1.056   2.310   0.004  0.00  0.00    +0.208 A 
ENDBRANCH   5   8
ENDBRANCH   1   2
BRANCH   1  17
ATOM     13  C   UNL     1       2.634  -4.943   1.382  0.00  0.00    +0.111 C 
ATOM     14  C   UNL     1       3.352  -4.965   2.749  0.00  0.00    +0.026 C 
ATOM     15  C   UNL     1       3.521  -3.482   3.136  0.00  0.00    +0.017 C 
ATOM     16  C   UNL     1       2.892  -2.688   1.971  0.00  0.00    +0.085 C 
ATOM     17  N   UNL     1       1.931  -3.635   1.349  0.00  0.00    -0.288 NA
BRANCH  13  20
ATOM     18  C   UNL     1       2.934  -7.475  -0.469  0.00  0.00    +0.071 C 
ATOM     19  C   UNL     1       1.778  -7.207   0.460  0.00  0.00    +0.106 A 
ATOM     20  C   UNL     1       1.644  -6.075   1.288  0.00  0.00    +0.124 A 
ATOM     21  N   UNL     1       0.530  -6.156   1.952  0.00  0.00    -0.052 NA
ATOM     22  O   UNL     1      -0.102  -7.369   1.575  0.00  0.00    -0.242 OA
ATOM     23  N   UNL     1       0.751  -7.987   0.625  0.00  0.00    -0.054 NA
ENDBRANCH  13  20
ENDBRANCH   1  17
TORSDOF 4
