REMARK  Name = ZINC32217618
REMARK  9 active torsions:
REMARK  status: ('A' for Active; 'I' for Inactive)
REMARK    1  A    between atoms: C_4  and  C_7
REMARK    2  A    between atoms: C_7  and  C_9
REMARK    3  A    between atoms: C_7  and  N_31
REMARK    4  A    between atoms: C_9  and  N_10
REMARK    5  A    between atoms: C_11  and  C_13
REMARK    6  A    between atoms: C_13  and  C_14
REMARK    7  A    between atoms: C_14  and  S_15
REMARK    8  A    between atoms: S_15  and  C_16
REMARK    9  A    between atoms: C_16  and  C_17
REMARK                            x       y       z     vdW  Elec       q    Type
REMARK                         _______ _______ _______ _____ _____    ______ ____
ROOT
ATOM      1  N   UNL     1       5.278  -2.024  -1.392  0.00  0.00    -0.317 N 
ATOM      2  C   UNL     1       5.787  -2.554  -2.522  0.00  0.00    +0.214 C 
ATOM      3  O   UNL     1       5.185  -2.443  -3.568  0.00  0.00    -0.276 OA
ATOM      4  H   UNL     1       5.760  -2.112  -0.555  0.00  0.00    +0.149 HD
ENDROOT
BRANCH   1   5
ATOM      5  C   UNL     1       3.997  -1.314  -1.428  0.00  0.00    +0.093 C 
BRANCH   5   6
ATOM      6  C   UNL     1       3.715  -0.701  -0.055  0.00  0.00    -0.020 C 
BRANCH   6  10
ATOM      7  C   UNL     1       6.625   2.312   0.781  0.00  0.00    +0.000 A 
ATOM      8  C   UNL     1       6.756   1.052   1.334  0.00  0.00    +0.000 A 
ATOM      9  C   UNL     1       5.814   0.077   1.064  0.00  0.00    +0.002 A 
ATOM     10  C   UNL     1       4.741   0.362   0.240  0.00  0.00    -0.059 A 
ATOM     11  C   UNL     1       4.610   1.623  -0.312  0.00  0.00    +0.002 A 
ATOM     12  C   UNL     1       5.552   2.597  -0.043  0.00  0.00    +0.000 A 
ENDBRANCH   6  10
BRANCH   6  13
ATOM     13  N   UNL     1       2.374  -0.101  -0.053  0.00  0.00    +0.385 N 
ATOM     14  C   UNL     1       1.344  -1.149  -0.267  0.00  0.00    -0.078 C 
ATOM     15  C   UNL     1       0.058  -0.505   0.310  0.00  0.00    -0.020 C 
ATOM     16  C   UNL     1       0.581   0.268   1.542  0.00  0.00    -0.020 C 
ATOM     17  C   UNL     1       2.081   0.489   1.271  0.00  0.00    -0.078 C 
ATOM     18  H   UNL     1       2.307   0.605  -0.771  0.00  0.00    -0.081 HD
ENDBRANCH   6  13
ENDBRANCH   5   6
ENDBRANCH   1   5
BRANCH   2  19
ATOM     19  C   UNL     1       7.105  -3.284  -2.484  0.00  0.00    +0.106 C 
BRANCH  19  20
ATOM     20  C   UNL     1       7.452  -3.783  -3.888  0.00  0.00    +0.079 C 
BRANCH  20  21
ATOM     21  S   UNL     1       9.039  -4.661  -3.843  0.00  0.00    -0.153 S 
BRANCH  21  22
ATOM     22  C   UNL     1       9.301  -5.181  -5.561  0.00  0.00    +0.143 C 
BRANCH  22  23
ATOM     23  C   UNL     1      10.603  -5.933  -5.665  0.00  0.00    +0.121 A 
ATOM     24  N   UNL     1      11.002  -6.411  -6.872  0.00  0.00    -0.310 N 
ATOM     25  H   UNL     1      10.443  -6.261  -7.651  0.00  0.00    +0.170 HD
ATOM     26  C   UNL     1      12.158  -7.088  -7.010  0.00  0.00    +0.260 A 
ATOM     27  O   UNL     1      12.503  -7.512  -8.099  0.00  0.00    -0.267 OA
ATOM     28  C   UNL     1      12.974  -7.301  -5.852  0.00  0.00    +0.075 A 
ATOM     29  C   UNL     1      14.262  -8.005  -5.767  0.00  0.00    -0.023 A 
ATOM     30  C   UNL     1      14.838  -8.074  -4.555  0.00  0.00    -0.004 A 
ATOM     31  S   UNL     1      13.723  -7.217  -3.467  0.00  0.00    -0.073 S 
ATOM     32  C   UNL     1      12.482  -6.771  -4.652  0.00  0.00    +0.116 A 
ATOM     33  N   UNL     1      11.330  -6.107  -4.594  0.00  0.00    -0.226 NA
ATOM     34  C   UNL     1      16.145  -8.819  -4.588  0.00  0.00    +0.043 C 
ATOM     35  C   UNL     1      16.116  -9.594  -5.925  0.00  0.00    +0.010 C 
ATOM     36  C   UNL     1      15.169  -8.721  -6.772  0.00  0.00    +0.037 C 
ENDBRANCH  22  23
ENDBRANCH  21  22
ENDBRANCH  20  21
ENDBRANCH  19  20
ENDBRANCH   2  19
TORSDOF 9
