REMARK  Name = ZINC01656288
REMARK  3 active torsions:
REMARK  status: ('A' for Active; 'I' for Inactive)
REMARK    1  A    between atoms: C_1  and  C_2
REMARK    2  A    between atoms: C_4  and  C_13
REMARK    3  A    between atoms: C_7  and  C_9
REMARK                            x       y       z     vdW  Elec       q    Type
REMARK                         _______ _______ _______ _____ _____    ______ ____
ROOT
ATOM      1  C   UNL     1      -2.354   4.338   3.018  0.00  0.00    +0.040 C 
ATOM      2  C   UNL     1      -0.880   4.024   2.754  0.00  0.00    +0.147 C 
ATOM      3  C   UNL     1      -0.464   2.737   3.494  0.00  0.00    +0.147 C 
ATOM      4  O   UNL     1      -0.056   1.825   2.454  0.00  0.00    -0.342 OA
ATOM      5  C   UNL     1      -0.739   2.292   1.271  0.00  0.00    +0.302 C 
ATOM      6  O   UNL     1      -0.672   3.732   1.356  0.00  0.00    -0.342 OA
ATOM      7  C   UNL     1       0.704   3.022   4.441  0.00  0.00    +0.040 C 
ENDROOT
BRANCH   5   8
ATOM      8  C   UNL     1      -0.022   1.799   0.012  0.00  0.00    +0.241 C 
ATOM      9 CL   UNL     1       0.002  -0.004   0.002  0.00  0.00    -0.078 Cl
ATOM     10 CL   UNL     1       1.669   2.423  -0.001  0.00  0.00    -0.078 Cl
ATOM     11 CL   UNL     1      -0.894   2.396  -1.449  0.00  0.00    -0.078 Cl
ENDBRANCH   5   8
TORSDOF 1
