REMARK  Name = ZINC02233669
REMARK  7 active torsions:
REMARK  status: ('A' for Active; 'I' for Inactive)
REMARK    1  A    between atoms: C_1  and  C_2
REMARK    2  A    between atoms: C_5  and  S_8
REMARK    3  A    between atoms: S_8  and  C_11
REMARK    4  A    between atoms: N_22  and  C_25
REMARK    5  A    between atoms: C_23  and  N_24
REMARK    6  A    between atoms: C_28  and  O_32
REMARK    7  A    between atoms: O_32  and  C_33
REMARK                            x       y       z     vdW  Elec       q    Type
REMARK                         _______ _______ _______ _____ _____    ______ ____
ROOT
ATOM      1  C   UNL     1      -0.017   1.411   0.010  0.00  0.00    +0.160 A 
ATOM      2  C   UNL     1       0.002  -0.004   0.002  0.00  0.00    +0.136 A 
ATOM      3  C   UNL     1       1.419  -0.388  -0.014  0.00  0.00    +0.168 A 
ATOM      4  N   UNL     1       1.749  -1.660  -0.022  0.00  0.00    -0.225 NA
ATOM      5  C   UNL     1       0.792  -2.597  -0.018  0.00  0.00    +0.092 A 
ATOM      6  C   UNL     1       1.137  -3.961  -0.029  0.00  0.00    +0.030 A 
ATOM      7  C   UNL     1       0.159  -4.907  -0.023  0.00  0.00    +0.002 A 
ATOM      8  C   UNL     1      -1.188  -4.546  -0.009  0.00  0.00    +0.002 A 
ATOM      9  C   UNL     1      -1.560  -3.238   0.001  0.00  0.00    +0.030 A 
ATOM     10  C   UNL     1      -0.577  -2.230  -0.004  0.00  0.00    +0.090 A 
ATOM     11  N   UNL     1      -0.933  -0.940   0.006  0.00  0.00    -0.240 NA
ATOM     12  N   UNL     1       2.139   0.790  -0.014  0.00  0.00    -0.279 N 
ATOM     13  C   UNL     1       1.264   1.849  -0.000  0.00  0.00    +0.130 A 
ENDROOT
BRANCH  12  14
ATOM     14  C   UNL     1       3.538   0.890  -0.028  0.00  0.00    +0.051 A 
ATOM     15  C   UNL     1       4.255   0.438  -1.127  0.00  0.00    +0.030 A 
ATOM     16  C   UNL     1       5.633   0.537  -1.141  0.00  0.00    +0.049 A 
ATOM     17  C   UNL     1       6.300   1.087  -0.057  0.00  0.00    +0.138 A 
ATOM     18  C   UNL     1       5.584   1.538   1.043  0.00  0.00    +0.084 A 
ATOM     19  C   UNL     1       4.205   1.445   1.055  0.00  0.00    +0.050 A 
ATOM     20 CL   UNL     1       6.419   2.226   2.401  0.00  0.00    -0.080 Cl
BRANCH  17  21
ATOM     21  O   UNL     1       7.657   1.183  -0.071  0.00  0.00    -0.494 OA
ATOM     22  C   UNL     1       8.329   0.699  -1.234  0.00  0.00    +0.277 C 
ENDBRANCH  17  21
ENDBRANCH  12  14
BRANCH   1  23
ATOM     23  S   UNL     1      -1.457   2.426   0.022  0.00  0.00    +0.030 S 
ATOM     24  O   UNL     1      -1.075   3.681  -0.523  0.00  0.00    -0.164 OA
ATOM     25  O   UNL     1      -2.510   1.645  -0.527  0.00  0.00    -0.164 OA
BRANCH  23  30
ATOM     26  C   UNL     1      -2.887   3.422   5.799  0.00  0.00    +0.044 C 
ATOM     27  C   UNL     1      -2.530   3.174   4.356  0.00  0.00    -0.050 A 
ATOM     28  C   UNL     1      -1.677   4.038   3.696  0.00  0.00    +0.005 A 
ATOM     29  C   UNL     1      -1.349   3.810   2.373  0.00  0.00    +0.027 A 
ATOM     30  C   UNL     1      -1.875   2.717   1.709  0.00  0.00    +0.094 A 
ATOM     31  C   UNL     1      -2.733   1.856   2.368  0.00  0.00    +0.027 A 
ATOM     32  C   UNL     1      -3.057   2.082   3.692  0.00  0.00    +0.005 A 
ENDBRANCH  23  30
ENDBRANCH   1  23
BRANCH  13  33
ATOM     33  N   UNL     1       1.640   3.181   0.003  0.00  0.00    -0.343 N 
ATOM     34  H   UNL     1       0.964   3.876   0.013  0.00  0.00    +0.144 HD
ATOM     35  H   UNL     1       2.580   3.419  -0.005  0.00  0.00    +0.144 HD
ENDBRANCH  13  33
TORSDOF 5
