REMARK  Name = ZINC09985047
REMARK  8 active torsions:
REMARK  status: ('A' for Active; 'I' for Inactive)
REMARK    1  A    between atoms: C_1  and  N_2
REMARK    2  A    between atoms: C_3  and  C_25
REMARK    3  A    between atoms: C_6  and  S_7
REMARK    4  A    between atoms: S_7  and  C_8
REMARK    5  A    between atoms: C_8  and  C_9
REMARK    6  A    between atoms: N_11  and  C_12
REMARK    7  A    between atoms: C_12  and  C_13
REMARK    8  A    between atoms: C_16  and  C_18
REMARK                            x       y       z     vdW  Elec       q    Type
REMARK                         _______ _______ _______ _____ _____    ______ ____
ROOT
ATOM      1  C   UNL     1       4.685   0.785  -3.086  0.00  0.00    +0.173 C 
ENDROOT
BRANCH   1   2
ATOM      2  C   UNL     1       4.218   0.925  -1.660  0.00  0.00    +0.224 C 
ATOM      3  O   UNL     1       4.980   0.689  -0.746  0.00  0.00    -0.275 OA
ATOM      4  N   UNL     1       2.954   1.313  -1.400  0.00  0.00    -0.308 N 
ATOM      5  H   UNL     1       2.345   1.502  -2.131  0.00  0.00    +0.149 HD
BRANCH   4   6
ATOM      6  C   UNL     1       2.500   1.449  -0.014  0.00  0.00    +0.178 C 
BRANCH   6   7
ATOM      7  C   UNL     1       1.060   1.892   0.002  0.00  0.00    +0.123 A 
ATOM      8  C   UNL     1      -0.013   1.076   0.008  0.00  0.00    +0.047 A 
ATOM      9  C   UNL     1      -1.157   1.898   0.017  0.00  0.00    +0.050 A 
ATOM     10  C   UNL     1      -0.715   3.184   0.025  0.00  0.00    +0.135 A 
ATOM     11  O   UNL     1       0.631   3.165   0.013  0.00  0.00    -0.458 OA
BRANCH  10  12
ATOM     12  C   UNL     1      -1.565   4.393   0.039  0.00  0.00    +0.017 A 
ATOM     13  C   UNL     1      -2.956   4.272   0.045  0.00  0.00    +0.013 A 
ATOM     14  C   UNL     1      -3.743   5.404   0.063  0.00  0.00    +0.021 A 
ATOM     15  C   UNL     1      -3.158   6.659   0.065  0.00  0.00    +0.041 A 
ATOM     16  C   UNL     1      -1.779   6.785   0.053  0.00  0.00    +0.021 A 
ATOM     17  C   UNL     1      -0.980   5.661   0.041  0.00  0.00    +0.013 A 
ATOM     18 CL   UNL     1      -4.156   8.079   0.080  0.00  0.00    -0.084 Cl
ENDBRANCH  10  12
ENDBRANCH   6   7
ENDBRANCH   4   6
ENDBRANCH   1   2
BRANCH   1  19
ATOM     19  S   UNL     1       6.415   0.253  -3.105  0.00  0.00    -0.077 S 
BRANCH  19  25
ATOM     20  C   UNL     1       9.115  -0.571  -4.827  0.00  0.00    +0.153 C 
ATOM     21  N   UNL     1       7.854  -0.183  -5.464  0.00  0.00    -0.306 N 
ATOM     22  C   UNL     1       7.597  -0.102  -6.805  0.00  0.00    +0.178 A 
ATOM     23  N   UNL     1       6.358   0.278  -6.940  0.00  0.00    -0.130 NA
ATOM     24  N   UNL     1       5.817   0.437  -5.785  0.00  0.00    -0.122 NA
ATOM     25  C   UNL     1       6.692   0.172  -4.843  0.00  0.00    +0.192 A 
BRANCH  22  26
ATOM     26  C   UNL     1       8.567  -0.398  -7.920  0.00  0.00    +0.278 C 
ATOM     27  C   UNL     1       9.034   0.915  -8.562  0.00  0.00    +0.281 C 
ATOM     28  O   UNL     1       9.942   0.598  -9.623  0.00  0.00    -0.484 OA
ATOM     29  C   UNL     1       9.563  -0.394 -10.475  0.00  0.00    +0.162 A 
ATOM     30  C   UNL     1      10.193  -0.511 -11.705  0.00  0.00    +0.049 A 
ATOM     31  C   UNL     1       9.822  -1.515 -12.580  0.00  0.00    +0.004 A 
ATOM     32  C   UNL     1       8.822  -2.404 -12.232  0.00  0.00    +0.004 A 
ATOM     33  C   UNL     1       8.190  -2.292 -11.008  0.00  0.00    +0.049 A 
ATOM     34  C   UNL     1       8.557  -1.286 -10.126  0.00  0.00    +0.163 A 
ATOM     35  O   UNL     1       7.921  -1.185  -8.927  0.00  0.00    -0.474 OA
ENDBRANCH  22  26
ENDBRANCH  19  25
ENDBRANCH   1  19
TORSDOF 7
