REMARK  Name = ZINC20498270
REMARK  6 active torsions:
REMARK  status: ('A' for Active; 'I' for Inactive)
REMARK    1  A    between atoms: C_4  and  C_7
REMARK    2  A    between atoms: C_8  and  C_9
REMARK    3  A    between atoms: N_14  and  C_17
REMARK    4  A    between atoms: C_22  and  N_23
REMARK    5  A    between atoms: C_24  and  C_26
REMARK    6  A    between atoms: C_29  and  N_32
REMARK                            x       y       z     vdW  Elec       q    Type
REMARK                         _______ _______ _______ _____ _____    ______ ____
ROOT
ATOM      1  C   UNL     1       0.125   1.339   0.041  0.00  0.00    +0.051 A 
ATOM      2  C   UNL     1       0.197  -0.045   0.025  0.00  0.00    +0.026 A 
ATOM      3  C   UNL     1       1.422  -0.672  -0.110  0.00  0.00    +0.022 A 
ATOM      4  C   UNL     1       2.578   0.078  -0.228  0.00  0.00    +0.043 A 
ATOM      5  C   UNL     1       2.515   1.460  -0.212  0.00  0.00    +0.045 A 
ATOM      6  C   UNL     1       1.290   2.096  -0.078  0.00  0.00    +0.056 A 
ATOM      7 CL   UNL     1       4.113  -0.716  -0.396  0.00  0.00    -0.083 Cl
ENDROOT
BRANCH   1  13
ATOM      8  C   UNL     1      -5.161   1.994   0.649  0.00  0.00    +0.240 C 
ATOM      9  O   UNL     1      -5.848   1.726  -0.319  0.00  0.00    -0.271 OA
ATOM     10  N   UNL     1      -3.863   2.316   0.487  0.00  0.00    -0.295 N 
ATOM     11  C   UNL     1      -3.284   2.463  -0.857  0.00  0.00    +0.127 C 
ATOM     12  C   UNL     1      -2.012   1.612  -0.935  0.00  0.00    +0.124 C 
ATOM     13  N   UNL     1      -1.115   1.976   0.171  0.00  0.00    -0.325 N 
ATOM     14  C   UNL     1      -1.727   1.677   1.473  0.00  0.00    +0.124 C 
ATOM     15  C   UNL     1      -2.987   2.531   1.649  0.00  0.00    +0.127 C 
BRANCH   8  17
ATOM     16  C   UNL     1      -7.067   1.743   2.146  0.00  0.00    +0.013 C 
ATOM     17  C   UNL     1      -5.747   1.967   1.991  0.00  0.00    +0.068 C 
BRANCH  16  21
ATOM     18  C   UNL     1      -8.762   1.664   6.034  0.00  0.00    +0.000 A 
ATOM     19  C   UNL     1      -9.568   1.460   4.928  0.00  0.00    +0.001 A 
ATOM     20  C   UNL     1      -9.024   1.484   3.660  0.00  0.00    +0.008 A 
ATOM     21  C   UNL     1      -7.655   1.716   3.495  0.00  0.00    -0.025 A 
ATOM     22  C   UNL     1      -6.847   1.916   4.619  0.00  0.00    +0.008 A 
ATOM     23  C   UNL     1      -7.407   1.895   5.879  0.00  0.00    +0.001 A 
ENDBRANCH  16  21
ENDBRANCH   8  17
ENDBRANCH   1  13
BRANCH   6  24
ATOM     24  N   UNL     1       1.223   3.495  -0.062  0.00  0.00    -0.280 N 
ATOM     25  C   UNL     1       2.215   4.211   0.505  0.00  0.00    +0.248 C 
ATOM     26  O   UNL     1       3.205   3.648   0.929  0.00  0.00    -0.270 OA
ATOM     27  H   UNL     1       0.362   4.010  -0.513  0.00  0.00    +0.155 HD
BRANCH  25  28
ATOM     28  C   UNL     1       2.097   5.681   0.613  0.00  0.00    +0.037 A 
ATOM     29  C   UNL     1       0.964   6.331   0.122  0.00  0.00    +0.015 A 
ATOM     30  C   UNL     1       0.858   7.702   0.229  0.00  0.00    +0.033 A 
ATOM     31  C   UNL     1       1.878   8.434   0.812  0.00  0.00    +0.126 A 
ATOM     32  C   UNL     1       3.006   7.796   1.296  0.00  0.00    +0.033 A 
ATOM     33  C   UNL     1       3.122   6.425   1.200  0.00  0.00    +0.015 A 
BRANCH  31  34
ATOM     34  N   UNL     1       1.760   9.906   0.919  0.00  0.00    +0.056 N 
ATOM     35  O   UNL     1       2.656  10.552   1.432  0.00  0.00    -0.126 OA
ATOM     36  O   UNL     1       0.768  10.470   0.494  0.00  0.00    -0.126 OA
ENDBRANCH  31  34
ENDBRANCH  25  28
ENDBRANCH   6  24
TORSDOF 6
