REMARK  Name = ZINC40140439
REMARK  3 active torsions:
REMARK  status: ('A' for Active; 'I' for Inactive)
REMARK    1  A    between atoms: C_1  and  C_2
REMARK    2  A    between atoms: C_6  and  C_7
REMARK    3  A    between atoms: C_12  and  C_15
REMARK                            x       y       z     vdW  Elec       q    Type
REMARK                         _______ _______ _______ _____ _____    ______ ____
ROOT
ATOM      1  C   UNL     1       0.031  -0.395   2.494  0.00  0.00    +0.285 C 
ATOM      2  O   UNL     1       0.018   0.791   2.767  0.00  0.00    -0.266 OA
ATOM      3  N   UNL     1       0.053  -1.313   3.481  0.00  0.00    -0.258 N 
ATOM      4  C   UNL     1       0.060  -0.905   4.808  0.00  0.00    +0.165 A 
ATOM      5  N   UNL     1       0.086  -1.637   5.907  0.00  0.00    -0.225 NA
ATOM      6  C   UNL     1       0.089  -1.076   7.106  0.00  0.00    +0.080 A 
ATOM      7  C   UNL     1       0.065   0.287   7.210  0.00  0.00    +0.076 A 
ATOM      8  S   UNL     1       0.044   0.750   5.483  0.00  0.00    -0.060 S 
ATOM      9  H   UNL     1       0.064  -2.258   3.264  0.00  0.00    +0.157 HD
ENDROOT
BRANCH   6  10
ATOM     10  C   UNL     1       0.118  -1.919   8.327  0.00  0.00    +0.005 A 
ATOM     11  C   UNL     1       0.115  -1.324   9.587  0.00  0.00    +0.014 A 
ATOM     12  C   UNL     1       0.142  -2.110  10.721  0.00  0.00    +0.050 A 
ATOM     13  C   UNL     1       0.173  -3.493  10.612  0.00  0.00    +0.162 A 
ATOM     14  C   UNL     1       0.174  -4.092   9.357  0.00  0.00    +0.163 A 
ATOM     15  C   UNL     1       0.142  -3.308   8.216  0.00  0.00    +0.059 A 
ATOM     16  O   UNL     1       0.196  -5.448   9.232  0.00  0.00    -0.485 OA
ATOM     17  C   UNL     1       0.597  -6.194  10.386  0.00  0.00    +0.270 C 
ATOM     18  C   UNL     1      -0.146  -5.630  11.605  0.00  0.00    +0.270 C 
ATOM     19  O   UNL     1       0.204  -4.249  11.744  0.00  0.00    -0.485 OA
ENDBRANCH   6  10
BRANCH   1  25
ATOM     20  C   UNL     1      -0.018   1.503   0.010  0.00  0.00    +0.048 C 
ATOM     21  C   UNL     1       0.002  -0.004   0.002  0.00  0.00    +0.001 A 
ATOM     22  C   UNL     1       0.009  -0.835  -1.128  0.00  0.00    +0.061 A 
ATOM     23  C   UNL     1       0.028  -2.113  -0.683  0.00  0.00    +0.171 A 
ATOM     24  O   UNL     1       0.033  -2.102   0.656  0.00  0.00    -0.443 OA
ATOM     25  C   UNL     1       0.024  -0.825   1.094  0.00  0.00    +0.194 A 
ATOM     26 BR   UNL     1       0.044  -3.658  -1.772  0.00  0.00    -0.008 Br
ENDBRANCH   1  25
TORSDOF 2
