REMARK  Name = ZINC31088136
REMARK  4 active torsions:
REMARK  status: ('A' for Active; 'I' for Inactive)
REMARK    1  A    between atoms: C_4  and  C_7
REMARK    2  A    between atoms: C_7  and  N_8
REMARK    3  A    between atoms: N_13  and  C_14
REMARK    4  A    between atoms: C_14  and  C_16
REMARK                            x       y       z     vdW  Elec       q    Type
REMARK                         _______ _______ _______ _____ _____    ______ ____
ROOT
ATOM      1  C   UNL     1      -1.961   5.286   0.050  0.00  0.00    +0.269 C 
ATOM      2  O   UNL     1      -0.816   5.706   0.042  0.00  0.00    -0.268 OA
ENDROOT
BRANCH   1   3
ATOM      3  C   UNL     1      -3.096   6.234   0.066  0.00  0.00    +0.041 A 
ATOM      4  C   UNL     1      -4.407   5.751   0.075  0.00  0.00    +0.014 A 
ATOM      5  C   UNL     1      -5.463   6.636   0.092  0.00  0.00    +0.017 A 
ATOM      6  C   UNL     1      -5.223   8.003   0.101  0.00  0.00    +0.030 A 
ATOM      7  C   UNL     1      -3.916   8.500   0.087  0.00  0.00    +0.048 A 
ATOM      8  C   UNL     1      -2.856   7.608   0.077  0.00  0.00    +0.037 A 
ATOM      9  N   UNL     1      -3.658   9.869   0.084  0.00  0.00    -0.284 N 
ATOM     10  C   UNL     1      -4.485  10.827   0.492  0.00  0.00    +0.227 C 
ATOM     11  O   UNL     1      -4.103  11.977   0.434  0.00  0.00    -0.275 OA
ATOM     12  C   UNL     1      -5.868  10.563   1.021  0.00  0.00    +0.170 C 
ATOM     13  S   UNL     1      -6.573   9.141   0.133  0.00  0.00    -0.114 S 
ATOM     14  H   UNL     1      -2.691  10.245  -0.282  0.00  0.00    +0.155 HD
ENDBRANCH   1   3
BRANCH   1  20
ATOM     15  N   UNL     1      -1.191   1.752   0.017  0.00  0.00    -0.324 N 
ATOM     16  C   UNL     1      -0.013   1.076   0.008  0.00  0.00    +0.095 A 
ATOM     17  C   UNL     1       1.129   1.773   0.001  0.00  0.00    +0.066 A 
ATOM     18  S   UNL     1       0.534   3.455   0.016  0.00  0.00    -0.061 S 
ATOM     19  C   UNL     1      -1.168   3.117   0.030  0.00  0.00    +0.166 A 
ATOM     20  N   UNL     1      -2.190   3.970   0.044  0.00  0.00    -0.152 NA
BRANCH  15  21
ATOM     21  C   UNL     1      -2.465   1.029   0.019  0.00  0.00    +0.158 C 
BRANCH  21  25
ATOM     22  C   UNL     1      -3.686   0.304   4.047  0.00  0.00    +0.000 A 
ATOM     23  C   UNL     1      -4.080   1.462   3.404  0.00  0.00    +0.000 A 
ATOM     24  C   UNL     1      -3.684   1.697   2.100  0.00  0.00    +0.005 A 
ATOM     25  C   UNL     1      -2.896   0.773   1.440  0.00  0.00    -0.028 A 
ATOM     26  C   UNL     1      -2.507  -0.388   2.082  0.00  0.00    +0.005 A 
ATOM     27  C   UNL     1      -2.898  -0.620   3.387  0.00  0.00    +0.000 A 
ENDBRANCH  21  25
ENDBRANCH  15  21
ENDBRANCH   1  20
TORSDOF 4
