REMARK  Name = ZINC67132695
REMARK  7 active torsions:
REMARK  status: ('A' for Active; 'I' for Inactive)
REMARK    1  A    between atoms: C_1  and  C_2
REMARK    2  A    between atoms: C_2  and  C_3
REMARK    3  A    between atoms: C_3  and  C_4
REMARK    4  A    between atoms: C_4  and  N_5
REMARK    5  A    between atoms: N_14  and  C_30
REMARK    6  A    between atoms: C_15  and  C_17
REMARK    7  A    between atoms: C_17  and  N_18
REMARK                            x       y       z     vdW  Elec       q    Type
REMARK                         _______ _______ _______ _____ _____    ______ ____
ROOT
ATOM      1  N   UNL     1       1.425  -2.500  -2.470  0.00  0.00    -0.277 N 
ATOM      2  C   UNL     1       0.704  -2.728  -3.632  0.00  0.00    +0.168 A 
ATOM      3  C   UNL     1       1.377  -3.176  -4.761  0.00  0.00    +0.151 A 
ATOM      4  C   UNL     1       2.772  -3.385  -4.694  0.00  0.00    +0.280 A 
ATOM      5  O   UNL     1       3.384  -3.776  -5.671  0.00  0.00    -0.265 OA
ATOM      6  N   UNL     1       3.418  -3.144  -3.534  0.00  0.00    -0.273 N 
ATOM      7  H   UNL     1       4.376  -3.286  -3.483  0.00  0.00    +0.173 HD
ATOM      8  C   UNL     1       2.755  -2.706  -2.450  0.00  0.00    +0.331 A 
ATOM      9  O   UNL     1       3.372  -2.495  -1.423  0.00  0.00    -0.246 OA
ATOM     10  N   UNL     1       0.423  -3.315  -5.750  0.00  0.00    -0.327 N 
ATOM     11  C   UNL     1      -0.758  -2.960  -5.209  0.00  0.00    +0.096 A 
ATOM     12  N   UNL     1      -0.586  -2.614  -3.958  0.00  0.00    -0.216 NA
ATOM     13  C   UNL     1       0.653  -3.763  -7.125  0.00  0.00    +0.151 C 
ENDROOT
BRANCH   1  14
ATOM     14  C   UNL     1       0.739  -2.027  -1.265  0.00  0.00    +0.128 C 
BRANCH  14  15
ATOM     15  C   UNL     1       0.718  -0.497  -1.257  0.00  0.00    +0.021 C 
BRANCH  15  17
ATOM     16  C   UNL     1      -0.019   1.526   0.010  0.00  0.00    +0.004 C 
ATOM     17  C   UNL     1       0.002  -0.004   0.002  0.00  0.00    -0.002 C 
ENDBRANCH  15  17
ENDBRANCH  14  15
ENDBRANCH   1  14
BRANCH  11  18
ATOM     18  C   UNL     1      -2.079  -2.959  -5.935  0.00  0.00    -0.003 C 
BRANCH  18  19
ATOM     19  N   UNL     1      -2.724  -4.270  -5.779  0.00  0.00    +0.386 N 
ATOM     20  C   UNL     1      -3.048  -4.490  -4.365  0.00  0.00    -0.078 C 
ATOM     21  C   UNL     1      -3.646  -5.887  -4.186  0.00  0.00    -0.018 C 
ATOM     22  C   UNL     1      -4.920  -6.003  -5.027  0.00  0.00    +0.000 C 
ATOM     23  C   UNL     1      -4.583  -5.698  -6.490  0.00  0.00    -0.025 C 
ATOM     24  C   UNL     1      -3.951  -4.308  -6.584  0.00  0.00    -0.065 C 
ATOM     25  C   UNL     1      -3.613  -4.002  -8.045  0.00  0.00    -0.015 C 
ATOM     26  C   UNL     1      -2.625  -5.046  -8.569  0.00  0.00    -0.002 C 
ATOM     27  C   UNL     1      -3.255  -6.437  -8.472  0.00  0.00    +0.000 C 
ATOM     28  C   UNL     1      -3.599  -6.746  -7.014  0.00  0.00    +0.002 C 
ATOM     29  H   UNL     1      -2.094  -4.992  -6.094  0.00  0.00    -0.081 HD
ENDBRANCH  18  19
ENDBRANCH  11  18
TORSDOF 5
