REMARK  Name = ZINC44418230
REMARK  7 active torsions:
REMARK  status: ('A' for Active; 'I' for Inactive)
REMARK    1  A    between atoms: C_1  and  O_2
REMARK    2  A    between atoms: O_2  and  C_3
REMARK    3  A    between atoms: C_5  and  N_11
REMARK    4  A    between atoms: C_7  and  O_9
REMARK    5  A    between atoms: O_9  and  C_10
REMARK    6  A    between atoms: C_13  and  C_18
REMARK    7  A    between atoms: C_20  and  C_23
REMARK                            x       y       z     vdW  Elec       q    Type
REMARK                         _______ _______ _______ _____ _____    ______ ____
ROOT
ATOM      1  N   UNL     1      -2.537  -4.068   0.016  0.00  0.00    -0.270 N 
ATOM      2  C   UNL     1      -3.775  -4.848   0.124  0.00  0.00    +0.125 C 
ATOM      3  C   UNL     1      -3.409  -6.271  -0.353  0.00  0.00    +0.087 C 
ATOM      4  C   UNL     1      -1.891  -6.319  -0.063  0.00  0.00    +0.109 C 
ATOM      5  C   UNL     1      -1.463  -4.869  -0.091  0.00  0.00    +0.221 C 
ATOM      6  O   UNL     1      -0.317  -4.484  -0.192  0.00  0.00    -0.275 OA
ENDROOT
BRANCH   1   9
ATOM      7  C   UNL     1      -1.200  -0.637   0.025  0.00  0.00    +0.125 A 
ATOM      8  C   UNL     1      -1.254  -2.023   0.024  0.00  0.00    +0.069 A 
ATOM      9  C   UNL     1      -2.482  -2.670   0.018  0.00  0.00    +0.043 A 
ATOM     10  C   UNL     1      -3.656  -1.929   0.013  0.00  0.00    +0.069 A 
ATOM     11  C   UNL     1      -3.601  -0.543   0.014  0.00  0.00    +0.125 A 
ATOM     12  C   UNL     1      -2.373   0.102   0.025  0.00  0.00    +0.091 A 
BRANCH   7  14
ATOM     13  C   UNL     1      -0.017   1.425   0.038  0.00  0.00    +0.277 C 
ATOM     14  O   UNL     1       0.002  -0.004   0.031  0.00  0.00    -0.495 OA
ENDBRANCH   7  14
BRANCH  11  15
ATOM     15  O   UNL     1      -4.750   0.182   0.009  0.00  0.00    -0.495 OA
ATOM     16  C   UNL     1      -4.619   1.605   0.011  0.00  0.00    +0.277 C 
ENDBRANCH  11  15
ENDBRANCH   1   9
BRANCH   3  17
ATOM     17  C   UNL     1      -4.145  -7.314   0.447  0.00  0.00    +0.177 A 
ATOM     18  N   UNL     1      -4.988  -8.220  -0.052  0.00  0.00    -0.191 NA
ATOM     19  C   UNL     1      -5.457  -8.979   0.914  0.00  0.00    +0.259 A 
ATOM     20  O   UNL     1      -4.912  -8.562   2.070  0.00  0.00    -0.333 OA
ATOM     21  N   UNL     1      -4.056  -7.480   1.737  0.00  0.00    -0.061 NA
BRANCH  19  22
ATOM     22  C   UNL     1      -6.415 -10.091   0.757  0.00  0.00    +0.043 A 
ATOM     23  C   UNL     1      -6.902 -10.423  -0.509  0.00  0.00    +0.017 A 
ATOM     24  C   UNL     1      -7.796 -11.461  -0.654  0.00  0.00    +0.050 A 
ATOM     25  C   UNL     1      -8.216 -12.181   0.456  0.00  0.00    +0.166 A 
ATOM     26  C   UNL     1      -7.734 -11.855   1.724  0.00  0.00    +0.167 A 
ATOM     27  C   UNL     1      -6.832 -10.819   1.874  0.00  0.00    +0.062 A 
ATOM     28  O   UNL     1      -8.294 -12.704   2.635  0.00  0.00    -0.453 OA
ATOM     29  C   UNL     1      -9.432 -13.283   1.970  0.00  0.00    +0.466 C 
ATOM     30  O   UNL     1      -9.077 -13.233   0.576  0.00  0.00    -0.453 OA
ENDBRANCH  19  22
ENDBRANCH   3  17
TORSDOF 5
