REMARK  Name = ZINC03475588
REMARK  4 active torsions:
REMARK  status: ('A' for Active; 'I' for Inactive)
REMARK    1  A    between atoms: C_1  and  C_2
REMARK    2  A    between atoms: C_6  and  C_7
REMARK    3  A    between atoms: N_8  and  N_9
REMARK    4  A    between atoms: C_10  and  C_12
REMARK                            x       y       z     vdW  Elec       q    Type
REMARK                         _______ _______ _______ _____ _____    ______ ____
ROOT
ATOM      1  N   UNL     1       1.139   2.192   0.003  0.00  0.00    -0.204 N 
ATOM      2  C   UNL     1      -0.018   1.503   0.010  0.00  0.00    +0.276 C 
ATOM      3  O   UNL     1      -1.077   2.095   0.018  0.00  0.00    -0.270 OA
ATOM      4  H   UNL     1       1.986   1.719  -0.008  0.00  0.00    +0.177 HD
ENDROOT
BRANCH   2   5
ATOM      5  C   UNL     1       0.002  -0.004   0.002  0.00  0.00    +0.297 C 
ATOM      6  C   UNL     1       0.579  -0.506  -1.328  0.00  0.00    +0.283 C 
ATOM      7  O   UNL     1       0.572  -1.938  -1.308  0.00  0.00    -0.484 OA
ATOM      8  C   UNL     1      -0.572  -2.537  -0.877  0.00  0.00    +0.162 A 
ATOM      9  C   UNL     1      -0.786  -3.878  -1.160  0.00  0.00    +0.049 A 
ATOM     10  C   UNL     1      -1.940  -4.502  -0.725  0.00  0.00    +0.004 A 
ATOM     11  C   UNL     1      -2.883  -3.792  -0.005  0.00  0.00    +0.004 A 
ATOM     12  C   UNL     1      -2.676  -2.456   0.279  0.00  0.00    +0.049 A 
ATOM     13  C   UNL     1      -1.521  -1.823  -0.156  0.00  0.00    +0.163 A 
ATOM     14  O   UNL     1      -1.333  -0.506   0.130  0.00  0.00    -0.472 OA
ENDBRANCH   2   5
BRANCH   1  16
ATOM     15  C   UNL     1       2.238   4.259   0.004  0.00  0.00    +0.145 C 
ATOM     16  N   UNL     1       1.121   3.593   0.011  0.00  0.00    -0.187 NA
BRANCH  15  22
ATOM     17  C   UNL     1       4.703   6.114   0.003  0.00  0.00    +0.045 C 
ATOM     18  C   UNL     1       3.280   6.612   0.012  0.00  0.00    -0.035 A 
ATOM     19  C   UNL     1       3.006   7.960   0.017  0.00  0.00    +0.011 A 
ATOM     20  C   UNL     1       1.713   8.376   0.032  0.00  0.00    +0.046 A 
ATOM     21  S   UNL     1       0.817   6.832   0.032  0.00  0.00    -0.095 S 
ATOM     22  C   UNL     1       2.218   5.725   0.012  0.00  0.00    +0.035 A 
ENDBRANCH  15  22
ENDBRANCH   1  16
TORSDOF 3
