REMARK  Name = ZINC52566205
REMARK  12 active torsions:
REMARK  status: ('A' for Active; 'I' for Inactive)
REMARK    1  A    between atoms: C_1  and  C_2
REMARK    2  A    between atoms: C_2  and  C_3
REMARK    3  A    between atoms: C_4  and  C_42
REMARK    4  A    between atoms: C_5  and  C_10
REMARK    5  A    between atoms: C_7  and  C_9
REMARK    6  A    between atoms: C_14  and  C_21
REMARK    7  A    between atoms: C_23  and  O_27
REMARK    8  A    between atoms: O_27  and  C_28
REMARK    9  A    between atoms: C_28  and  C_29
REMARK   10  A    between atoms: C_29  and  C_31
REMARK   11  A    between atoms: C_29  and  N_41
REMARK   12  A    between atoms: C_31  and  C_32
REMARK                            x       y       z     vdW  Elec       q    Type
REMARK                         _______ _______ _______ _____ _____    ______ ____
ROOT
ATOM      1  C   UNL     1       5.389  -4.362   5.495  0.00  0.00    +0.004 A 
ATOM      2  C   UNL     1       6.526  -4.529   6.290  0.00  0.00    +0.057 A 
ATOM      3  C   UNL     1       7.436  -5.516   5.936  0.00  0.00    +0.139 A 
ATOM      4  C   UNL     1       7.188  -6.295   4.815  0.00  0.00    +0.156 A 
ATOM      5  N   UNL     1       6.105  -6.110   4.086  0.00  0.00    -0.259 NA
ATOM      6  C   UNL     1       5.212  -5.190   4.388  0.00  0.00    +0.119 A 
ENDROOT
BRANCH   1  10
ATOM      7  C   UNL     1       1.018  -1.782   4.708  0.00  0.00    +0.155 C 
ATOM      8  C   UNL     1       2.322  -2.200   5.347  0.00  0.00    -0.008 A 
ATOM      9  C   UNL     1       3.248  -3.165   5.032  0.00  0.00    +0.015 A 
ATOM     10  C   UNL     1       4.384  -3.323   5.827  0.00  0.00    -0.016 A 
ATOM     11  C   UNL     1       4.567  -2.498   6.936  0.00  0.00    +0.010 A 
ATOM     12  C   UNL     1       3.635  -1.534   7.245  0.00  0.00    +0.024 A 
ATOM     13  C   UNL     1       2.498  -1.374   6.451  0.00  0.00    +0.038 A 
ATOM     14  N   UNL     1       1.431  -0.482   6.561  0.00  0.00    -0.284 N 
ATOM     15  C   UNL     1       0.520  -0.653   5.585  0.00  0.00    +0.231 C 
ATOM     16  O   UNL     1      -0.505  -0.022   5.434  0.00  0.00    -0.274 OA
ATOM     17  H   UNL     1       1.353   0.183   7.262  0.00  0.00    +0.155 HD
BRANCH   7  20
ATOM     18  C   UNL     1       0.731  -0.503   1.223  0.00  0.00    -0.041 C 
ATOM     19  C   UNL     1       0.192  -0.877   2.382  0.00  0.00    -0.027 C 
ATOM     20  C   UNL     1       1.252  -1.294   3.301  0.00  0.00    +0.056 C 
ATOM     21  N   UNL     1       2.414  -1.190   2.748  0.00  0.00    -0.279 NA
ATOM     22  C   UNL     1       2.224  -0.688   1.380  0.00  0.00    +0.129 C 
ATOM     23  C   UNL     1       2.742  -1.707   0.363  0.00  0.00    +0.037 C 
ATOM     24  C   UNL     1      -1.282  -0.871   2.698  0.00  0.00    +0.045 C 
BRANCH  18  26
ATOM     25  C   UNL     1      -0.019   1.526   0.010  0.00  0.00    +0.008 C 
ATOM     26  C   UNL     1       0.002  -0.004   0.002  0.00  0.00    +0.030 C 
ENDBRANCH  18  26
ENDBRANCH   7  20
ENDBRANCH   1  10
BRANCH   3  27
ATOM     27  O   UNL     1       8.557  -5.716   6.679  0.00  0.00    -0.492 OA
BRANCH  27  28
ATOM     28  C   UNL     1       9.444  -6.751   6.249  0.00  0.00    +0.213 C 
BRANCH  28  29
ATOM     29  C   UNL     1      10.639  -6.826   7.201  0.00  0.00    -0.033 C 
BRANCH  29  30
ATOM     30  N   UNL     1      10.178  -7.238   8.534  0.00  0.00    +0.382 N 
ATOM     31  H   UNL     1       9.513  -6.565   8.883  0.00  0.00    -0.089 HD
ATOM     32  H   UNL     1       9.739  -8.145   8.473  0.00  0.00    -0.089 HD
ATOM     33  H   UNL     1      10.967  -7.288   9.162  0.00  0.00    -0.089 HD
ENDBRANCH  29  30
BRANCH  29  34
ATOM     34  C   UNL     1      11.649  -7.847   6.673  0.00  0.00    +0.020 C 
BRANCH  34  35
ATOM     35  C   UNL     1      12.880  -7.833   7.542  0.00  0.00    -0.043 C 
ATOM     36  C   UNL     1      13.149  -8.653   8.583  0.00  0.00    -0.001 A 
ATOM     37  C   UNL     1      12.405  -9.760   9.196  0.00  0.00    +0.010 A 
ATOM     38  C   UNL     1      12.944 -10.407  10.253  0.00  0.00    +0.001 A 
ATOM     39  C   UNL     1      14.193 -10.048  10.779  0.00  0.00    +0.002 A 
ATOM     40  C   UNL     1      14.936  -9.042  10.270  0.00  0.00    +0.026 A 
ATOM     41  C   UNL     1      14.466  -8.293   9.156  0.00  0.00    +0.043 A 
ATOM     42  N   UNL     1      14.990  -7.290   8.495  0.00  0.00    -0.380 N 
ATOM     43  C   UNL     1      14.067  -6.903   7.423  0.00  0.00    +0.144 C 
ATOM     44  H   UNL     1      15.847  -6.875   8.681  0.00  0.00    +0.160 HD
ENDBRANCH  34  35
ENDBRANCH  29  34
ENDBRANCH  28  29
ENDBRANCH  27  28
ENDBRANCH   3  27
TORSDOF 9
