REMARK  Name = ZINC08441481
REMARK  11 active torsions:
REMARK  status: ('A' for Active; 'I' for Inactive)
REMARK    1  A    between atoms: C_1  and  C_2
REMARK    2  A    between atoms: C_2  and  O_3
REMARK    3  A    between atoms: O_3  and  C_4
REMARK    4  A    between atoms: C_4  and  C_6
REMARK    5  A    between atoms: C_7  and  C_39
REMARK    6  A    between atoms: C_14  and  C_15
REMARK    7  A    between atoms: C_20  and  C_21
REMARK    8  A    between atoms: C_28  and  C_30
REMARK    9  A    between atoms: C_33  and  N_36
REMARK   10  A    between atoms: N_36  and  C_37
REMARK   11  A    between atoms: N_36  and  C_38
REMARK                            x       y       z     vdW  Elec       q    Type
REMARK                         _______ _______ _______ _____ _____    ______ ____
ROOT
ATOM      1  C   UNL     1       7.896   5.253  -0.044  0.00  0.00    +0.085 C 
ATOM      2  C   UNL     1       7.087   6.356  -0.030  0.00  0.00    +0.053 C 
ATOM      3  N   UNL     1       5.767   6.224  -0.018  0.00  0.00    -0.228 NA
ATOM      4  C   UNL     1       5.130   5.079  -0.019  0.00  0.00    +0.178 A 
ATOM      5  N   UNL     1       5.752   3.852  -0.032  0.00  0.00    -0.275 N 
ATOM      6  C   UNL     1       4.994   2.748  -0.025  0.00  0.00    +0.268 A 
ATOM      7  O   UNL     1       5.500   1.641  -0.030  0.00  0.00    -0.266 OA
ATOM      8  C   UNL     1       3.536   2.912  -0.016  0.00  0.00    +0.081 A 
ATOM      9  C   UNL     1       2.560   1.966  -0.012  0.00  0.00    +0.032 C 
ATOM     10  S   UNL     1       3.391   4.692  -0.004  0.00  0.00    -0.046 S 
ATOM     11  C   UNL     1       7.241   3.891  -0.046  0.00  0.00    +0.162 C 
ATOM     12  C   UNL     1       7.701   7.732  -0.028  0.00  0.00    +0.066 C 
ENDROOT
BRANCH   9  13
ATOM     13  C   UNL     1       1.150   2.367   0.004  0.00  0.00    +0.021 A 
ATOM     14  C   UNL     1       0.655   3.659   0.015  0.00  0.00    +0.113 A 
ATOM     15  N   UNL     1      -0.686   3.585   0.026  0.00  0.00    -0.284 N 
ATOM     16  H   UNL     1      -1.306   4.370   0.039  0.00  0.00    +0.188 HD
ATOM     17  N   UNL     1      -1.085   2.245   0.019  0.00  0.00    -0.173 NA
ATOM     18  C   UNL     1      -0.018   1.478   0.010  0.00  0.00    +0.100 A 
BRANCH  18  19
ATOM     19  C   UNL     1       0.002  -0.004   0.002  0.00  0.00    +0.003 A 
ATOM     20  C   UNL     1       0.989  -0.687  -0.708  0.00  0.00    +0.010 A 
ATOM     21  C   UNL     1       1.006  -2.067  -0.707  0.00  0.00    +0.001 A 
ATOM     22  C   UNL     1       0.039  -2.772  -0.014  0.00  0.00    +0.000 A 
ATOM     23  C   UNL     1      -0.946  -2.101   0.688  0.00  0.00    +0.001 A 
ATOM     24  C   UNL     1      -0.969  -0.721   0.699  0.00  0.00    +0.010 A 
ENDBRANCH  18  19
ENDBRANCH   9  13
BRANCH  11  25
ATOM     25  C   UNL     1       7.736   3.138   1.162  0.00  0.00    -0.020 A 
ATOM     26  C   UNL     1       7.187   3.390   2.405  0.00  0.00    +0.008 A 
ATOM     27  C   UNL     1       7.634   2.698   3.513  0.00  0.00    +0.023 A 
ATOM     28  C   UNL     1       8.645   1.755   3.379  0.00  0.00    +0.029 A 
ATOM     29  C   UNL     1       9.199   1.507   2.130  0.00  0.00    +0.023 A 
ATOM     30  C   UNL     1       8.743   2.199   1.025  0.00  0.00    +0.008 A 
BRANCH  28  31
ATOM     31  N   UNL     1       9.104   1.056   4.498  0.00  0.00    -0.336 N 
ATOM     32  C   UNL     1      10.170   0.061   4.355  0.00  0.00    +0.129 C 
ATOM     33  C   UNL     1       8.519   1.318   5.816  0.00  0.00    +0.129 C 
ENDBRANCH  28  31
ENDBRANCH  11  25
BRANCH   1  34
ATOM     34  C   UNL     1       9.294   5.383  -0.057  0.00  0.00    +0.339 C 
ATOM     35  O   UNL     1       9.803   6.490  -0.055  0.00  0.00    -0.245 OA
BRANCH  34  36
ATOM     36  O   UNL     1      10.075   4.281  -0.071  0.00  0.00    -0.462 OA
BRANCH  36  38
ATOM     37  C   UNL     1      12.201   3.134  -0.098  0.00  0.00    +0.048 C 
ATOM     38  C   UNL     1      11.489   4.487  -0.083  0.00  0.00    +0.229 C 
ENDBRANCH  36  38
ENDBRANCH  34  36
ENDBRANCH   1  34
TORSDOF 7
