REMARK  Name = ZINC17863385
REMARK  12 active torsions:
REMARK  status: ('A' for Active; 'I' for Inactive)
REMARK    1  A    between atoms: C_1  and  C_2
REMARK    2  A    between atoms: C_7  and  N_8
REMARK    3  A    between atoms: C_9  and  C_11
REMARK    4  A    between atoms: C_11  and  N_12
REMARK    5  A    between atoms: N_12  and  C_13
REMARK    6  A    between atoms: C_14  and  C_16
REMARK    7  A    between atoms: C_16  and  C_18
REMARK    8  A    between atoms: C_16  and  N_19
REMARK    9  A    between atoms: N_19  and  S_20
REMARK   10  A    between atoms: S_20  and  C_23
REMARK   11  A    between atoms: C_26  and  O_29
REMARK   12  A    between atoms: O_29  and  C_30
REMARK                            x       y       z     vdW  Elec       q    Type
REMARK                         _______ _______ _______ _____ _____    ______ ____
ROOT
ATOM      1  N   UNL     1       2.103   4.501   0.965  0.00  0.00    -0.294 N 
ATOM      2  C   UNL     1       3.378   4.212   0.304  0.00  0.00    +0.132 C 
ATOM      3  C   UNL     1       1.068   3.647   0.838  0.00  0.00    +0.234 C 
ATOM      4  O   UNL     1       0.013   3.886   1.385  0.00  0.00    -0.274 OA
ENDROOT
BRANCH   3   5
ATOM      5  C   UNL     1       1.223   2.394   0.014  0.00  0.00    +0.159 C 
ATOM      6  C   UNL     1       1.571   2.771  -1.427  0.00  0.00    +0.035 C 
BRANCH   5   7
ATOM      7  N   UNL     1      -0.033   1.640   0.032  0.00  0.00    -0.178 NA
ATOM      8  H   UNL     1      -0.881   2.110   0.044  0.00  0.00    +0.149 HD
BRANCH   7   9
ATOM      9  S   UNL     1      -0.005  -0.016   0.024  0.00  0.00    +0.059 S 
ATOM     10  O   UNL     1      -1.358  -0.446   0.072  0.00  0.00    -0.153 OA
ATOM     11  O   UNL     1       0.881  -0.402  -1.018  0.00  0.00    -0.153 OA
BRANCH   9  12
ATOM     12  C   UNL     1       0.741  -0.531   1.535  0.00  0.00    +0.105 A 
ATOM     13  C   UNL     1       2.110  -0.718   1.601  0.00  0.00    +0.032 A 
ATOM     14  C   UNL     1       2.697  -1.116   2.786  0.00  0.00    +0.047 A 
ATOM     15  C   UNL     1       1.912  -1.341   3.908  0.00  0.00    +0.120 A 
ATOM     16  C   UNL     1       0.538  -1.158   3.837  0.00  0.00    +0.047 A 
ATOM     17  C   UNL     1      -0.044  -0.754   2.651  0.00  0.00    +0.032 A 
BRANCH  15  18
ATOM     18  O   UNL     1       2.487  -1.738   5.073  0.00  0.00    -0.495 OA
ATOM     19  C   UNL     1       3.906  -1.905   5.072  0.00  0.00    +0.277 C 
ENDBRANCH  15  18
ENDBRANCH   9  12
ENDBRANCH   7   9
ENDBRANCH   5   7
ENDBRANCH   3   5
BRANCH   1  20
ATOM     20  C   UNL     1       1.952   5.719   1.766  0.00  0.00    +0.203 C 
BRANCH  20  22
ATOM     21  N   UNL     1       2.280   6.412   4.117  0.00  0.00    -0.284 N 
ATOM     22  C   UNL     1       2.340   5.433   3.193  0.00  0.00    +0.235 C 
ATOM     23  O   UNL     1       2.705   4.321   3.511  0.00  0.00    -0.274 OA
ATOM     24  H   UNL     1       2.065   7.319   3.849  0.00  0.00    +0.155 HD
BRANCH  21  31
ATOM     25  C   UNL     1       3.204   8.513   5.799  0.00  0.00    +0.046 C 
ATOM     26  C   UNL     1       2.979   7.117   6.319  0.00  0.00    -0.028 A 
ATOM     27  C   UNL     1       3.218   6.827   7.649  0.00  0.00    +0.020 A 
ATOM     28  C   UNL     1       3.018   5.544   8.125  0.00  0.00    +0.018 A 
ATOM     29  C   UNL     1       2.573   4.548   7.273  0.00  0.00    +0.017 A 
ATOM     30  C   UNL     1       2.327   4.833   5.945  0.00  0.00    +0.024 A 
ATOM     31  C   UNL     1       2.527   6.121   5.463  0.00  0.00    +0.036 A 
ATOM     32 BR   UNL     1       3.353   5.150   9.944  0.00  0.00    -0.050 Br
ENDBRANCH  21  31
ENDBRANCH  20  22
ENDBRANCH   1  20
TORSDOF 8
