REMARK  Name = ZINC36055684
REMARK  8 active torsions:
REMARK  status: ('A' for Active; 'I' for Inactive)
REMARK    1  A    between atoms: C_4  and  C_7
REMARK    2  A    between atoms: C_7  and  C_8
REMARK    3  A    between atoms: C_8  and  C_10
REMARK    4  A    between atoms: C_8  and  N_20
REMARK    5  A    between atoms: C_10  and  O_12
REMARK    6  A    between atoms: O_12  and  C_13
REMARK    7  A    between atoms: C_13  and  C_14
REMARK    8  A    between atoms: C_32  and  C_33
REMARK                            x       y       z     vdW  Elec       q    Type
REMARK                         _______ _______ _______ _____ _____    ______ ____
ROOT
ATOM      1  N   UNL     1       4.452   0.319   2.059  0.00  0.00    -0.253 NA
ATOM      2  C   UNL     1       4.809   0.117   3.471  0.00  0.00    +0.131 C 
ATOM      3  C   UNL     1       5.266   1.423   4.068  0.00  0.00    +0.051 A 
ATOM      4  C   UNL     1       5.645   2.480   3.259  0.00  0.00    +0.130 A 
ATOM      5  C   UNL     1       6.069   3.683   3.825  0.00  0.00    +0.047 A 
ATOM      6  C   UNL     1       6.114   3.834   5.180  0.00  0.00    +0.016 A 
ATOM      7  C   UNL     1       5.733   2.777   6.009  0.00  0.00    +0.026 A 
ATOM      8  C   UNL     1       5.305   1.561   5.451  0.00  0.00    +0.148 A 
ATOM      9  O   UNL     1       4.936   0.535   6.245  0.00  0.00    -0.422 OA
ATOM     10  C   UNL     1       4.969   0.648   7.579  0.00  0.00    +0.338 A 
ATOM     11  O   UNL     1       4.628  -0.307   8.255  0.00  0.00    -0.245 OA
ATOM     12  C   UNL     1       5.380   1.822   8.229  0.00  0.00    +0.101 A 
ATOM     13  C   UNL     1       5.772   2.913   7.475  0.00  0.00    -0.000 A 
ATOM     14  O   UNL     1       5.607   2.366   1.905  0.00  0.00    -0.476 OA
ATOM     15  C   UNL     1       5.526   1.046   1.364  0.00  0.00    +0.319 C 
ENDROOT
BRANCH  13  16
ATOM     16  C   UNL     1       6.214   4.171   8.117  0.00  0.00    -0.017 A 
ATOM     17  C   UNL     1       5.466   5.339   7.960  0.00  0.00    +0.008 A 
ATOM     18  C   UNL     1       5.883   6.508   8.561  0.00  0.00    +0.001 A 
ATOM     19  C   UNL     1       7.040   6.524   9.319  0.00  0.00    +0.000 A 
ATOM     20  C   UNL     1       7.786   5.370   9.479  0.00  0.00    +0.001 A 
ATOM     21  C   UNL     1       7.377   4.193   8.887  0.00  0.00    +0.008 A 
ENDBRANCH  13  16
BRANCH   1  22
ATOM     22  C   UNL     1       4.171  -0.963   1.399  0.00  0.00    +0.173 C 
BRANCH  22  23
ATOM     23  C   UNL     1       5.422  -1.804   1.383  0.00  0.00    +0.325 C 
ATOM     24  O   UNL     1       6.442  -1.380   1.872  0.00  0.00    -0.249 OA
BRANCH  23  25
ATOM     25  O   UNL     1       5.402  -3.026   0.827  0.00  0.00    -0.459 OA
BRANCH  25  26
ATOM     26  C   UNL     1       6.623  -3.768   0.847  0.00  0.00    +0.267 C 
BRANCH  26  27
ATOM     27  C   UNL     1       6.410  -5.104   0.182  0.00  0.00    -0.010 A 
ATOM     28  C   UNL     1       6.000  -6.191   0.931  0.00  0.00    +0.007 A 
ATOM     29  C   UNL     1       5.805  -7.416   0.322  0.00  0.00    +0.000 A 
ATOM     30  C   UNL     1       6.020  -7.554  -1.037  0.00  0.00    +0.000 A 
ATOM     31  C   UNL     1       6.429  -6.466  -1.786  0.00  0.00    +0.000 A 
ATOM     32  C   UNL     1       6.620  -5.240  -1.177  0.00  0.00    +0.007 A 
ENDBRANCH  26  27
ENDBRANCH  25  26
ENDBRANCH  23  25
ENDBRANCH  22  23
BRANCH  22  33
ATOM     33  C   UNL     1       3.711  -0.707  -0.038  0.00  0.00    +0.065 C 
BRANCH  33  37
ATOM     34  C   UNL     1      -0.017   1.378   0.010  0.00  0.00    +0.000 A 
ATOM     35  C   UNL     1       1.171   2.086   0.002  0.00  0.00    +0.000 A 
ATOM     36  C   UNL     1       2.377   1.411  -0.013  0.00  0.00    +0.004 A 
ATOM     37  C   UNL     1       2.396   0.029  -0.020  0.00  0.00    -0.045 A 
ATOM     38  C   UNL     1       1.208  -0.679  -0.012  0.00  0.00    +0.004 A 
ATOM     39  C   UNL     1       0.002  -0.004   0.002  0.00  0.00    +0.000 A 
ENDBRANCH  33  37
ENDBRANCH  22  33
ENDBRANCH   1  22
TORSDOF 8
