REMARK  Name = ZINC14741432
REMARK  9 active torsions:
REMARK  status: ('A' for Active; 'I' for Inactive)
REMARK    1  A    between atoms: C_1  and  O_2
REMARK    2  A    between atoms: O_2  and  C_3
REMARK    3  A    between atoms: C_3  and  C_4
REMARK    4  A    between atoms: C_4  and  N_5
REMARK    5  A    between atoms: N_8  and  C_27
REMARK    6  A    between atoms: C_16  and  N_70
REMARK    7  A    between atoms: C_27  and  C_28
REMARK    8  A    between atoms: C_32  and  O_34
REMARK    9  A    between atoms: O_34  and  C_35
REMARK                            x       y       z     vdW  Elec       q    Type
REMARK                         _______ _______ _______ _____ _____    ______ ____
ROOT
ATOM      1  N   UNL     1      -0.809  -4.340  -0.819  0.00  0.00    -0.269 N 
ATOM      2  C   UNL     1      -1.146  -5.587  -1.203  0.00  0.00    +0.312 C 
ATOM      3  O   UNL     1      -2.204  -5.868  -1.732  0.00  0.00    -0.252 OA
ATOM      4  N   UNL     1      -0.186  -6.480  -0.937  0.00  0.00    -0.220 N 
ATOM      5  C   UNL     1       0.882  -5.902  -0.348  0.00  0.00    +0.247 C 
ATOM      6  O   UNL     1       1.905  -6.444   0.012  0.00  0.00    -0.273 OA
ATOM      7  C   UNL     1       0.533  -4.437  -0.233  0.00  0.00    +0.112 C 
ATOM      8  C   UNL     1       0.510  -4.007   1.231  0.00  0.00    +0.017 C 
ATOM      9  C   UNL     1       0.181  -2.514   1.315  0.00  0.00    -0.076 C 
ATOM     10  C   UNL     1       1.163  -2.108  -0.865  0.00  0.00    -0.076 C 
ATOM     11  C   UNL     1       1.525  -3.588  -1.022  0.00  0.00    +0.017 C 
ATOM     12  N   UNL     1       1.208  -1.755   0.571  0.00  0.00    +0.382 N 
ATOM     13  H   UNL     1       2.135  -1.996   0.943  0.00  0.00    -0.081 HD
ENDROOT
BRANCH  12  14
ATOM     14  C   UNL     1       0.986  -0.304   0.741  0.00  0.00    -0.064 C 
ATOM     15  C   UNL     1       2.101   0.462   0.020  0.00  0.00    -0.010 C 
ATOM     16  C   UNL     1       2.013   1.932   0.422  0.00  0.00    +0.034 C 
ATOM     17  C   UNL     1       0.611   2.450   0.236  0.00  0.00    -0.044 A 
ATOM     18  C   UNL     1       0.429   3.826   0.195  0.00  0.00    +0.004 A 
ATOM     19  C   UNL     1      -0.831   4.363   0.033  0.00  0.00    +0.000 A 
ATOM     20  C   UNL     1      -1.923   3.524  -0.091  0.00  0.00    +0.000 A 
ATOM     21  C   UNL     1      -1.744   2.157  -0.059  0.00  0.00    +0.004 A 
ATOM     22  C   UNL     1      -0.476   1.615   0.109  0.00  0.00    -0.046 A 
ATOM     23  C   UNL     1      -0.353   0.114   0.137  0.00  0.00    +0.020 C 
ENDBRANCH  12  14
BRANCH   1  24
ATOM     24  C   UNL     1      -1.621  -3.129  -0.959  0.00  0.00    +0.138 C 
BRANCH  24  25
ATOM     25  C   UNL     1      -2.897  -3.272  -0.128  0.00  0.00    +0.178 C 
BRANCH  25  27
ATOM     26  C   UNL     1      -3.683  -3.513   2.124  0.00  0.00    +0.194 C 
ATOM     27  O   UNL     1      -2.556  -3.375   1.256  0.00  0.00    -0.381 OA
ENDBRANCH  25  27
ENDBRANCH  24  25
ENDBRANCH   1  24
BRANCH   4  28
ATOM     28  C   UNL     1      -0.282  -7.909  -1.247  0.00  0.00    +0.153 C 
BRANCH  28  29
ATOM     29  C   UNL     1      -0.890  -8.637  -0.076  0.00  0.00    -0.026 A 
ATOM     30  C   UNL     1      -0.076  -9.149   0.918  0.00  0.00    +0.005 A 
ATOM     31  C   UNL     1      -0.631  -9.812   1.997  0.00  0.00    +0.004 A 
ATOM     32  C   UNL     1      -2.001  -9.975   2.078  0.00  0.00    +0.045 A 
ATOM     33  C   UNL     1      -2.819  -9.467   1.080  0.00  0.00    +0.120 A 
ATOM     34  C   UNL     1      -2.260  -8.797   0.001  0.00  0.00    +0.050 A 
BRANCH  33  35
ATOM     35  O   UNL     1      -4.167  -9.627   1.157  0.00  0.00    -0.495 OA
ATOM     36  C   UNL     1      -4.673 -10.327   2.296  0.00  0.00    +0.277 C 
ENDBRANCH  33  35
ENDBRANCH  28  29
ENDBRANCH   4  28
TORSDOF 7
