REMARK  Name = ZINC09486931
REMARK  9 active torsions:
REMARK  status: ('A' for Active; 'I' for Inactive)
REMARK    1  A    between atoms: C_1  and  C_2
REMARK    2  A    between atoms: C_2  and  C_4
REMARK    3  A    between atoms: C_7  and  S_10
REMARK    4  A    between atoms: S_10  and  N_13
REMARK    5  A    between atoms: N_13  and  C_14
REMARK    6  A    between atoms: C_14  and  C_15
REMARK    7  A    between atoms: C_15  and  C_16
REMARK    8  A    between atoms: C_16  and  C_17
REMARK    9  A    between atoms: N_19  and  C_20
REMARK                            x       y       z     vdW  Elec       q    Type
REMARK                         _______ _______ _______ _____ _____    ______ ____
ROOT
ATOM      1  C   UNL     1      -1.865   4.977  -3.280  0.00  0.00    +0.097 C 
ENDROOT
BRANCH   1   2
ATOM      2  C   UNL     1      -2.347   5.156  -4.697  0.00  0.00    +0.217 C 
ATOM      3  O   UNL     1      -2.483   4.191  -5.418  0.00  0.00    -0.275 OA
ATOM      4  N   UNL     1      -2.626   6.390  -5.163  0.00  0.00    -0.285 N 
ATOM      5  H   UNL     1      -2.581   7.155  -4.567  0.00  0.00    +0.155 HD
BRANCH   4   6
ATOM      6  C   UNL     1      -2.979   6.568  -6.506  0.00  0.00    +0.037 A 
ATOM      7  C   UNL     1      -2.585   7.715  -7.182  0.00  0.00    +0.027 A 
ATOM      8  C   UNL     1      -2.929   7.891  -8.510  0.00  0.00    +0.051 A 
ATOM      9  C   UNL     1      -3.677   6.929  -9.165  0.00  0.00    +0.167 A 
ATOM     10  C   UNL     1      -4.079   5.778  -8.487  0.00  0.00    +0.169 A 
ATOM     11  C   UNL     1      -3.729   5.600  -7.161  0.00  0.00    +0.072 A 
ATOM     12  O   UNL     1      -4.800   4.997  -9.354  0.00  0.00    -0.447 OA
ATOM     13  C   UNL     1      -4.396   5.459 -10.651  0.00  0.00    +0.254 C 
ATOM     14  O   UNL     1      -4.149   6.858 -10.450  0.00  0.00    -0.448 OA
ATOM     15  C   UNL     1      -5.502   5.234 -11.688  0.00  0.00    +0.093 C 
ATOM     16  C   UNL     1      -4.728   4.907 -12.992  0.00  0.00    +0.008 C 
ATOM     17  C   UNL     1      -3.529   4.068 -12.482  0.00  0.00    +0.008 C 
ATOM     18  C   UNL     1      -3.144   4.733 -11.141  0.00  0.00    +0.093 C 
ENDBRANCH   4   6
ENDBRANCH   1   2
BRANCH   1  19
ATOM     19  C   UNL     1      -1.624   3.491  -3.008  0.00  0.00    +0.026 C 
BRANCH  19  20
ATOM     20  C   UNL     1      -1.135   3.308  -1.570  0.00  0.00    +0.106 C 
BRANCH  20  21
ATOM     21  N   UNL     1      -0.904   1.885  -1.309  0.00  0.00    -0.190 NA
ATOM     22  H   UNL     1      -1.263   1.217  -1.914  0.00  0.00    +0.148 HD
BRANCH  21  23
ATOM     23  S   UNL     1      -0.031   1.418   0.017  0.00  0.00    +0.058 S 
ATOM     24  O   UNL     1      -0.006  -0.003   0.007  0.00  0.00    -0.153 OA
ATOM     25  O   UNL     1       1.155   2.200   0.019  0.00  0.00    -0.153 OA
BRANCH  23  29
ATOM     26  C   UNL     1      -2.397   2.645   3.682  0.00  0.00    +0.017 A 
ATOM     27  C   UNL     1      -2.595   1.385   3.108  0.00  0.00    +0.013 A 
ATOM     28  C   UNL     1      -1.870   1.019   1.993  0.00  0.00    +0.029 A 
ATOM     29  C   UNL     1      -0.951   1.895   1.442  0.00  0.00    +0.105 A 
ATOM     30  C   UNL     1      -0.747   3.142   2.008  0.00  0.00    +0.029 A 
ATOM     31  C   UNL     1      -1.466   3.524   3.120  0.00  0.00    +0.013 A 
BRANCH  26  33
ATOM     32  C   UNL     1      -2.951   4.403   5.487  0.00  0.00    +0.091 C 
ATOM     33  C   UNL     1      -3.167   3.044   4.872  0.00  0.00    +0.160 C 
ATOM     34  O   UNL     1      -3.973   2.280   5.356  0.00  0.00    -0.292 OA
ENDBRANCH  26  33
ENDBRANCH  23  29
ENDBRANCH  21  23
ENDBRANCH  20  21
ENDBRANCH  19  20
ENDBRANCH   1  19
TORSDOF 8
