REMARK  Name = ZINC36530401
REMARK  13 active torsions:
REMARK  status: ('A' for Active; 'I' for Inactive)
REMARK    1  A    between atoms: C_1  and  C_2
REMARK    2  A    between atoms: C_2  and  C_3
REMARK    3  A    between atoms: C_3  and  C_4
REMARK    4  A    between atoms: C_4  and  N_5
REMARK    5  A    between atoms: C_6  and  C_8
REMARK    6  A    between atoms: C_8  and  C_10
REMARK    7  A    between atoms: C_8  and  N_19
REMARK    8  A    between atoms: C_11  and  O_18
REMARK    9  A    between atoms: C_13  and  O_17
REMARK   10  A    between atoms: C_15  and  O_16
REMARK   11  A    between atoms: N_19  and  C_20
REMARK   12  A    between atoms: C_21  and  C_23
REMARK   13  A    between atoms: C_24  and  C_25
REMARK                            x       y       z     vdW  Elec       q    Type
REMARK                         _______ _______ _______ _____ _____    ______ ____
ROOT
ATOM      1  C   UNL     1      -4.366  -4.487  -0.095  0.00  0.00    +0.200 C 
ENDROOT
BRANCH   1   2
ATOM      2  C   UNL     1      -5.188  -3.816   0.975  0.00  0.00    +0.065 A 
ATOM      3  C   UNL     1      -5.242  -4.358   2.250  0.00  0.00    +0.129 A 
ATOM      4  C   UNL     1      -5.998  -3.740   3.234  0.00  0.00    +0.091 A 
ATOM      5  C   UNL     1      -6.699  -2.579   2.944  0.00  0.00    +0.124 A 
ATOM      6  C   UNL     1      -6.644  -2.036   1.669  0.00  0.00    +0.091 A 
ATOM      7  C   UNL     1      -5.884  -2.652   0.686  0.00  0.00    +0.129 A 
BRANCH   7   8
ATOM      8  O   UNL     1      -5.826  -2.117  -0.562  0.00  0.00    -0.506 OA
ATOM      9  H   UNL     1      -6.512  -2.442  -1.162  0.00  0.00    +0.292 HD
ENDBRANCH   7   8
BRANCH   5  10
ATOM     10  O   UNL     1      -7.441  -1.974   3.909  0.00  0.00    -0.507 OA
ATOM     11  H   UNL     1      -6.955  -1.317   4.424  0.00  0.00    +0.292 HD
ENDBRANCH   5  10
BRANCH   3  12
ATOM     12  O   UNL     1      -4.556  -5.496   2.534  0.00  0.00    -0.506 OA
ATOM     13  H   UNL     1      -3.687  -5.342   2.930  0.00  0.00    +0.292 HD
ENDBRANCH   3  12
ENDBRANCH   1   2
BRANCH   1  15
ATOM     14  N   UNL     1      -2.206  -3.706   0.824  0.00  0.00    -0.313 N 
ATOM     15  C   UNL     1      -2.974  -4.739   0.424  0.00  0.00    +0.238 C 
ATOM     16  O   UNL     1      -2.544  -5.872   0.483  0.00  0.00    -0.273 OA
ATOM     17  H   UNL     1      -2.550  -2.800   0.776  0.00  0.00    +0.149 HD
BRANCH  14  18
ATOM     18  C   UNL     1      -0.853  -3.950   1.329  0.00  0.00    +0.104 C 
BRANCH  18  19
ATOM     19  C   UNL     1      -0.203  -2.619   1.711  0.00  0.00    +0.018 C 
BRANCH  19  21
ATOM     20  C   UNL     1       1.861  -1.544   2.620  0.00  0.00    +0.004 C 
ATOM     21  C   UNL     1       1.210  -2.875   2.238  0.00  0.00    -0.002 C 
ENDBRANCH  19  21
ENDBRANCH  18  19
ENDBRANCH  14  18
ENDBRANCH   1  15
BRANCH   1  22
ATOM     22  N   UNL     1      -4.989  -5.762  -0.461  0.00  0.00    -0.278 N 
ATOM     23  C   UNL     1      -5.042  -6.857   0.511  0.00  0.00    +0.134 C 
ATOM     24  C   UNL     1      -5.512  -5.927  -1.692  0.00  0.00    +0.292 C 
ATOM     25  O   UNL     1      -5.468  -5.018  -2.499  0.00  0.00    -0.260 OA
BRANCH  24  26
ATOM     26  C   UNL     1      -6.121  -7.173  -2.050  0.00  0.00    -0.003 C 
ATOM     27  C   UNL     1      -6.620  -8.195  -2.343  0.00  0.00    -0.057 C 
BRANCH  27  28
ATOM     28  C   UNL     1      -7.228  -9.441  -2.700  0.00  0.00    +0.025 A 
ATOM     29  C   UNL     1      -7.287 -10.486  -1.773  0.00  0.00    +0.017 A 
ATOM     30  C   UNL     1      -7.875 -11.683  -2.125  0.00  0.00    +0.001 A 
ATOM     31  C   UNL     1      -8.406 -11.851  -3.392  0.00  0.00    +0.000 A 
ATOM     32  C   UNL     1      -8.352 -10.821  -4.315  0.00  0.00    +0.001 A 
ATOM     33  C   UNL     1      -7.773  -9.616  -3.977  0.00  0.00    +0.017 A 
ENDBRANCH  27  28
ENDBRANCH  24  26
ENDBRANCH   1  22
TORSDOF 11
