REMARK  Name = ZINC08998129
REMARK  10 active torsions:
REMARK  status: ('A' for Active; 'I' for Inactive)
REMARK    1  A    between atoms: C_1  and  C_2
REMARK    2  A    between atoms: C_2  and  O_3
REMARK    3  A    between atoms: O_3  and  C_4
REMARK    4  A    between atoms: C_4  and  C_5
REMARK    5  A    between atoms: C_5  and  N_6
REMARK    6  A    between atoms: N_15  and  C_16
REMARK    7  A    between atoms: C_16  and  C_18
REMARK    8  A    between atoms: C_21  and  C_24
REMARK    9  A    between atoms: C_24  and  O_26
REMARK   10  A    between atoms: O_26  and  C_27
REMARK                            x       y       z     vdW  Elec       q    Type
REMARK                         _______ _______ _______ _____ _____    ______ ____
ROOT
ATOM      1  N   UNL     1      -0.235   1.244   4.841  0.00  0.00    -0.319 N 
ATOM      2  C   UNL     1      -0.620   0.056   5.434  0.00  0.00    +0.058 A 
ATOM      3  C   UNL     1      -1.586  -0.863   4.995  0.00  0.00    +0.028 A 
ATOM      4  C   UNL     1      -1.847  -2.005   5.714  0.00  0.00    +0.017 A 
ATOM      5  C   UNL     1      -1.169  -2.285   6.890  0.00  0.00    +0.019 A 
ATOM      6  C   UNL     1      -0.205  -1.400   7.341  0.00  0.00    +0.032 A 
ATOM      7  C   UNL     1       0.053  -0.255   6.625  0.00  0.00    +0.040 A 
ATOM      8  S   UNL     1       1.157   1.119   6.840  0.00  0.00    -0.052 S 
ATOM      9  C   UNL     1       0.724   2.016   5.420  0.00  0.00    +0.167 A 
ATOM     10  N   UNL     1       1.212   3.178   4.999  0.00  0.00    -0.152 NA
ATOM     11 BR   UNL     1      -1.548  -3.863   7.860  0.00  0.00    -0.050 Br
ENDROOT
BRANCH  10  12
ATOM     12  C   UNL     1       2.161   3.800   5.705  0.00  0.00    +0.269 C 
ATOM     13  O   UNL     1       2.579   3.301   6.735  0.00  0.00    -0.268 OA
BRANCH  12  14
ATOM     14  C   UNL     1       2.705   5.096   5.235  0.00  0.00    +0.039 A 
ATOM     15  C   UNL     1       2.231   5.664   4.052  0.00  0.00    +0.014 A 
ATOM     16  C   UNL     1       2.733   6.871   3.618  0.00  0.00    +0.016 A 
ATOM     17  C   UNL     1       3.724   7.521   4.355  0.00  0.00    +0.059 A 
ATOM     18  C   UNL     1       4.203   6.949   5.536  0.00  0.00    +0.016 A 
ATOM     19  C   UNL     1       3.696   5.745   5.972  0.00  0.00    +0.014 A 
BRANCH  17  20
ATOM     20  C   UNL     1       4.268   8.813   3.886  0.00  0.00    +0.339 C 
ATOM     21  O   UNL     1       5.131   9.378   4.528  0.00  0.00    -0.245 OA
BRANCH  20  22
ATOM     22  O   UNL     1       3.806   9.364   2.747  0.00  0.00    -0.464 OA
ATOM     23  C   UNL     1       4.386  10.634   2.347  0.00  0.00    +0.280 C 
ENDBRANCH  20  22
ENDBRANCH  17  20
ENDBRANCH  12  14
ENDBRANCH  10  12
BRANCH   1  24
ATOM     24  C   UNL     1      -0.864   1.675   3.590  0.00  0.00    +0.152 C 
BRANCH  24  25
ATOM     25  C   UNL     1      -0.068   1.127   2.404  0.00  0.00    +0.181 C 
BRANCH  25  26
ATOM     26  O   UNL     1      -0.682   1.547   1.184  0.00  0.00    -0.378 OA
BRANCH  26  28
ATOM     27  C   UNL     1      -0.753   1.593  -1.232  0.00  0.00    +0.034 C 
ATOM     28  C   UNL     1      -0.013   1.086   0.008  0.00  0.00    +0.156 C 
ENDBRANCH  26  28
ENDBRANCH  25  26
ENDBRANCH  24  25
ENDBRANCH   1  24
TORSDOF 8
