REMARK  Name = ZINC06301675
REMARK  7 active torsions:
REMARK  status: ('A' for Active; 'I' for Inactive)
REMARK    1  A    between atoms: C_1  and  C_2
REMARK    2  A    between atoms: C_4  and  C_38
REMARK    3  A    between atoms: C_7  and  C_14
REMARK    4  A    between atoms: C_14  and  C_16
REMARK    5  A    between atoms: C_14  and  N_74
REMARK    6  A    between atoms: N_20  and  C_21
REMARK    7  A    between atoms: C_21  and  C_22
REMARK                            x       y       z     vdW  Elec       q    Type
REMARK                         _______ _______ _______ _____ _____    ______ ____
ROOT
ATOM      1  C   UNL     1       2.563  -3.764  -1.339  0.00  0.00    +0.039 C 
ENDROOT
BRANCH   1   8
ATOM      2  C   UNL     1       3.089  -0.767  -8.712  0.00  0.00    +0.044 C 
ATOM      3  C   UNL     1       3.134  -1.160  -7.258  0.00  0.00    -0.048 A 
ATOM      4  C   UNL     1       3.901  -0.418  -6.369  0.00  0.00    +0.007 A 
ATOM      5  C   UNL     1       3.955  -0.757  -5.047  0.00  0.00    -0.041 A 
ATOM      6  C   UNL     1       3.232  -1.862  -4.584  0.00  0.00    +0.002 A 
ATOM      7  C   UNL     1       3.268  -2.253  -3.174  0.00  0.00    +0.018 A 
ATOM      8  C   UNL     1       2.548  -3.333  -2.783  0.00  0.00    +0.011 A 
ATOM      9  C   UNL     1       1.788  -4.060  -3.725  0.00  0.00    +0.251 A 
ATOM     10  O   UNL     1       1.151  -5.030  -3.353  0.00  0.00    -0.268 OA
ATOM     11  N   UNL     1       1.744  -3.704  -5.021  0.00  0.00    -0.322 N 
ATOM     12  H   UNL     1       1.208  -4.223  -5.641  0.00  0.00    +0.169 HD
ATOM     13  C   UNL     1       2.454  -2.616  -5.482  0.00  0.00    +0.050 A 
ATOM     14  C   UNL     1       2.413  -2.251  -6.824  0.00  0.00    +0.029 A 
ATOM     15  C   UNL     1       4.791   0.055  -4.091  0.00  0.00    +0.044 C 
ENDBRANCH   1   8
BRANCH   1  26
ATOM     16  C   UNL     1       3.025  -5.620   0.145  0.00  0.00    -0.077 C 
ATOM     17  C   UNL     1       3.285  -7.127   0.193  0.00  0.00    -0.018 C 
ATOM     18  C   UNL     1       4.598  -7.436  -0.531  0.00  0.00    +0.003 C 
ATOM     19  C   UNL     1       4.509  -6.924  -1.971  0.00  0.00    -0.044 C 
ATOM     20  C   UNL     1       4.214  -5.423  -1.957  0.00  0.00    -0.071 C 
ATOM     21  C   UNL     1       3.385  -7.659  -2.705  0.00  0.00    +0.005 C 
ATOM     22  C   UNL     1       3.680  -9.160  -2.715  0.00  0.00    +0.000 C 
ATOM     23  C   UNL     1       5.009  -9.415  -3.429  0.00  0.00    +0.000 C 
ATOM     24  C   UNL     1       6.132  -8.680  -2.695  0.00  0.00    +0.000 C 
ATOM     25  C   UNL     1       5.838  -7.178  -2.686  0.00  0.00    +0.005 C 
ATOM     26  N   UNL     1       2.926  -5.194  -1.267  0.00  0.00    +0.390 N 
ATOM     27  H   UNL     1       2.197  -5.747  -1.732  0.00  0.00    -0.080 HD
ENDBRANCH   1  26
BRANCH   1  28
ATOM     28  C   UNL     1       1.190  -3.580  -0.746  0.00  0.00    +0.143 A 
ATOM     29  N   UNL     1       0.140  -4.335  -0.955  0.00  0.00    -0.115 NA
ATOM     30  N   UNL     1      -0.841  -3.853  -0.272  0.00  0.00    -0.023 NA
ATOM     31  N   UNL     1      -0.441  -2.812   0.372  0.00  0.00    -0.044 NA
ATOM     32  N   UNL     1       0.804  -2.608   0.102  0.00  0.00    -0.228 N 
BRANCH  32  33
ATOM     33  C   UNL     1       1.642  -1.526   0.624  0.00  0.00    +0.178 C 
BRANCH  33  34
ATOM     34  C   UNL     1       1.561  -0.320  -0.314  0.00  0.00    +0.140 C 
ATOM     35  C   UNL     1       2.483   0.819   0.189  0.00  0.00    +0.035 C 
ATOM     36  C   UNL     1       1.795   2.058  -0.446  0.00  0.00    +0.031 C 
ATOM     37  C   UNL     1       0.303   1.663  -0.401  0.00  0.00    +0.160 C 
ATOM     38  O   UNL     1       0.236   0.236  -0.299  0.00  0.00    -0.375 OA
ENDBRANCH  33  34
ENDBRANCH  32  33
ENDBRANCH   1  28
TORSDOF 5
