REMARK  Name = ZINC54201020
REMARK  8 active torsions:
REMARK  status: ('A' for Active; 'I' for Inactive)
REMARK    1  A    between atoms: C_4  and  C_7
REMARK    2  A    between atoms: C_7  and  C_8
REMARK    3  A    between atoms: C_8  and  C_10
REMARK    4  A    between atoms: C_8  and  N_22
REMARK    5  A    between atoms: N_12  and  C_13
REMARK    6  A    between atoms: C_16  and  N_19
REMARK    7  A    between atoms: N_22  and  S_23
REMARK    8  A    between atoms: S_23  and  C_26
REMARK                            x       y       z     vdW  Elec       q    Type
REMARK                         _______ _______ _______ _____ _____    ______ ____
ROOT
ATOM      1  C   UNL     1       4.127  -0.847   1.337  0.00  0.00    +0.167 C 
ENDROOT
BRANCH   1   2
ATOM      2  C   UNL     1       5.584  -1.225   1.399  0.00  0.00    +0.236 C 
ATOM      3  O   UNL     1       5.933  -2.192   2.043  0.00  0.00    -0.274 OA
ATOM      4  N   UNL     1       6.500  -0.488   0.740  0.00  0.00    -0.284 N 
ATOM      5  H   UNL     1       6.216   0.248   0.176  0.00  0.00    +0.155 HD
BRANCH   4   6
ATOM      6  C   UNL     1       7.862  -0.785   0.870  0.00  0.00    +0.034 A 
ATOM      7  C   UNL     1       8.799   0.239   0.879  0.00  0.00    +0.025 A 
ATOM      8  C   UNL     1      10.142  -0.058   1.007  0.00  0.00    +0.034 A 
ATOM      9  C   UNL     1      10.553  -1.372   1.126  0.00  0.00    +0.126 A 
ATOM     10  C   UNL     1       9.622  -2.395   1.117  0.00  0.00    +0.034 A 
ATOM     11  C   UNL     1       8.277  -2.104   0.995  0.00  0.00    +0.025 A 
BRANCH   9  12
ATOM     12  N   UNL     1      11.993  -1.687   1.264  0.00  0.00    +0.056 N 
ATOM     13  O   UNL     1      12.809  -0.794   1.271  0.00  0.00    -0.126 OA
ATOM     14  O   UNL     1      12.354  -2.836   1.368  0.00  0.00    -0.126 OA
ENDBRANCH   9  12
ENDBRANCH   4   6
ENDBRANCH   1   2
BRANCH   1  15
ATOM     15  N   UNL     1       3.341  -1.796   2.129  0.00  0.00    -0.178 NA
ATOM     16  H   UNL     1       3.052  -2.634   1.735  0.00  0.00    +0.149 HD
BRANCH  15  17
ATOM     17  S   UNL     1       2.948  -1.439   3.698  0.00  0.00    +0.059 S 
ATOM     18  O   UNL     1       2.168  -2.525   4.178  0.00  0.00    -0.153 OA
ATOM     19  O   UNL     1       4.149  -1.024   4.333  0.00  0.00    -0.153 OA
BRANCH  17  20
ATOM     20  C   UNL     1       1.886  -0.034   3.661  0.00  0.00    +0.105 A 
ATOM     21  C   UNL     1       2.425   1.239   3.620  0.00  0.00    +0.029 A 
ATOM     22  C   UNL     1       1.593   2.342   3.591  0.00  0.00    +0.017 A 
ATOM     23  C   UNL     1       0.220   2.172   3.603  0.00  0.00    +0.018 A 
ATOM     24  C   UNL     1      -0.319   0.899   3.644  0.00  0.00    +0.017 A 
ATOM     25  C   UNL     1       0.514  -0.204   3.668  0.00  0.00    +0.029 A 
ATOM     26 BR   UNL     1      -0.920   3.681   3.564  0.00  0.00    -0.050 Br
ENDBRANCH  17  20
ENDBRANCH  15  17
ENDBRANCH   1  15
BRANCH   1  27
ATOM     27  C   UNL     1       3.653  -0.882  -0.118  0.00  0.00    +0.065 C 
BRANCH  27  31
ATOM     28  C   UNL     1      -0.412   0.416  -0.325  0.00  0.00    +0.000 A 
ATOM     29  C   UNL     1       0.612   1.345  -0.334  0.00  0.00    +0.000 A 
ATOM     30  C   UNL     1       1.927   0.925  -0.266  0.00  0.00    +0.004 A 
ATOM     31  C   UNL     1       2.219  -0.424  -0.190  0.00  0.00    -0.045 A 
ATOM     32  C   UNL     1       1.195  -1.353  -0.181  0.00  0.00    +0.004 A 
ATOM     33  C   UNL     1      -0.120  -0.933  -0.250  0.00  0.00    +0.000 A 
ENDBRANCH  27  31
ENDBRANCH   1  27
TORSDOF 8
