REMARK  Name = ZINC39868851
REMARK  9 active torsions:
REMARK  status: ('A' for Active; 'I' for Inactive)
REMARK    1  A    between atoms: C_1  and  C_2
REMARK    2  A    between atoms: C_2  and  C_3
REMARK    3  A    between atoms: C_3  and  O_4
REMARK    4  A    between atoms: O_4  and  C_5
REMARK    5  A    between atoms: C_8  and  C_12
REMARK    6  A    between atoms: N_14  and  C_15
REMARK    7  A    between atoms: C_16  and  C_23
REMARK    8  A    between atoms: N_25  and  C_26
REMARK    9  A    between atoms: C_26  and  C_27
REMARK                            x       y       z     vdW  Elec       q    Type
REMARK                         _______ _______ _______ _____ _____    ______ ____
ROOT
ATOM      1  C   UNL     1       5.157  -5.323  -6.654  0.00  0.00    +0.085 A 
ATOM      2  C   UNL     1       6.482  -5.700  -6.775  0.00  0.00    +0.069 A 
ATOM      3  C   UNL     1       6.885  -6.338  -8.027  0.00  0.00    -0.023 A 
ATOM      4  C   UNL     1       5.887  -6.475  -8.919  0.00  0.00    -0.004 A 
ATOM      5  S   UNL     1       4.465  -5.788  -8.109  0.00  0.00    -0.077 S 
ATOM      6  C   UNL     1       6.356  -7.132 -10.189  0.00  0.00    +0.043 C 
ATOM      7  C   UNL     1       7.895  -7.008 -10.147  0.00  0.00    +0.010 C 
ATOM      8  C   UNL     1       8.163  -6.915  -8.632  0.00  0.00    +0.037 C 
ENDROOT
BRANCH   1  11
ATOM      9  C   UNL     1       3.228  -4.414  -5.627  0.00  0.00    +0.249 C 
ATOM     10  O   UNL     1       2.582  -4.689  -6.620  0.00  0.00    -0.270 OA
ATOM     11  N   UNL     1       4.542  -4.707  -5.575  0.00  0.00    -0.275 N 
ATOM     12  H   UNL     1       5.057  -4.488  -4.783  0.00  0.00    +0.156 HD
BRANCH   9  16
ATOM     13  C   UNL     1       1.341  -2.529  -2.321  0.00  0.00    +0.157 A 
ATOM     14  C   UNL     1       0.601  -2.842  -3.456  0.00  0.00    +0.085 A 
ATOM     15  C   UNL     1       1.209  -3.454  -4.531  0.00  0.00    +0.036 A 
ATOM     16  C   UNL     1       2.572  -3.759  -4.479  0.00  0.00    +0.040 A 
ATOM     17  C   UNL     1       3.313  -3.442  -3.337  0.00  0.00    +0.036 A 
ATOM     18  C   UNL     1       2.698  -2.825  -2.268  0.00  0.00    +0.085 A 
ATOM     19 CL   UNL     1       3.619  -2.425  -0.852  0.00  0.00    -0.080 Cl
ATOM     20 CL   UNL     1      -1.092  -2.463  -3.519  0.00  0.00    -0.080 Cl
BRANCH  13  21
ATOM     21  O   UNL     1       0.738  -1.926  -1.265  0.00  0.00    -0.489 OA
BRANCH  21  22
ATOM     22  C   UNL     1       0.718  -0.497  -1.257  0.00  0.00    +0.229 C 
BRANCH  22  24
ATOM     23  C   UNL     1      -0.019   1.526   0.010  0.00  0.00    +0.007 C 
ATOM     24  C   UNL     1       0.002  -0.004   0.002  0.00  0.00    +0.038 C 
ENDBRANCH  22  24
ENDBRANCH  21  22
ENDBRANCH  13  21
ENDBRANCH   9  16
ENDBRANCH   1  11
BRANCH   2  25
ATOM     25  C   UNL     1       7.444  -5.469  -5.693  0.00  0.00    +0.247 C 
ATOM     26  O   UNL     1       7.612  -6.318  -4.837  0.00  0.00    -0.270 OA
ATOM     27  N   UNL     1       8.142  -4.317  -5.646  0.00  0.00    -0.304 N 
ATOM     28  H   UNL     1       8.008  -3.641  -6.328  0.00  0.00    +0.149 HD
BRANCH  27  29
ATOM     29  C   UNL     1       9.102  -4.086  -4.564  0.00  0.00    +0.179 C 
BRANCH  29  30
ATOM     30  C   UNL     1       9.743  -2.734  -4.741  0.00  0.00    +0.122 A 
ATOM     31  C   UNL     1       9.293  -1.576  -4.226  0.00  0.00    +0.046 A 
ATOM     32  C   UNL     1      10.192  -0.566  -4.639  0.00  0.00    +0.041 A 
ATOM     33  C   UNL     1      11.138  -1.168  -5.382  0.00  0.00    +0.195 A 
ATOM     34  O   UNL     1      10.865  -2.482  -5.436  0.00  0.00    -0.466 OA
ENDBRANCH  29  30
ENDBRANCH  27  29
ENDBRANCH   2  25
TORSDOF 8
