REMARK  Name = ZINC14548409
REMARK  6 active torsions:
REMARK  status: ('A' for Active; 'I' for Inactive)
REMARK    1  A    between atoms: C_4  and  C_7
REMARK    2  A    between atoms: C_7  and  C_8
REMARK    3  A    between atoms: C_8  and  N_9
REMARK    4  A    between atoms: N_9  and  S_10
REMARK    5  A    between atoms: S_10  and  C_13
REMARK    6  A    between atoms: C_26  and  C_29
REMARK                            x       y       z     vdW  Elec       q    Type
REMARK                         _______ _______ _______ _____ _____    ______ ____
ROOT
ATOM      1  C   UNL     1       4.111   7.700  -0.815  0.00  0.00    +0.106 A 
ATOM      2  C   UNL     1       4.329   6.884  -1.910  0.00  0.00    +0.030 A 
ATOM      3  C   UNL     1       3.799   5.610  -1.930  0.00  0.00    +0.025 A 
ATOM      4  C   UNL     1       3.050   5.151  -0.853  0.00  0.00    +0.031 A 
ATOM      5  C   UNL     1       2.832   5.964   0.248  0.00  0.00    -0.018 A 
ATOM      6  C   UNL     1       3.368   7.245   0.256  0.00  0.00    +0.034 A 
ATOM      7  C   UNL     1       2.039   5.511   1.433  0.00  0.00    +0.049 C 
ATOM      8  C   UNL     1       0.667   6.141   1.454  0.00  0.00    -0.023 C 
ATOM      9  C   UNL     1      -0.217   5.289   1.911  0.00  0.00    -0.030 C 
ATOM     10  C   UNL     1       0.448   3.972   2.263  0.00  0.00    +0.033 C 
ATOM     11  C   UNL     1       1.759   3.995   1.425  0.00  0.00    +0.029 C 
ATOM     12  C   UNL     1       1.402   3.539   0.007  0.00  0.00    +0.111 C 
ATOM     13  N   UNL     1       2.517   3.858  -0.890  0.00  0.00    -0.336 N 
ATOM     14  H   UNL     1       2.877   3.189  -1.494  0.00  0.00    +0.147 HD
ENDROOT
BRANCH  12  15
ATOM     15  C   UNL     1       1.160   2.051   0.002  0.00  0.00    +0.010 A 
ATOM     16  C   UNL     1      -0.017   1.378   0.010  0.00  0.00    +0.013 A 
ATOM     17  C   UNL     1       0.002  -0.004   0.002  0.00  0.00    +0.008 A 
ATOM     18  C   UNL     1       1.196  -0.645  -0.013  0.00  0.00    +0.045 A 
ATOM     19  S   UNL     1       2.348   0.719  -0.017  0.00  0.00    -0.100 S 
ENDBRANCH  12  15
BRANCH   1  20
ATOM     20  S   UNL     1       4.784   9.328  -0.786  0.00  0.00    +0.058 S 
ATOM     21  O   UNL     1       4.898   9.696   0.582  0.00  0.00    -0.153 OA
ATOM     22  O   UNL     1       5.897   9.324  -1.669  0.00  0.00    -0.153 OA
BRANCH  20  23
ATOM     23  N   UNL     1       3.653  10.337  -1.454  0.00  0.00    -0.190 NA
ATOM     24  H   UNL     1       3.844  10.795  -2.288  0.00  0.00    +0.148 HD
BRANCH  23  25
ATOM     25  C   UNL     1       2.364  10.538  -0.787  0.00  0.00    +0.110 C 
BRANCH  25  26
ATOM     26  C   UNL     1       1.669  11.765  -1.380  0.00  0.00    +0.052 C 
BRANCH  26  30
ATOM     27  C   UNL     1      -2.089  12.351   0.565  0.00  0.00    +0.000 A 
ATOM     28  C   UNL     1      -0.950  12.951   1.067  0.00  0.00    +0.000 A 
ATOM     29  C   UNL     1       0.266  12.762   0.438  0.00  0.00    +0.003 A 
ATOM     30  C   UNL     1       0.343  11.971  -0.694  0.00  0.00    -0.046 A 
ATOM     31  C   UNL     1      -0.797  11.374  -1.199  0.00  0.00    +0.003 A 
ATOM     32  C   UNL     1      -2.012  11.560  -0.567  0.00  0.00    +0.000 A 
ENDBRANCH  26  30
ENDBRANCH  25  26
ENDBRANCH  23  25
ENDBRANCH  20  23
ENDBRANCH   1  20
TORSDOF 6
