REMARK  Name = ZINC20698042
REMARK  7 active torsions:
REMARK  status: ('A' for Active; 'I' for Inactive)
REMARK    1  A    between atoms: C_1  and  C_2
REMARK    2  A    between atoms: C_2  and  C_3
REMARK    3  A    between atoms: C_2  and  C_4
REMARK    4  A    between atoms: C_7  and  C_10
REMARK    5  A    between atoms: C_23  and  C_26
REMARK    6  A    between atoms: N_28  and  C_29
REMARK    7  A    between atoms: C_29  and  C_30
REMARK                            x       y       z     vdW  Elec       q    Type
REMARK                         _______ _______ _______ _____ _____    ______ ____
ROOT
ATOM      1  C   UNL     1      -4.905   3.647   0.084  0.00  0.00    +0.105 C 
ATOM      2  C   UNL     1      -6.102   3.306  -0.779  0.00  0.00    +0.029 C 
ATOM      3  C   UNL     1      -7.337   4.213  -0.722  0.00  0.00    +0.033 C 
ATOM      4  C   UNL     1      -8.457   3.221  -1.050  0.00  0.00    -0.030 C 
ATOM      5  C   UNL     1      -8.083   2.001  -0.720  0.00  0.00    -0.023 C 
ATOM      6  C   UNL     1      -6.740   2.059  -0.091  0.00  0.00    +0.049 C 
ATOM      7  C   UNL     1      -5.756   0.961  -0.207  0.00  0.00    -0.019 A 
ATOM      8  C   UNL     1      -6.148  -0.353  -0.344  0.00  0.00    +0.006 A 
ATOM      9  C   UNL     1      -5.211  -1.369  -0.431  0.00  0.00    +0.001 A 
ATOM     10  C   UNL     1      -3.868  -1.069  -0.373  0.00  0.00    +0.015 A 
ATOM     11  C   UNL     1      -3.452   0.254  -0.236  0.00  0.00    +0.058 A 
ATOM     12  C   UNL     1      -4.400   1.296  -0.158  0.00  0.00    +0.044 A 
ATOM     13  N   UNL     1      -3.917   2.573  -0.104  0.00  0.00    -0.336 N 
ATOM     14  H   UNL     1      -2.848   2.818  -0.193  0.00  0.00    +0.147 HD
ENDROOT
BRANCH   1  18
ATOM     15  C   UNL     1      -6.077   3.851   4.187  0.00  0.00    -0.045 A 
ATOM     16  C   UNL     1      -5.567   2.675   3.672  0.00  0.00    +0.004 A 
ATOM     17  C   UNL     1      -5.187   2.608   2.344  0.00  0.00    +0.006 A 
ATOM     18  C   UNL     1      -5.319   3.719   1.531  0.00  0.00    -0.027 A 
ATOM     19  C   UNL     1      -5.825   4.897   2.048  0.00  0.00    +0.006 A 
ATOM     20  C   UNL     1      -6.209   4.962   3.374  0.00  0.00    +0.004 A 
BRANCH  15  22
ATOM     21  C   UNL     1      -5.671   5.001   6.346  0.00  0.00    +0.012 C 
ATOM     22  C   UNL     1      -6.491   3.923   5.634  0.00  0.00    +0.013 C 
ATOM     23  C   UNL     1      -7.978   4.273   5.723  0.00  0.00    +0.012 C 
ENDBRANCH  15  22
ENDBRANCH   1  18
BRANCH  11  24
ATOM     24  C   UNL     1      -2.013   0.566  -0.167  0.00  0.00    +0.246 C 
ATOM     25  O   UNL     1      -1.646   1.719  -0.047  0.00  0.00    -0.270 OA
ATOM     26  N   UNL     1      -1.104  -0.427  -0.236  0.00  0.00    -0.309 N 
ATOM     27  H   UNL     1      -1.436  -1.470  -0.339  0.00  0.00    +0.149 HD
BRANCH  26  28
ATOM     28  C   UNL     1       0.326  -0.116  -0.173  0.00  0.00    +0.136 C 
BRANCH  28  29
ATOM     29  C   UNL     1       1.135  -1.411  -0.279  0.00  0.00    +0.135 C 
ATOM     30  C   UNL     1       2.641  -1.095  -0.206  0.00  0.00    +0.035 C 
ATOM     31  C   UNL     1       3.140  -1.906   1.015  0.00  0.00    +0.031 C 
ATOM     32  C   UNL     1       2.036  -2.984   1.162  0.00  0.00    +0.160 C 
ATOM     33  O   UNL     1       0.822  -2.274   0.827  0.00  0.00    -0.375 OA
ENDBRANCH  28  29
ENDBRANCH  26  28
ENDBRANCH  11  24
TORSDOF 5
