REMARK  Name = ZINC00883562
REMARK  6 active torsions:
REMARK  status: ('A' for Active; 'I' for Inactive)
REMARK    1  A    between atoms: C_8  and  C_12
REMARK    2  A    between atoms: N_14  and  C_15
REMARK    3  A    between atoms: N_14  and  C_24
REMARK    4  A    between atoms: C_24  and  C_26
REMARK    5  A    between atoms: C_24  and  C_31
REMARK    6  A    between atoms: N_33  and  C_34
REMARK                            x       y       z     vdW  Elec       q    Type
REMARK                         _______ _______ _______ _____ _____    ______ ____
ROOT
ATOM      1  C   UNL     1      -2.820  -4.047   0.285  0.00  0.00    +0.259 C 
ATOM      2  O   UNL     1      -2.907  -3.725  -0.885  0.00  0.00    -0.269 OA
ATOM      3  N   UNL     1      -1.828  -3.549   1.049  0.00  0.00    -0.251 N 
ENDROOT
BRANCH   1  11
ATOM      4  C   UNL     1      -6.404  -6.625   4.556  0.00  0.00    +0.001 A 
ATOM      5  C   UNL     1      -6.953  -7.599   3.732  0.00  0.00    +0.004 A 
ATOM      6  C   UNL     1      -6.587  -7.684   2.406  0.00  0.00    +0.047 A 
ATOM      7  C   UNL     1      -5.660  -6.790   1.881  0.00  0.00    +0.139 A 
ATOM      8  C   UNL     1      -5.106  -5.804   2.717  0.00  0.00    +0.018 A 
ATOM      9  C   UNL     1      -5.493  -5.736   4.064  0.00  0.00    +0.011 A 
ATOM     10  C   UNL     1      -4.155  -4.888   2.201  0.00  0.00    +0.031 A 
ATOM     11  C   UNL     1      -3.800  -4.980   0.866  0.00  0.00    +0.122 A 
ATOM     12  C   UNL     1      -4.412  -6.029   0.042  0.00  0.00    +0.350 A 
ATOM     13  O   UNL     1      -4.111  -6.131  -1.133  0.00  0.00    -0.244 OA
ATOM     14  O   UNL     1      -5.304  -6.876   0.581  0.00  0.00    -0.422 OA
ENDBRANCH   1  11
BRANCH   3  15
ATOM     15  C   UNL     1      -1.802  -3.817   2.424  0.00  0.00    +0.041 A 
ATOM     16  C   UNL     1      -1.581  -5.111   2.875  0.00  0.00    +0.027 A 
ATOM     17  C   UNL     1      -1.555  -5.376   4.231  0.00  0.00    +0.051 A 
ATOM     18  C   UNL     1      -1.749  -4.352   5.144  0.00  0.00    +0.166 A 
ATOM     19  C   UNL     1      -1.970  -3.053   4.694  0.00  0.00    +0.168 A 
ATOM     20  C   UNL     1      -1.990  -2.786   3.335  0.00  0.00    +0.073 A 
ATOM     21  O   UNL     1      -2.129  -2.237   5.777  0.00  0.00    -0.453 OA
ATOM     22  C   UNL     1      -1.597  -2.973   6.894  0.00  0.00    +0.466 C 
ATOM     23  O   UNL     1      -1.769  -4.350   6.510  0.00  0.00    -0.453 OA
ENDBRANCH   3  15
BRANCH   3  24
ATOM     24  C   UNL     1      -0.777  -2.728   0.443  0.00  0.00    +0.204 C 
BRANCH  24  25
ATOM     25  C   UNL     1       0.549  -3.063   1.075  0.00  0.00    +0.019 A 
ATOM     26  C   UNL     1       1.724  -3.380   0.477  0.00  0.00    +0.013 A 
ATOM     27  C   UNL     1       2.825  -3.652   1.267  0.00  0.00    +0.008 A 
ATOM     28  C   UNL     1       2.699  -3.594   2.615  0.00  0.00    +0.045 A 
ATOM     29  S   UNL     1       0.983  -3.137   2.805  0.00  0.00    -0.099 S 
ENDBRANCH  24  25
BRANCH  24  30
ATOM     30  C   UNL     1      -1.087  -1.270   0.665  0.00  0.00    +0.239 C 
ATOM     31  O   UNL     1      -2.145  -0.944   1.160  0.00  0.00    -0.273 OA
ATOM     32  N   UNL     1      -0.187  -0.330   0.316  0.00  0.00    -0.311 N 
ATOM     33  H   UNL     1       0.659  -0.591  -0.079  0.00  0.00    +0.149 HD
BRANCH  32  34
ATOM     34  C   UNL     1      -0.488   1.088   0.533  0.00  0.00    +0.073 C 
ATOM     35  C   UNL     1      -1.238   1.661  -0.687  0.00  0.00    +0.022 C 
ATOM     36  C   UNL     1      -0.681   3.099  -0.834  0.00  0.00    +0.002 C 
ATOM     37  C   UNL     1       0.817   2.923  -0.483  0.00  0.00    +0.002 C 
ATOM     38  C   UNL     1       0.818   1.890   0.663  0.00  0.00    +0.022 C 
ENDBRANCH  32  34
ENDBRANCH  24  30
ENDBRANCH   3  24
TORSDOF 6
