REMARK  Name = ZINC12378221
REMARK  7 active torsions:
REMARK  status: ('A' for Active; 'I' for Inactive)
REMARK    1  A    between atoms: C_1  and  C_2
REMARK    2  A    between atoms: C_2  and  C_3
REMARK    3  A    between atoms: N_9  and  S_10
REMARK    4  A    between atoms: S_10  and  C_13
REMARK    5  A    between atoms: C_16  and  C_19
REMARK    6  A    between atoms: N_21  and  C_22
REMARK    7  A    between atoms: C_23  and  C_31
REMARK                            x       y       z     vdW  Elec       q    Type
REMARK                         _______ _______ _______ _____ _____    ______ ____
ROOT
ATOM      1  C   UNL     1      -7.311  -0.046   0.392  0.00  0.00    +0.249 C 
ATOM      2  O   UNL     1      -8.228   0.613  -0.060  0.00  0.00    -0.270 OA
ATOM      3  N   UNL     1      -7.533  -0.897   1.414  0.00  0.00    -0.275 N 
ATOM      4  H   UNL     1      -6.802  -1.423   1.774  0.00  0.00    +0.156 HD
ENDROOT
BRANCH   3   5
ATOM      5  C   UNL     1      -8.805  -1.021   1.949  0.00  0.00    +0.085 A 
ATOM      6  C   UNL     1      -9.226  -1.835   2.991  0.00  0.00    +0.068 A 
ATOM      7  C   UNL     1     -10.630  -1.776   3.363  0.00  0.00    -0.023 A 
ATOM      8  C   UNL     1     -11.382  -0.920   2.639  0.00  0.00    -0.004 A 
ATOM      9  S   UNL     1     -10.254  -0.192   1.484  0.00  0.00    -0.077 S 
ATOM     10  C   UNL     1     -12.847  -0.651   2.793  0.00  0.00    +0.043 C 
ATOM     11  C   UNL     1     -13.455  -1.768   3.654  0.00  0.00    +0.005 C 
ATOM     12  C   UNL     1     -12.576  -1.972   4.891  0.00  0.00    +0.005 C 
ATOM     13  C   UNL     1     -11.245  -2.606   4.484  0.00  0.00    +0.037 C 
BRANCH   6  14
ATOM     14  C   UNL     1      -8.291  -2.721   3.690  0.00  0.00    +0.244 C 
ATOM     15  O   UNL     1      -7.688  -2.319   4.668  0.00  0.00    -0.270 OA
ATOM     16  N   UNL     1      -8.098  -3.980   3.251  0.00  0.00    -0.325 N 
ATOM     17  H   UNL     1      -8.579  -4.301   2.471  0.00  0.00    +0.145 HD
ATOM     18  H   UNL     1      -7.479  -4.566   3.714  0.00  0.00    +0.145 HD
ENDBRANCH   6  14
ENDBRANCH   3   5
BRANCH   1  22
ATOM     19  C   UNL     1      -3.412   0.333  -1.248  0.00  0.00    +0.106 A 
ATOM     20  C   UNL     1      -3.637  -0.545  -0.203  0.00  0.00    +0.029 A 
ATOM     21  C   UNL     1      -4.900  -0.669   0.338  0.00  0.00    +0.015 A 
ATOM     22  C   UNL     1      -5.955   0.086  -0.178  0.00  0.00    +0.037 A 
ATOM     23  C   UNL     1      -5.722   0.967  -1.236  0.00  0.00    +0.015 A 
ATOM     24  C   UNL     1      -4.453   1.085  -1.765  0.00  0.00    +0.029 A 
BRANCH  19  25
ATOM     25  S   UNL     1      -1.795   0.491  -1.929  0.00  0.00    +0.061 S 
ATOM     26  O   UNL     1      -1.943   1.141  -3.183  0.00  0.00    -0.153 OA
ATOM     27  O   UNL     1      -1.174  -0.781  -1.800  0.00  0.00    -0.153 OA
BRANCH  25  33
ATOM     28  C   UNL     1      -1.115   2.984  -1.091  0.00  0.00    +0.080 C 
ATOM     29  C   UNL     1      -1.475   3.571   0.278  0.00  0.00    +0.021 C 
ATOM     30  C   UNL     1      -0.419   3.151   1.302  0.00  0.00    +0.003 C 
ATOM     31  C   UNL     1      -0.396   1.625   1.422  0.00  0.00    +0.017 C 
ATOM     32  C   UNL     1      -0.027   1.016   0.066  0.00  0.00    +0.110 C 
ATOM     33  N   UNL     1      -0.952   1.530  -0.954  0.00  0.00    -0.174 NA
BRANCH  28  35
ATOM     34  C   UNL     1      -2.484   4.791  -2.141  0.00  0.00    +0.005 C 
ATOM     35  C   UNL     1      -2.234   3.282  -2.091  0.00  0.00    +0.017 C 
ENDBRANCH  28  35
ENDBRANCH  25  33
ENDBRANCH  19  25
ENDBRANCH   1  22
TORSDOF 6
