REMARK  Name = ZINC09558987
REMARK  19 active torsions:
REMARK  status: ('A' for Active; 'I' for Inactive)
REMARK    1  A    between atoms: C_1  and  C_2
REMARK    2  A    between atoms: C_2  and  O_3
REMARK    3  A    between atoms: O_3  and  C_4
REMARK    4  A    between atoms: C_6  and  C_16
REMARK    5  A    between atoms: C_8  and  O_13
REMARK    6  A    between atoms: C_9  and  O_10
REMARK    7  A    between atoms: O_10  and  C_11
REMARK    8  A    between atoms: C_11  and  C_12
REMARK    9  A    between atoms: O_13  and  C_14
REMARK   10  A    between atoms: C_14  and  C_15
REMARK   11  A    between atoms: C_16  and  O_18
REMARK   12  A    between atoms: O_18  and  C_19
REMARK   13  A    between atoms: C_20  and  S_29
REMARK   14  A    between atoms: C_21  and  C_28
REMARK   15  A    between atoms: N_23  and  C_24
REMARK   16  A    between atoms: C_24  and  C_25
REMARK   17  A    between atoms: C_24  and  C_26
REMARK   18  A    between atoms: C_24  and  C_27
REMARK   19  A    between atoms: S_29  and  C_32
REMARK                            x       y       z     vdW  Elec       q    Type
REMARK                         _______ _______ _______ _____ _____    ______ ____
ROOT
ATOM      1  C   UNL     1       0.002  -0.004   0.002  0.00  0.00    +0.249 A 
ATOM      2  C   UNL     1      -0.016   1.355   0.009  0.00  0.00    +0.177 A 
ATOM      3  C   UNL     1       1.308   1.802  -0.001  0.00  0.00    +0.089 A 
ATOM      4  N   UNL     1       2.094   0.756  -0.014  0.00  0.00    -0.171 NA
ATOM      5  N   UNL     1       1.296  -0.395  -0.012  0.00  0.00    -0.226 N 
ATOM      6  C   UNL     1       1.755   3.241   0.002  0.00  0.00    +0.069 C 
ENDROOT
BRANCH   5   7
ATOM      7  C   UNL     1       1.778  -1.779  -0.025  0.00  0.00    +0.059 C 
ATOM      8  C   UNL     1       1.253  -2.490  -1.274  0.00  0.00    +0.036 C 
ATOM      9  C   UNL     1       3.308  -1.786  -0.040  0.00  0.00    +0.036 C 
ATOM     10  C   UNL     1       1.276  -2.505   1.224  0.00  0.00    +0.036 C 
ENDBRANCH   5   7
BRANCH   2  11
ATOM     11  S   UNL     1      -1.454   2.373   0.022  0.00  0.00    +0.032 S 
ATOM     12  O   UNL     1      -1.069   3.627  -0.524  0.00  0.00    -0.164 OA
ATOM     13  O   UNL     1      -2.508   1.595  -0.528  0.00  0.00    -0.164 OA
BRANCH  11  14
ATOM     14  C   UNL     1      -1.871   2.665   1.709  0.00  0.00    +0.094 A 
ATOM     15  C   UNL     1      -2.731   1.806   2.367  0.00  0.00    +0.027 A 
ATOM     16  C   UNL     1      -3.054   2.032   3.692  0.00  0.00    +0.002 A 
ATOM     17  C   UNL     1      -2.526   3.124   4.356  0.00  0.00    +0.000 A 
ATOM     18  C   UNL     1      -1.670   3.986   3.696  0.00  0.00    +0.002 A 
ATOM     19  C   UNL     1      -1.343   3.757   2.373  0.00  0.00    +0.027 A 
ENDBRANCH  11  14
ENDBRANCH   2  11
BRANCH   1  20
ATOM     20  O   UNL     1      -1.083  -0.821   0.009  0.00  0.00    -0.402 OA
BRANCH  20  21
ATOM     21  C   UNL     1      -1.559  -1.195   1.212  0.00  0.00    +0.346 C 
ATOM     22  O   UNL     1      -1.020  -0.802   2.228  0.00  0.00    -0.244 OA
BRANCH  21  25
ATOM     23  C   UNL     1      -4.333  -3.300   2.620  0.00  0.00    +0.166 A 
ATOM     24  C   UNL     1      -3.231  -2.470   2.544  0.00  0.00    +0.064 A 
ATOM     25  C   UNL     1      -2.735  -2.081   1.297  0.00  0.00    +0.067 A 
ATOM     26  C   UNL     1      -3.359  -2.529   0.129  0.00  0.00    +0.064 A 
ATOM     27  C   UNL     1      -4.458  -3.364   0.211  0.00  0.00    +0.166 A 
ATOM     28  C   UNL     1      -4.950  -3.749   1.456  0.00  0.00    +0.204 A 
BRANCH  23  29
ATOM     29  O   UNL     1      -4.816  -3.678   3.834  0.00  0.00    -0.488 OA
BRANCH  29  31
ATOM     30  C   UNL     1      -4.817  -3.708   6.251  0.00  0.00    +0.048 C 
ATOM     31  C   UNL     1      -4.135  -3.180   4.987  0.00  0.00    +0.226 C 
ENDBRANCH  29  31
ENDBRANCH  23  29
BRANCH  28  32
ATOM     32  O   UNL     1      -6.033  -4.565   1.533  0.00  0.00    -0.485 OA
BRANCH  32  33
ATOM     33  C   UNL     1      -7.316  -3.937   1.583  0.00  0.00    +0.226 C 
ATOM     34  C   UNL     1      -8.405  -5.008   1.668  0.00  0.00    +0.048 C 
ENDBRANCH  32  33
ENDBRANCH  28  32
BRANCH  27  35
ATOM     35  O   UNL     1      -5.062  -3.805  -0.924  0.00  0.00    -0.488 OA
BRANCH  35  36
ATOM     36  C   UNL     1      -4.505  -3.370  -2.167  0.00  0.00    +0.226 C 
ATOM     37  C   UNL     1      -5.312  -3.964  -3.323  0.00  0.00    +0.048 C 
ENDBRANCH  35  36
ENDBRANCH  27  35
ENDBRANCH  21  25
ENDBRANCH  20  21
ENDBRANCH   1  20
TORSDOF 12
