REMARK  Name = ZINC20205693
REMARK  8 active torsions:
REMARK  status: ('A' for Active; 'I' for Inactive)
REMARK    1  A    between atoms: C_1  and  C_2
REMARK    2  A    between atoms: C_7  and  O_8
REMARK    3  A    between atoms: O_8  and  C_9
REMARK    4  A    between atoms: C_9  and  C_10
REMARK    5  A    between atoms: C_10  and  N_11
REMARK    6  A    between atoms: C_13  and  C_20
REMARK    7  A    between atoms: C_31  and  S_32
REMARK    8  A    between atoms: S_32  and  C_35
REMARK                            x       y       z     vdW  Elec       q    Type
REMARK                         _______ _______ _______ _____ _____    ______ ____
ROOT
ATOM      1  N   UNL     1       0.075  -1.062   5.548  0.00  0.00    -0.343 N 
ATOM      2  C   UNL     1      -0.929  -1.452   6.357  0.00  0.00    +0.095 A 
ATOM      3  C   UNL     1      -0.408  -1.920   7.548  0.00  0.00    +0.001 A 
ATOM      4  C   UNL     1       1.058  -1.793   7.432  0.00  0.00    +0.007 A 
ATOM      5  C   UNL     1       1.298  -1.256   6.157  0.00  0.00    +0.050 A 
ATOM      6  C   UNL     1       2.608  -1.025   5.751  0.00  0.00    +0.026 A 
ATOM      7  C   UNL     1       3.654  -1.326   6.597  0.00  0.00    +0.002 A 
ATOM      8  C   UNL     1       3.415  -1.860   7.854  0.00  0.00    +0.001 A 
ATOM      9  C   UNL     1       2.123  -2.088   8.278  0.00  0.00    +0.010 A 
ENDROOT
BRANCH   3  10
ATOM     10  C   UNL     1      -1.133  -2.418   8.654  0.00  0.00    +0.026 C 
ATOM     11  C   UNL     1      -2.326  -1.826   9.023  0.00  0.00    +0.078 C 
ATOM     12  C   UNL     1      -3.211  -2.420  10.063  0.00  0.00    +0.117 C 
ATOM     13  N   UNL     1      -2.762  -3.093  11.090  0.00  0.00    -0.386 N 
ATOM     14  N   UNL     1      -4.580  -2.184   9.829  0.00  0.00    -0.203 N 
ATOM     15  C   UNL     1      -4.935  -1.105   9.047  0.00  0.00    +0.183 C 
ATOM     16  N   UNL     1      -4.118  -0.307   8.397  0.00  0.00    -0.152 NA
ATOM     17  C   UNL     1      -2.793  -0.561   8.409  0.00  0.00    +0.273 C 
ATOM     18  O   UNL     1      -1.999   0.229   7.924  0.00  0.00    -0.268 OA
ATOM     19  S   UNL     1      -6.600  -1.104   9.131  0.00  0.00    +0.049 S 
ATOM     20  N   UNL     1      -6.827  -2.494  10.040  0.00  0.00    -0.174 NA
ATOM     21  C   UNL     1      -5.625  -2.905  10.301  0.00  0.00    +0.257 C 
ATOM     22  H   UNL     1      -1.819  -3.310  11.153  0.00  0.00    +0.157 HD
ATOM     23  H   UNL     1      -3.373  -3.375  11.789  0.00  0.00    +0.157 HD
BRANCH  21  24
ATOM     24  S   UNL     1      -5.357  -4.367  11.246  0.00  0.00    +0.026 S 
ATOM     25  O   UNL     1      -6.569  -5.100  11.132  0.00  0.00    -0.167 OA
ATOM     26  O   UNL     1      -4.137  -4.902  10.749  0.00  0.00    -0.167 OA
ATOM     27  C   UNL     1      -5.136  -3.787  12.950  0.00  0.00    +0.203 C 
ENDBRANCH  21  24
ENDBRANCH   3  10
BRANCH   1  28
ATOM     28  C   UNL     1      -0.106  -0.511   4.202  0.00  0.00    +0.163 C 
BRANCH  28  29
ATOM     29  C   UNL     1       0.019  -1.634   3.171  0.00  0.00    +0.250 C 
BRANCH  29  30
ATOM     30  O   UNL     1      -0.158  -1.097   1.858  0.00  0.00    -0.490 OA
BRANCH  30  37
ATOM     31  C   UNL     1      -0.505  -0.057  -0.745  0.00  0.00    +0.047 C 
ATOM     32  C   UNL     1      -0.238  -1.516  -0.482  0.00  0.00    -0.009 A 
ATOM     33  C   UNL     1      -0.149  -2.404  -1.538  0.00  0.00    +0.007 A 
ATOM     34  C   UNL     1       0.096  -3.743  -1.297  0.00  0.00    +0.000 A 
ATOM     35  C   UNL     1       0.252  -4.198  -0.001  0.00  0.00    +0.004 A 
ATOM     36  C   UNL     1       0.163  -3.315   1.058  0.00  0.00    +0.046 A 
ATOM     37  C   UNL     1      -0.077  -1.969   0.819  0.00  0.00    +0.123 A 
ENDBRANCH  30  37
ENDBRANCH  29  30
ENDBRANCH  28  29
ENDBRANCH   1  28
TORSDOF 6
