REMARK  Name = ZINC63745843
REMARK  10 active torsions:
REMARK  status: ('A' for Active; 'I' for Inactive)
REMARK    1  A    between atoms: C_1  and  C_2
REMARK    2  A    between atoms: C_2  and  C_3
REMARK    3  A    between atoms: C_2  and  N_4
REMARK    4  A    between atoms: C_5  and  N_16
REMARK    5  A    between atoms: N_10  and  C_13
REMARK    6  A    between atoms: C_13  and  C_14
REMARK    7  A    between atoms: C_13  and  C_15
REMARK    8  A    between atoms: C_22  and  C_24
REMARK    9  A    between atoms: C_24  and  C_25
REMARK   10  A    between atoms: C_25  and  C_26
REMARK                            x       y       z     vdW  Elec       q    Type
REMARK                         _______ _______ _______ _____ _____    ______ ____
ROOT
ATOM      1  N   UNL     1       1.022  -2.353  -1.930  0.00  0.00    -0.281 NA
ATOM      2  C   UNL     1      -0.137  -2.728  -1.109  0.00  0.00    +0.105 C 
ATOM      3  C   UNL     1      -0.805  -3.969  -1.712  0.00  0.00    +0.123 C 
ATOM      4  N   UNL     1       0.213  -5.019  -1.869  0.00  0.00    -0.299 N 
ATOM      5  C   UNL     1       1.464  -4.677  -2.562  0.00  0.00    +0.123 C 
ATOM      6  C   UNL     1       2.043  -3.409  -1.925  0.00  0.00    +0.105 C 
ATOM      7  C   UNL     1       0.004  -6.261  -1.389  0.00  0.00    +0.216 C 
ATOM      8  O   UNL     1      -1.034  -6.525  -0.820  0.00  0.00    -0.276 OA
ENDROOT
BRANCH   1  10
ATOM      9  N   UNL     1       0.515  -0.086  -1.347  0.00  0.00    -0.266 N 
ATOM     10  C   UNL     1       1.589  -1.072  -1.486  0.00  0.00    +0.157 C 
ATOM     11  C   UNL     1       2.604  -0.579  -2.519  0.00  0.00    +0.135 C 
ATOM     12  C   UNL     1       1.870  -0.084  -3.740  0.00  0.00    +0.226 C 
ATOM     13  O   UNL     1       2.356  -0.230  -4.841  0.00  0.00    -0.275 OA
ATOM     14  N   UNL     1       0.674   0.518  -3.606  0.00  0.00    -0.223 N 
ATOM     15  C   UNL     1       0.073   0.608  -2.408  0.00  0.00    +0.313 C 
ATOM     16  O   UNL     1      -0.891   1.337  -2.280  0.00  0.00    -0.252 OA
BRANCH   9  18
ATOM     17  C   UNL     1       0.240   1.558   0.442  0.00  0.00    +0.028 C 
ATOM     18  C   UNL     1      -0.090   0.142  -0.032  0.00  0.00    +0.073 C 
ATOM     19  C   UNL     1      -1.607  -0.022  -0.133  0.00  0.00    +0.028 C 
ENDBRANCH   9  18
BRANCH  14  20
ATOM     20  C   UNL     1       0.015   1.082  -4.787  0.00  0.00    +0.080 C 
ATOM     21  C   UNL     1       0.910   2.155  -5.408  0.00  0.00    +0.028 C 
ATOM     22  C   UNL     1      -0.235  -0.028  -5.810  0.00  0.00    +0.028 C 
ENDBRANCH  14  20
ENDBRANCH   1  10
BRANCH   7  23
ATOM     23  C   UNL     1       1.061  -7.322  -1.560  0.00  0.00    +0.100 C 
BRANCH  23  24
ATOM     24  C   UNL     1       0.577  -8.630  -0.931  0.00  0.00    +0.056 C 
BRANCH  24  25
ATOM     25  C   UNL     1       1.649  -9.707  -1.105  0.00  0.00    +0.174 C 
ATOM     26  N   UNL     1       1.863  -9.979  -2.532  0.00  0.00    -0.363 N 
ATOM     27  C   UNL     1       1.576 -11.232  -2.738  0.00  0.00    +0.060 A 
ATOM     28  C   UNL     1       1.595 -12.077  -3.940  0.00  0.00    +0.027 A 
ATOM     29  C   UNL     1       1.236 -13.373  -3.848  0.00  0.00    +0.002 A 
ATOM     30  C   UNL     1       0.838 -13.965  -2.636  0.00  0.00    +0.002 A 
ATOM     31  C   UNL     1       0.784 -13.280  -1.476  0.00  0.00    +0.027 A 
ATOM     32  C   UNL     1       1.155 -11.859  -1.455  0.00  0.00    +0.060 A 
ATOM     33  N   UNL     1       1.198 -10.969  -0.506  0.00  0.00    -0.363 N 
ATOM     34  H   UNL     1       2.164  -9.342  -3.199  0.00  0.00    +0.162 HD
ATOM     35  H   UNL     1       0.974 -11.114   0.427  0.00  0.00    +0.162 HD
ENDBRANCH  24  25
ENDBRANCH  23  24
ENDBRANCH   7  23
TORSDOF 6
