REMARK  Name = ZINC39723592
REMARK  9 active torsions:
REMARK  status: ('A' for Active; 'I' for Inactive)
REMARK    1  A    between atoms: C_1  and  C_2
REMARK    2  A    between atoms: C_2  and  C_3
REMARK    3  A    between atoms: C_2  and  C_4
REMARK    4  A    between atoms: C_2  and  C_5
REMARK    5  A    between atoms: C_8  and  C_11
REMARK    6  A    between atoms: C_17  and  S_19
REMARK    7  A    between atoms: S_19  and  C_20
REMARK    8  A    between atoms: C_20  and  C_21
REMARK    9  A    between atoms: N_23  and  C_24
REMARK                            x       y       z     vdW  Elec       q    Type
REMARK                         _______ _______ _______ _____ _____    ______ ____
ROOT
ATOM      1  C   UNL     1       2.708  -1.896  -4.711  0.00  0.00    +0.250 C 
ATOM      2  O   UNL     1       2.119  -2.598  -5.510  0.00  0.00    -0.270 OA
ATOM      3  N   UNL     1       3.990  -1.548  -4.937  0.00  0.00    -0.259 N 
ATOM      4  C   UNL     1       4.640  -1.992  -6.085  0.00  0.00    +0.189 A 
ATOM      5  N   UNL     1       4.194  -2.747  -7.076  0.00  0.00    -0.125 NA
ATOM      6  N   UNL     1       4.923  -3.061  -8.056  0.00  0.00    -0.133 NA
ATOM      7  C   UNL     1       6.180  -2.653  -8.154  0.00  0.00    +0.160 A 
ATOM      8  S   UNL     1       6.314  -1.697  -6.646  0.00  0.00    -0.024 S 
ATOM      9  H   UNL     1       4.460  -0.988  -4.299  0.00  0.00    +0.157 HD
ENDROOT
BRANCH   1  13
ATOM     10  C   UNL     1       0.725  -0.543  -1.207  0.00  0.00    -0.042 A 
ATOM     11  C   UNL     1       0.052  -1.341  -2.115  0.00  0.00    +0.005 A 
ATOM     12  C   UNL     1       0.690  -1.784  -3.255  0.00  0.00    +0.013 A 
ATOM     13  C   UNL     1       2.018  -1.425  -3.492  0.00  0.00    +0.037 A 
ATOM     14  C   UNL     1       2.691  -0.619  -2.572  0.00  0.00    +0.013 A 
ATOM     15  C   UNL     1       2.040  -0.179  -1.438  0.00  0.00    +0.005 A 
BRANCH  10  17
ATOM     16  C   UNL     1      -0.008   1.467   0.047  0.00  0.00    +0.015 C 
ATOM     17  C   UNL     1       0.022  -0.063   0.036  0.00  0.00    -0.013 C 
ATOM     18  C   UNL     1       0.770  -0.567   1.272  0.00  0.00    +0.015 C 
ATOM     19  C   UNL     1      -1.410  -0.601   0.052  0.00  0.00    +0.015 C 
ENDBRANCH  10  17
ENDBRANCH   1  13
BRANCH   7  20
ATOM     20  S   UNL     1       7.376  -2.960  -9.411  0.00  0.00    -0.088 S 
BRANCH  20  21
ATOM     21  C   UNL     1       6.496  -4.000 -10.610  0.00  0.00    +0.172 C 
BRANCH  21  22
ATOM     22  C   UNL     1       7.418  -4.339 -11.752  0.00  0.00    +0.227 C 
ATOM     23  O   UNL     1       8.557  -3.921 -11.758  0.00  0.00    -0.275 OA
ATOM     24  N   UNL     1       6.978  -5.108 -12.768  0.00  0.00    -0.285 N 
ATOM     25  H   UNL     1       6.090  -5.498 -12.732  0.00  0.00    +0.155 HD
BRANCH  24  26
ATOM     26  C   UNL     1       7.801  -5.344 -13.875  0.00  0.00    +0.033 A 
ATOM     27  C   UNL     1       7.247  -5.447 -15.144  0.00  0.00    +0.024 A 
ATOM     28  C   UNL     1       8.062  -5.679 -16.235  0.00  0.00    +0.017 A 
ATOM     29  C   UNL     1       9.428  -5.809 -16.064  0.00  0.00    +0.018 A 
ATOM     30  C   UNL     1       9.983  -5.706 -14.801  0.00  0.00    +0.017 A 
ATOM     31  C   UNL     1       9.174  -5.469 -13.707  0.00  0.00    +0.024 A 
ATOM     32 BR   UNL     1      10.541  -6.127 -17.560  0.00  0.00    -0.050 Br
ENDBRANCH  24  26
ENDBRANCH  21  22
ENDBRANCH  20  21
ENDBRANCH   7  20
TORSDOF 6
