REMARK  Name = ZINC04027049
REMARK  6 active torsions:
REMARK  status: ('A' for Active; 'I' for Inactive)
REMARK    1  A    between atoms: C_1  and  C_2
REMARK    2  A    between atoms: C_5  and  C_27
REMARK    3  A    between atoms: C_8  and  C_26
REMARK    4  A    between atoms: C_10  and  C_24
REMARK    5  A    between atoms: C_13  and  C_15
REMARK    6  A    between atoms: C_24  and  O_25
REMARK                            x       y       z     vdW  Elec       q    Type
REMARK                         _______ _______ _______ _____ _____    ______ ____
ROOT
ATOM      1  C   UNL     1      -0.390   1.899   1.657  0.00  0.00    +0.012 C 
ATOM      2  C   UNL     1       0.172   1.267   0.382  0.00  0.00    +0.019 C 
ATOM      3  C   UNL     1      -0.595   1.780  -0.798  0.00  0.00    -0.024 C 
ATOM      4  C   UNL     1      -0.126   2.597  -1.685  0.00  0.00    -0.070 C 
ATOM      5  C   UNL     1       1.286   3.125  -1.653  0.00  0.00    +0.051 C 
ATOM      6  C   UNL     1       1.809   3.052  -0.211  0.00  0.00    +0.007 C 
ATOM      7  C   UNL     1       1.654   1.605   0.269  0.00  0.00    +0.026 C 
ATOM      8  C   UNL     1       2.374   0.651  -0.674  0.00  0.00    +0.170 C 
ATOM      9  O   UNL     1       1.955   0.849  -2.023  0.00  0.00    -0.371 OA
ATOM     10  C   UNL     1       2.151   2.182  -2.509  0.00  0.00    +0.156 C 
ATOM     11  C   UNL     1       0.993   3.986   0.685  0.00  0.00    +0.009 C 
ATOM     12  C   UNL     1      -1.033   3.043  -2.802  0.00  0.00    +0.039 C 
ENDROOT
BRANCH  10  13
ATOM     13  C   UNL     1       1.726   2.267  -3.952  0.00  0.00    -0.015 A 
ATOM     14  C   UNL     1       0.767   1.400  -4.441  0.00  0.00    +0.010 A 
ATOM     15  C   UNL     1       0.373   1.475  -5.764  0.00  0.00    +0.050 A 
ATOM     16  C   UNL     1       0.941   2.420  -6.604  0.00  0.00    +0.166 A 
ATOM     17  C   UNL     1       1.907   3.293  -6.111  0.00  0.00    +0.167 A 
ATOM     18  C   UNL     1       2.293   3.216  -4.783  0.00  0.00    +0.055 A 
ATOM     19  O   UNL     1       2.306   4.118  -7.123  0.00  0.00    -0.453 OA
ATOM     20  C   UNL     1       1.873   3.475  -8.336  0.00  0.00    +0.466 C 
ATOM     21  O   UNL     1       0.734   2.698  -7.924  0.00  0.00    -0.453 OA
ENDBRANCH  10  13
BRANCH   7  22
ATOM     22  C   UNL     1       2.294   1.476   1.652  0.00  0.00    +0.165 C 
BRANCH  22  23
ATOM     23  O   UNL     1       2.137   0.137   2.126  0.00  0.00    -0.394 OA
ATOM     24  H   UNL     1       2.520  -0.019   3.001  0.00  0.00    +0.209 HD
ENDBRANCH  22  23
ENDBRANCH   7  22
TORSDOF 3
