REMARK  Name = ZINC00852050
REMARK  7 active torsions:
REMARK  status: ('A' for Active; 'I' for Inactive)
REMARK    1  A    between atoms: C_4  and  C_7
REMARK    2  A    between atoms: N_9  and  C_10
REMARK    3  A    between atoms: C_10  and  C_24
REMARK    4  A    between atoms: C_11  and  C_12
REMARK    5  A    between atoms: C_15  and  C_17
REMARK    6  A    between atoms: N_26  and  C_27
REMARK    7  A    between atoms: C_27  and  C_28
REMARK                            x       y       z     vdW  Elec       q    Type
REMARK                         _______ _______ _______ _____ _____    ______ ____
ROOT
ATOM      1  C   UNL     1      -0.199   0.161   0.253  0.00  0.00    +0.100 C 
ATOM      2  C   UNL     1       1.043  -0.385   0.147  0.00  0.00    +0.074 C 
ENDROOT
BRANCH   2   3
ATOM      3  C   UNL     1       2.134   0.414  -0.266  0.00  0.00    +0.131 A 
ATOM      4  C   UNL     1       3.412  -0.035  -0.539  0.00  0.00    +0.050 A 
ATOM      5  C   UNL     1       4.162   1.084  -0.912  0.00  0.00    +0.050 A 
ATOM      6  C   UNL     1       3.329   2.165  -0.848  0.00  0.00    +0.136 A 
ATOM      7  O   UNL     1       2.110   1.749  -0.457  0.00  0.00    -0.455 OA
BRANCH   6   8
ATOM      8  C   UNL     1       3.705   3.559  -1.155  0.00  0.00    +0.017 A 
ATOM      9  C   UNL     1       4.978   3.850  -1.650  0.00  0.00    +0.012 A 
ATOM     10  C   UNL     1       5.321   5.154  -1.940  0.00  0.00    +0.016 A 
ATOM     11  C   UNL     1       4.410   6.175  -1.730  0.00  0.00    +0.018 A 
ATOM     12  C   UNL     1       3.148   5.894  -1.234  0.00  0.00    +0.016 A 
ATOM     13  C   UNL     1       2.790   4.594  -0.945  0.00  0.00    +0.012 A 
ATOM     14 BR   UNL     1       4.891   7.961  -2.123  0.00  0.00    -0.050 Br
ENDBRANCH   6   8
ENDBRANCH   2   3
BRANCH   1  17
ATOM     15  C   UNL     1      -2.531  -0.125   0.628  0.00  0.00    +0.248 C 
ATOM     16  O   UNL     1      -2.726   0.998   0.204  0.00  0.00    -0.270 OA
ATOM     17  N   UNL     1      -1.284  -0.637   0.633  0.00  0.00    -0.277 N 
ATOM     18  H   UNL     1      -1.139  -1.558   0.899  0.00  0.00    +0.155 HD
BRANCH  15  22
ATOM     19  C   UNL     1      -5.780  -2.434   2.095  0.00  0.00    +0.000 A 
ATOM     20  C   UNL     1      -6.005  -1.157   1.613  0.00  0.00    +0.001 A 
ATOM     21  C   UNL     1      -4.954  -0.402   1.135  0.00  0.00    +0.013 A 
ATOM     22  C   UNL     1      -3.662  -0.929   1.138  0.00  0.00    +0.037 A 
ATOM     23  C   UNL     1      -3.442  -2.220   1.621  0.00  0.00    +0.013 A 
ATOM     24  C   UNL     1      -4.501  -2.963   2.101  0.00  0.00    +0.001 A 
ENDBRANCH  15  22
ENDBRANCH   1  17
BRANCH   1  25
ATOM     25  C   UNL     1      -0.400   1.584  -0.029  0.00  0.00    +0.259 C 
ATOM     26  O   UNL     1      -0.353   2.397   0.876  0.00  0.00    -0.269 OA
ATOM     27  N   UNL     1      -0.642   1.994  -1.290  0.00  0.00    -0.303 N 
ATOM     28  H   UNL     1      -0.759   1.341  -1.998  0.00  0.00    +0.149 HD
BRANCH  27  29
ATOM     29  C   UNL     1      -0.730   3.424  -1.592  0.00  0.00    +0.179 C 
BRANCH  29  30
ATOM     30  C   UNL     1      -1.128   3.610  -3.033  0.00  0.00    +0.122 A 
ATOM     31  C   UNL     1      -2.381   3.799  -3.485  0.00  0.00    +0.046 A 
ATOM     32  C   UNL     1      -2.295   3.925  -4.891  0.00  0.00    +0.041 A 
ATOM     33  C   UNL     1      -0.994   3.807  -5.213  0.00  0.00    +0.195 A 
ATOM     34  O   UNL     1      -0.292   3.622  -4.084  0.00  0.00    -0.466 OA
ENDBRANCH  29  30
ENDBRANCH  27  29
ENDBRANCH   1  25
TORSDOF 7
