REMARK  Name = ZINC67447191
REMARK  6 active torsions:
REMARK  status: ('A' for Active; 'I' for Inactive)
REMARK    1  A    between atoms: C_5  and  N_7
REMARK    2  A    between atoms: N_10  and  C_13
REMARK    3  A    between atoms: C_13  and  C_14
REMARK    4  A    between atoms: C_19  and  C_20
REMARK    5  A    between atoms: N_29  and  C_32
REMARK    6  A    between atoms: C_32  and  C_33
REMARK                            x       y       z     vdW  Elec       q    Type
REMARK                         _______ _______ _______ _____ _____    ______ ____
ROOT
ATOM      1  N   UNL     1       0.770  -1.676  -0.375  0.00  0.00    -0.327 N 
ATOM      2  C   UNL     1       0.621  -2.615   0.747  0.00  0.00    +0.120 C 
ATOM      3  C   UNL     1       1.651  -3.738   0.582  0.00  0.00    +0.103 C 
ATOM      4  N   UNL     1       1.508  -4.337  -0.752  0.00  0.00    -0.295 NA
ATOM      5  C   UNL     1       1.799  -3.358  -1.809  0.00  0.00    +0.103 C 
ATOM      6  C   UNL     1       0.769  -2.219  -1.742  0.00  0.00    +0.120 C 
ENDROOT
BRANCH   1  11
ATOM      7  C   UNL     1      -0.100   1.855   0.140  0.00  0.00    +0.003 A 
ATOM      8  C   UNL     1       1.154   2.430   0.299  0.00  0.00    +0.014 A 
ATOM      9  C   UNL     1       2.288   1.640   0.235  0.00  0.00    +0.051 A 
ATOM     10  C   UNL     1       2.167   0.252   0.007  0.00  0.00    +0.070 A 
ATOM     11  C   UNL     1       0.903  -0.314  -0.151  0.00  0.00    +0.043 A 
ATOM     12  C   UNL     1      -0.229   0.502  -0.082  0.00  0.00    +0.024 A 
ATOM     13  C   UNL     1       3.541  -0.278  -0.003  0.00  0.00    +0.256 C 
ATOM     14  O   UNL     1       3.850  -1.441  -0.172  0.00  0.00    -0.269 OA
ATOM     15  N   UNL     1       4.396   0.739   0.205  0.00  0.00    -0.232 N 
ATOM     16  C   UNL     1       3.738   1.903   0.355  0.00  0.00    +0.254 C 
ATOM     17  O   UNL     1       4.248   2.986   0.555  0.00  0.00    -0.270 OA
BRANCH  15  18
ATOM     18  C   UNL     1       5.853   0.598   0.261  0.00  0.00    +0.148 C 
BRANCH  18  19
ATOM     19  C   UNL     1       6.448   0.900  -1.116  0.00  0.00    +0.136 C 
ATOM     20  C   UNL     1       7.992   0.779  -1.073  0.00  0.00    +0.035 C 
ATOM     21  C   UNL     1       8.306   0.472  -2.563  0.00  0.00    +0.031 C 
ATOM     22  C   UNL     1       7.083  -0.369  -2.988  0.00  0.00    +0.160 C 
ATOM     23  O   UNL     1       6.019  -0.083  -2.071  0.00  0.00    -0.375 OA
ENDBRANCH  18  19
ENDBRANCH  15  18
ENDBRANCH   1  11
BRANCH   4  24
ATOM     24  C   UNL     1       2.358  -5.527  -0.889  0.00  0.00    +0.123 C 
BRANCH  24  25
ATOM     25  C   UNL     1       1.914  -6.327  -2.087  0.00  0.00    +0.012 A 
ATOM     26  C   UNL     1       2.558  -6.409  -3.271  0.00  0.00    +0.110 A 
ATOM     27  N   UNL     1       1.843  -7.220  -4.080  0.00  0.00    -0.284 N 
ATOM     28  H   UNL     1       2.070  -7.460  -4.992  0.00  0.00    +0.188 HD
ATOM     29  N   UNL     1       0.715  -7.656  -3.372  0.00  0.00    -0.174 NA
ATOM     30  C   UNL     1       0.756  -7.125  -2.169  0.00  0.00    +0.097 A 
BRANCH  30  31
ATOM     31  C   UNL     1      -0.242  -7.328  -1.090  0.00  0.00    +0.002 A 
ATOM     32  C   UNL     1       0.179  -7.535   0.222  0.00  0.00    +0.011 A 
ATOM     33  C   UNL     1      -0.753  -7.724   1.222  0.00  0.00    +0.020 A 
ATOM     34  C   UNL     1      -2.105  -7.708   0.924  0.00  0.00    +0.041 A 
ATOM     35  C   UNL     1      -2.528  -7.504  -0.379  0.00  0.00    +0.020 A 
ATOM     36  C   UNL     1      -1.604  -7.308  -1.384  0.00  0.00    +0.011 A 
ATOM     37 CL   UNL     1      -3.272  -7.946   2.186  0.00  0.00    -0.084 Cl
ENDBRANCH  30  31
ENDBRANCH  24  25
ENDBRANCH   4  24
TORSDOF 6
