REMARK  Name = ZINC05149057
REMARK  4 active torsions:
REMARK  status: ('A' for Active; 'I' for Inactive)
REMARK    1  A    between atoms: N_14  and  C_26
REMARK    2  A    between atoms: C_15  and  C_17
REMARK    3  A    between atoms: C_20  and  N_23
REMARK    4  A    between atoms: C_26  and  C_27
REMARK                            x       y       z     vdW  Elec       q    Type
REMARK                         _______ _______ _______ _____ _____    ______ ____
ROOT
ATOM      1  C   UNL     1      -3.161  -8.088  -2.677  0.00  0.00    +0.001 A 
ATOM      2  C   UNL     1      -1.968  -8.316  -3.349  0.00  0.00    +0.004 A 
ATOM      3  C   UNL     1      -0.867  -7.521  -3.122  0.00  0.00    +0.047 A 
ATOM      4  C   UNL     1      -0.944  -6.473  -2.208  0.00  0.00    +0.139 A 
ATOM      5  C   UNL     1      -2.156  -6.250  -1.532  0.00  0.00    +0.064 A 
ATOM      6  C   UNL     1      -3.260  -7.065  -1.775  0.00  0.00    +0.015 A 
ATOM      7  C   UNL     1      -2.218  -5.135  -0.567  0.00  0.00    +0.199 A 
ATOM      8  O   UNL     1      -3.235  -4.884   0.055  0.00  0.00    -0.287 OA
ATOM      9  C   UNL     1      -0.995  -4.346  -0.394  0.00  0.00    +0.072 A 
ATOM     10  C   UNL     1       0.116  -4.658  -1.105  0.00  0.00    +0.199 A 
ATOM     11  O   UNL     1       0.122  -5.687  -1.975  0.00  0.00    -0.450 OA
ATOM     12  C   UNL     1       1.191  -3.704  -0.734  0.00  0.00    +0.283 C 
ATOM     13  O   UNL     1       2.316  -3.712  -1.194  0.00  0.00    -0.267 OA
ATOM     14  N   UNL     1       0.742  -2.831   0.183  0.00  0.00    -0.281 N 
ATOM     15  C   UNL     1      -0.658  -3.163   0.476  0.00  0.00    +0.145 C 
ENDROOT
BRANCH  15  16
ATOM     16  C   UNL     1      -0.813  -3.524   1.931  0.00  0.00    -0.022 A 
ATOM     17  C   UNL     1       0.150  -4.292   2.558  0.00  0.00    +0.008 A 
ATOM     18  C   UNL     1       0.011  -4.620   3.894  0.00  0.00    +0.033 A 
ATOM     19  C   UNL     1      -1.097  -4.188   4.600  0.00  0.00    +0.126 A 
ATOM     20  C   UNL     1      -2.062  -3.424   3.971  0.00  0.00    +0.033 A 
ATOM     21  C   UNL     1      -1.920  -3.093   2.636  0.00  0.00    +0.008 A 
BRANCH  19  22
ATOM     22  N   UNL     1      -1.248  -4.543   6.029  0.00  0.00    +0.056 N 
ATOM     23  O   UNL     1      -2.224  -4.162   6.651  0.00  0.00    -0.126 OA
ATOM     24  O   UNL     1      -0.398  -5.216   6.583  0.00  0.00    -0.126 OA
ENDBRANCH  19  22
ENDBRANCH  15  16
BRANCH  14  25
ATOM     25  C   UNL     1       1.514  -1.743   0.789  0.00  0.00    +0.140 C 
BRANCH  25  26
ATOM     26  C   UNL     1       1.358  -0.476  -0.054  0.00  0.00    +0.136 C 
ATOM     27  C   UNL     1       2.211   0.674   0.537  0.00  0.00    +0.035 C 
ATOM     28  C   UNL     1       1.448   1.915  -0.002  0.00  0.00    +0.031 C 
ATOM     29  C   UNL     1      -0.017   1.428   0.010  0.00  0.00    +0.160 C 
ATOM     30  O   UNL     1       0.002  -0.004   0.002  0.00  0.00    -0.375 OA
ENDBRANCH  25  26
ENDBRANCH  14  25
TORSDOF 4
