REMARK  Name = ZINC04976875
REMARK  4 active torsions:
REMARK  status: ('A' for Active; 'I' for Inactive)
REMARK    1  A    between atoms: C_8  and  C_9
REMARK    2  A    between atoms: C_12  and  C_14
REMARK    3  A    between atoms: C_17  and  S_20
REMARK    4  A    between atoms: S_20  and  N_23
REMARK                            x       y       z     vdW  Elec       q    Type
REMARK                         _______ _______ _______ _____ _____    ______ ____
ROOT
ATOM      1  C   UNL     1       2.099   0.761  -0.014  0.00  0.00    +0.130 A 
ATOM      2  C   UNL     1       1.343  -0.398  -0.013  0.00  0.00    +0.050 A 
ATOM      3  C   UNL     1       0.002  -0.004   0.002  0.00  0.00    +0.050 A 
ATOM      4  C   UNL     1      -0.016   1.362   0.009  0.00  0.00    +0.136 A 
ATOM      5  O   UNL     1       1.252   1.812  -0.000  0.00  0.00    -0.455 OA
ENDROOT
BRANCH   1  13
ATOM      6  H   UNL     1       4.322   6.497  -0.005  0.00  0.00    +0.189 HD
ATOM      7  N   UNL     1       5.097   5.914  -0.015  0.00  0.00    -0.279 NA
ATOM      8  C   UNL     1       4.939   4.618  -0.020  0.00  0.00    +0.158 C 
ATOM      9  N   UNL     1       5.908   3.635  -0.034  0.00  0.00    -0.261 N 
ATOM     10  C   UNL     1       5.569   2.357  -0.038  0.00  0.00    +0.257 C 
ATOM     11  O   UNL     1       6.410   1.477  -0.050  0.00  0.00    -0.269 OA
ATOM     12  C   UNL     1       4.131   2.046  -0.026  0.00  0.00    +0.081 C 
ATOM     13  C   UNL     1       3.509   0.832  -0.027  0.00  0.00    +0.066 C 
ATOM     14  S   UNL     1       3.418   3.684  -0.019  0.00  0.00    -0.049 S 
ATOM     15  H   UNL     1       6.846   3.884  -0.042  0.00  0.00    +0.157 HD
ENDBRANCH   1  13
BRANCH   4  16
ATOM     16  C   UNL     1      -1.228   2.205   0.020  0.00  0.00    +0.017 A 
ATOM     17  C   UNL     1      -2.494   1.615   0.017  0.00  0.00    +0.013 A 
ATOM     18  C   UNL     1      -3.621   2.409   0.033  0.00  0.00    +0.029 A 
ATOM     19  C   UNL     1      -3.500   3.788   0.039  0.00  0.00    +0.105 A 
ATOM     20  C   UNL     1      -2.249   4.379   0.037  0.00  0.00    +0.029 A 
ATOM     21  C   UNL     1      -1.113   3.598   0.027  0.00  0.00    +0.013 A 
BRANCH  19  22
ATOM     22  S   UNL     1      -4.946   4.795   0.051  0.00  0.00    +0.056 S 
ATOM     23  O   UNL     1      -5.989   4.002   0.603  0.00  0.00    -0.153 OA
ATOM     24  O   UNL     1      -4.566   6.046   0.607  0.00  0.00    -0.153 OA
BRANCH  22  25
ATOM     25  N   UNL     1      -5.355   5.083  -1.527  0.00  0.00    -0.204 NA
ATOM     26  H   UNL     1      -4.818   4.710  -2.243  0.00  0.00    +0.144 HD
ATOM     27  H   UNL     1      -6.133   5.624  -1.736  0.00  0.00    +0.144 HD
ENDBRANCH  22  25
ENDBRANCH  19  22
ENDBRANCH   4  16
TORSDOF 4
