REMARK  Name = ZINC10098743
REMARK  12 active torsions:
REMARK  status: ('A' for Active; 'I' for Inactive)
REMARK    1  A    between atoms: C_1  and  C_2
REMARK    2  A    between atoms: C_2  and  C_3
REMARK    3  A    between atoms: C_2  and  N_4
REMARK    4  A    between atoms: N_4  and  C_5
REMARK    5  A    between atoms: N_4  and  S_6
REMARK    6  A    between atoms: S_6  and  C_9
REMARK    7  A    between atoms: C_12  and  C_15
REMARK    8  A    between atoms: C_15  and  N_17
REMARK    9  A    between atoms: N_19  and  C_31
REMARK   10  A    between atoms: C_23  and  S_27
REMARK   11  A    between atoms: S_27  and  N_30
REMARK   12  A    between atoms: C_31  and  C_32
REMARK                            x       y       z     vdW  Elec       q    Type
REMARK                         _______ _______ _______ _____ _____    ______ ____
ROOT
ATOM      1  N   UNL     1       1.247  -2.001   6.361  0.00  0.00    -0.152 NA
ATOM      2  C   UNL     1       1.265  -2.402   7.627  0.00  0.00    +0.168 A 
ATOM      3  N   UNL     1       2.343  -2.641   8.421  0.00  0.00    -0.310 N 
ATOM      4  C   UNL     1       2.163  -3.057   9.728  0.00  0.00    +0.059 A 
ATOM      5  C   UNL     1       3.140  -3.351  10.691  0.00  0.00    +0.029 A 
ATOM      6  C   UNL     1       2.783  -3.755  11.955  0.00  0.00    +0.030 A 
ATOM      7  C   UNL     1       1.452  -3.884  12.318  0.00  0.00    +0.106 A 
ATOM      8  C   UNL     1       0.468  -3.600  11.389  0.00  0.00    +0.045 A 
ATOM      9  C   UNL     1       0.824  -3.196  10.124  0.00  0.00    +0.041 A 
ATOM     10  S   UNL     1      -0.081  -2.738   8.668  0.00  0.00    -0.052 S 
ENDROOT
BRANCH   7  11
ATOM     11  S   UNL     1       1.019  -4.403  13.945  0.00  0.00    +0.056 S 
ATOM     12  O   UNL     1      -0.283  -4.966  13.859  0.00  0.00    -0.153 OA
ATOM     13  O   UNL     1       2.131  -5.129  14.450  0.00  0.00    -0.153 OA
BRANCH  11  14
ATOM     14  N   UNL     1       0.883  -3.039  14.875  0.00  0.00    -0.204 NA
ATOM     15  H   UNL     1       0.268  -3.022  15.624  0.00  0.00    +0.144 HD
ATOM     16  H   UNL     1       1.419  -2.257  14.670  0.00  0.00    +0.144 HD
ENDBRANCH  11  14
ENDBRANCH   7  11
BRANCH   1  17
ATOM     17  C   UNL     1       0.081  -1.815   5.734  0.00  0.00    +0.269 C 
ATOM     18  O   UNL     1      -0.966  -2.014   6.325  0.00  0.00    -0.268 OA
BRANCH  17  22
ATOM     19  C   UNL     1       0.025  -0.534   1.682  0.00  0.00    +0.106 A 
ATOM     20  C   UNL     1       1.234  -0.730   2.326  0.00  0.00    +0.029 A 
ATOM     21  C   UNL     1       1.258  -1.141   3.643  0.00  0.00    +0.015 A 
ATOM     22  C   UNL     1       0.062  -1.368   4.322  0.00  0.00    +0.039 A 
ATOM     23  C   UNL     1      -1.154  -1.173   3.666  0.00  0.00    +0.015 A 
ATOM     24  C   UNL     1      -1.165  -0.757   2.351  0.00  0.00    +0.029 A 
BRANCH  19  25
ATOM     25  S   UNL     1       0.002  -0.004   0.002  0.00  0.00    +0.061 S 
ATOM     26  O   UNL     1      -1.243  -0.424  -0.539  0.00  0.00    -0.153 OA
ATOM     27  O   UNL     1       1.248  -0.390  -0.563  0.00  0.00    -0.153 OA
BRANCH  25  28
ATOM     28  N   UNL     1      -0.020   1.652   0.011  0.00  0.00    -0.177 NA
ATOM     29  C   UNL     1      -1.299   2.367   0.021  0.00  0.00    +0.132 C 
BRANCH  28  31
ATOM     30  C   UNL     1       1.295   3.289  -1.242  0.00  0.00    +0.025 C 
ATOM     31  C   UNL     1       1.238   2.401   0.003  0.00  0.00    +0.073 C 
ATOM     32  C   UNL     1       1.319   3.275   1.256  0.00  0.00    +0.025 C 
ENDBRANCH  28  31
ENDBRANCH  25  28
ENDBRANCH  19  25
ENDBRANCH  17  22
ENDBRANCH   1  17
BRANCH   3  33
ATOM     33  C   UNL     1       3.697  -2.460   7.892  0.00  0.00    +0.212 C 
BRANCH  33  34
ATOM     34  C   UNL     1       4.136  -1.076   8.134  0.00  0.00    -0.084 C 
ATOM     35  C   UNL     1       4.487   0.028   8.326  0.00  0.00    +0.005 C 
ENDBRANCH  33  34
ENDBRANCH   3  33
TORSDOF 9
