REMARK  Name = ZINC01222179
REMARK  6 active torsions:
REMARK  status: ('A' for Active; 'I' for Inactive)
REMARK    1  A    between atoms: C_5  and  S_7
REMARK    2  A    between atoms: S_7  and  N_10
REMARK    3  A    between atoms: N_10  and  C_11
REMARK    4  A    between atoms: N_10  and  C_28
REMARK    5  A    between atoms: C_11  and  C_12
REMARK    6  A    between atoms: C_28  and  C_29
REMARK                            x       y       z     vdW  Elec       q    Type
REMARK                         _______ _______ _______ _____ _____    ______ ____
ROOT
ATOM      1  N   UNL     1      -1.777   3.746   3.357  0.00  0.00    -0.170 NA
ENDROOT
BRANCH   1   2
ATOM      2  S   UNL     1      -1.695   5.397   3.270  0.00  0.00    +0.062 S 
ATOM      3  O   UNL     1      -0.563   5.788   4.036  0.00  0.00    -0.153 OA
ATOM      4  O   UNL     1      -1.842   5.740   1.899  0.00  0.00    -0.153 OA
BRANCH   2   9
ATOM      5  C   UNL     1      -4.094   7.073   6.023  0.00  0.00    +0.002 A 
ATOM      6  C   UNL     1      -5.333   7.034   5.410  0.00  0.00    +0.001 A 
ATOM      7  C   UNL     1      -5.461   6.495   4.144  0.00  0.00    +0.017 A 
ATOM      8  C   UNL     1      -4.349   5.999   3.488  0.00  0.00    +0.044 A 
ATOM      9  C   UNL     1      -3.111   6.034   4.103  0.00  0.00    +0.119 A 
ATOM     10  C   UNL     1      -2.984   6.574   5.369  0.00  0.00    +0.029 A 
ATOM     11 BR   UNL     1      -4.523   5.267   1.753  0.00  0.00    -0.048 Br
ENDBRANCH   2   9
ENDBRANCH   1   2
BRANCH   1  12
ATOM     12  C   UNL     1      -1.150   3.039   4.476  0.00  0.00    +0.150 C 
BRANCH  12  13
ATOM     13  C   UNL     1       0.209   2.539   4.057  0.00  0.00    +0.033 A 
ATOM     14  C   UNL     1       1.312   3.287   4.311  0.00  0.00    +0.020 A 
ATOM     15  C   UNL     1       2.617   2.772   3.896  0.00  0.00    +0.003 A 
ATOM     16  C   UNL     1       3.790   3.498   4.136  0.00  0.00    +0.059 A 
ATOM     17  C   UNL     1       5.005   2.990   3.729  0.00  0.00    +0.163 A 
ATOM     18  C   UNL     1       5.069   1.754   3.080  0.00  0.00    +0.164 A 
ATOM     19  C   UNL     1       3.915   1.029   2.838  0.00  0.00    +0.075 A 
ATOM     20  C   UNL     1       2.683   1.527   3.241  0.00  0.00    +0.053 A 
ATOM     21  N   UNL     1       1.521   0.819   3.007  0.00  0.00    -0.322 N 
ATOM     22  H   UNL     1       1.569  -0.065   2.541  0.00  0.00    +0.169 HD
ATOM     23  C   UNL     1       0.328   1.299   3.397  0.00  0.00    +0.254 A 
ATOM     24  O   UNL     1      -0.677   0.646   3.174  0.00  0.00    -0.268 OA
ATOM     25  O   UNL     1       6.265   1.243   2.679  0.00  0.00    -0.485 OA
ATOM     26  C   UNL     1       7.362   2.159   2.599  0.00  0.00    +0.270 C 
ATOM     27  C   UNL     1       7.379   3.003   3.880  0.00  0.00    +0.270 C 
ATOM     28  O   UNL     1       6.137   3.710   3.967  0.00  0.00    -0.485 OA
ENDBRANCH  12  13
ENDBRANCH   1  12
BRANCH   1  29
ATOM     29  C   UNL     1      -2.477   2.992   2.313  0.00  0.00    +0.141 C 
BRANCH  29  30
ATOM     30  C   UNL     1      -3.679   2.270   2.926  0.00  0.00    +0.134 C 
ATOM     31  C   UNL     1      -4.486   1.528   1.830  0.00  0.00    +0.035 C 
ATOM     32  C   UNL     1      -5.894   1.438   2.469  0.00  0.00    +0.031 C 
ATOM     33  C   UNL     1      -5.896   2.550   3.536  0.00  0.00    +0.160 C 
ATOM     34  O   UNL     1      -4.627   3.222   3.459  0.00  0.00    -0.375 OA
ENDBRANCH  29  30
ENDBRANCH   1  29
TORSDOF 6
