REMARK  Name = ZINC35000886
REMARK  11 active torsions:
REMARK  status: ('A' for Active; 'I' for Inactive)
REMARK    1  A    between atoms: C_1  and  C_2
REMARK    2  A    between atoms: C_9  and  C_11
REMARK    3  A    between atoms: C_18  and  C_20
REMARK    4  A    between atoms: C_20  and  C_22
REMARK    5  A    between atoms: C_20  and  N_25
REMARK    6  A    between atoms: C_22  and  C_23
REMARK    7  A    between atoms: C_22  and  C_24
REMARK    8  A    between atoms: N_28  and  C_29
REMARK    9  A    between atoms: C_29  and  C_30
REMARK   10  A    between atoms: C_29  and  C_31
REMARK   11  A    between atoms: C_29  and  C_32
REMARK                            x       y       z     vdW  Elec       q    Type
REMARK                         _______ _______ _______ _____ _____    ______ ____
ROOT
ATOM      1  C   UNL     1      -1.205   2.204  -1.005  0.00  0.00    +0.029 C 
ATOM      2  C   UNL     1      -0.791   0.731  -1.038  0.00  0.00    +0.091 C 
ATOM      3  C   UNL     1      -1.970  -0.145  -0.599  0.00  0.00    +0.130 C 
ATOM      4  N   UNL     1      -2.195   0.055   0.839  0.00  0.00    -0.297 N 
ATOM      5  C   UNL     1      -1.077  -0.164   1.768  0.00  0.00    +0.127 C 
ATOM      6  C   UNL     1       0.103   0.713   1.329  0.00  0.00    +0.127 C 
ATOM      7  N   UNL     1       0.330   0.514  -0.112  0.00  0.00    -0.292 N 
ATOM      8  C   UNL     1       1.538   0.136  -0.575  0.00  0.00    +0.248 C 
ATOM      9  O   UNL     1       1.728   0.040  -1.772  0.00  0.00    -0.270 OA
ATOM     10  C   UNL     1      -3.404   0.432   1.299  0.00  0.00    +0.236 C 
ATOM     11  O   UNL     1      -4.290   0.709   0.518  0.00  0.00    -0.274 OA
ENDROOT
BRANCH   8  12
ATOM     12  C   UNL     1       2.632  -0.162   0.373  0.00  0.00    +0.055 A 
ATOM     13  C   UNL     1       3.009   0.783   1.329  0.00  0.00    +0.014 A 
ATOM     14  C   UNL     1       4.030   0.499   2.211  0.00  0.00    +0.001 A 
ATOM     15  C   UNL     1       4.683  -0.720   2.150  0.00  0.00    +0.001 A 
ATOM     16  C   UNL     1       4.317  -1.661   1.205  0.00  0.00    +0.021 A 
ATOM     17  C   UNL     1       3.291  -1.393   0.320  0.00  0.00    +0.053 A 
ATOM     18 CL   UNL     1       2.827  -2.578  -0.860  0.00  0.00    -0.083 Cl
ENDBRANCH   8  12
BRANCH  10  19
ATOM     19  C   UNL     1      -3.656   0.510   2.783  0.00  0.00    +0.163 C 
BRANCH  19  20
ATOM     20  N   UNL     1      -5.011   0.036   3.074  0.00  0.00    -0.288 N 
ATOM     21  C   UNL     1      -5.304  -0.462   4.291  0.00  0.00    +0.301 C 
ATOM     22  O   UNL     1      -4.443  -0.518   5.148  0.00  0.00    -0.253 OA
ATOM     23  N   UNL     1      -6.551  -0.898   4.559  0.00  0.00    -0.295 N 
ATOM     24  H   UNL     1      -5.698   0.081   2.390  0.00  0.00    +0.151 HD
ATOM     25  H   UNL     1      -7.237  -0.854   3.876  0.00  0.00    +0.151 HD
BRANCH  23  26
ATOM     26  C   UNL     1      -6.869  -1.440   5.883  0.00  0.00    +0.028 C 
ATOM     27  C   UNL     1      -6.615  -0.370   6.946  0.00  0.00    +0.031 C 
ATOM     28  C   UNL     1      -8.339  -1.860   5.922  0.00  0.00    +0.031 C 
ATOM     29  C   UNL     1      -5.984  -2.656   6.162  0.00  0.00    +0.031 C 
ENDBRANCH  23  26
ENDBRANCH  19  20
BRANCH  19  30
ATOM     30  C   UNL     1      -3.511   1.960   3.249  0.00  0.00    +0.012 C 
ATOM     31  C   UNL     1      -2.062   2.413   3.065  0.00  0.00    +0.009 C 
ATOM     32  C   UNL     1      -4.435   2.856   2.422  0.00  0.00    +0.009 C 
ENDBRANCH  19  30
ENDBRANCH  10  19
TORSDOF 5
