REMARK  Name = ZINC39978896
REMARK  3 active torsions:
REMARK  status: ('A' for Active; 'I' for Inactive)
REMARK    1  A    between atoms: C_6  and  C_7
REMARK    2  A    between atoms: C_10  and  C_13
REMARK    3  A    between atoms: C_16  and  C_19
REMARK                            x       y       z     vdW  Elec       q    Type
REMARK                         _______ _______ _______ _____ _____    ______ ____
ROOT
ATOM      1  C   UNL     1      -1.268  -0.763   0.010  0.00  0.00    +0.168 C 
ATOM      2  N   UNL     1      -1.348  -2.054   0.009  0.00  0.00    -0.067 NA
ATOM      3  O   UNL     1      -2.699  -2.476   0.018  0.00  0.00    -0.367 OA
ATOM      4  C   UNL     1      -3.500  -1.285   0.025  0.00  0.00    +0.322 C 
ATOM      5  N   UNL     1      -2.524  -0.184   0.025  0.00  0.00    -0.287 N 
ATOM      6  H   UNL     1      -2.723   0.765   0.032  0.00  0.00    +0.151 HD
ENDROOT
BRANCH   1  12
ATOM      7  C   UNL     1      -0.017   1.391   0.010  0.00  0.00    +0.015 A 
ATOM      8  C   UNL     1       1.168   2.097   0.002  0.00  0.00    +0.050 A 
ATOM      9  C   UNL     1       2.381   1.424  -0.013  0.00  0.00    +0.166 A 
ATOM     10  C   UNL     1       2.406   0.029  -0.021  0.00  0.00    +0.167 A 
ATOM     11  C   UNL     1       1.222  -0.682  -0.014  0.00  0.00    +0.061 A 
ATOM     12  C   UNL     1       0.002  -0.004   0.002  0.00  0.00    +0.022 A 
ATOM     13  O   UNL     1       3.708  -0.383  -0.036  0.00  0.00    -0.453 OA
ATOM     14  C   UNL     1       4.470   0.767  -0.450  0.00  0.00    +0.466 C 
ATOM     15  O   UNL     1       3.666   1.883  -0.023  0.00  0.00    -0.453 OA
ENDBRANCH   1  12
BRANCH   4  16
ATOM     16  C   UNL     1      -4.381  -1.227  -1.225  0.00  0.00    +0.214 C 
ATOM     17  C   UNL     1      -5.453  -2.301  -1.176  0.00  0.00    +0.032 C 
ATOM     18  C   UNL     1      -6.597  -1.613  -1.182  0.00  0.00    +0.065 C 
ATOM     19  N   UNL     1      -6.358  -0.284  -1.227  0.00  0.00    -0.158 NA
ATOM     20  N   UNL     1      -5.160   0.022  -1.256  0.00  0.00    -0.174 NA
BRANCH  18  21
ATOM     21  C   UNL     1      -7.970  -2.235  -1.143  0.00  0.00    +0.039 C 
ATOM     22  C   UNL     1      -9.170  -1.311  -1.359  0.00  0.00    +0.010 C 
ATOM     23  C   UNL     1      -8.877  -1.871   0.034  0.00  0.00    +0.010 C 
ENDBRANCH  18  21
ENDBRANCH   4  16
TORSDOF 3
