REMARK  Name = ZINC40985805
REMARK  9 active torsions:
REMARK  status: ('A' for Active; 'I' for Inactive)
REMARK    1  A    between atoms: C_1  and  C_2
REMARK    2  A    between atoms: C_5  and  C_8
REMARK    3  A    between atoms: C_8  and  S_9
REMARK    4  A    between atoms: S_9  and  C_10
REMARK    5  A    between atoms: C_13  and  C_17
REMARK    6  A    between atoms: N_19  and  C_20
REMARK    7  A    between atoms: C_20  and  C_21
REMARK    8  A    between atoms: C_21  and  C_23
REMARK    9  A    between atoms: C_21  and  N_29
REMARK                            x       y       z     vdW  Elec       q    Type
REMARK                         _______ _______ _______ _____ _____    ______ ____
ROOT
ATOM      1  C   UNL     1       1.261 -10.731  -0.106  0.00  0.00    +0.248 C 
ATOM      2  O   UNL     1       2.264 -11.404   0.034  0.00  0.00    -0.270 OA
ATOM      3  N   UNL     1       0.051 -11.324  -0.133  0.00  0.00    -0.312 N 
ATOM      4  H   UNL     1      -0.750 -10.787  -0.244  0.00  0.00    +0.149 HD
ENDROOT
BRANCH   1   8
ATOM      5  C   UNL     1       1.563  -6.603  -0.494  0.00  0.00    +0.190 A 
ATOM      6  N   UNL     1       0.362  -7.168  -0.525  0.00  0.00    -0.229 NA
ATOM      7  C   UNL     1       0.224  -8.475  -0.405  0.00  0.00    +0.129 A 
ATOM      8  C   UNL     1       1.368  -9.267  -0.244  0.00  0.00    +0.092 A 
ATOM      9  C   UNL     1       2.619  -8.631  -0.217  0.00  0.00    +0.146 A 
ATOM     10  N   UNL     1       2.671  -7.318  -0.349  0.00  0.00    -0.209 NA
ATOM     11 CL   UNL     1       4.074  -9.556  -0.019  0.00  0.00    -0.061 Cl
BRANCH   5  12
ATOM     12  S   UNL     1       1.689  -4.853  -0.659  0.00  0.00    -0.081 S 
BRANCH  12  13
ATOM     13  C   UNL     1      -0.031  -4.303  -0.830  0.00  0.00    +0.112 C 
BRANCH  13  18
ATOM     14  C   UNL     1      -0.170   1.445  -1.408  0.00  0.00    +0.044 C 
ATOM     15  C   UNL     1      -0.134  -0.054  -1.257  0.00  0.00    -0.050 A 
ATOM     16  C   UNL     1      -0.036  -0.860  -2.377  0.00  0.00    +0.003 A 
ATOM     17  C   UNL     1      -0.003  -2.234  -2.238  0.00  0.00    +0.005 A 
ATOM     18  C   UNL     1      -0.066  -2.804  -0.980  0.00  0.00    -0.037 A 
ATOM     19  C   UNL     1      -0.163  -1.999   0.139  0.00  0.00    +0.005 A 
ATOM     20  C   UNL     1      -0.192  -0.624   0.001  0.00  0.00    +0.003 A 
ENDBRANCH  13  18
ENDBRANCH  12  13
ENDBRANCH   5  12
ENDBRANCH   1   8
BRANCH   3  21
ATOM     21  C   UNL     1      -0.056 -12.779   0.004  0.00  0.00    +0.094 C 
BRANCH  21  22
ATOM     22  C   UNL     1      -1.531 -13.180   0.054  0.00  0.00    -0.020 C 
BRANCH  22  23
ATOM     23  N   UNL     1      -1.638 -14.626   0.288  0.00  0.00    +0.385 N 
ATOM     24  C   UNL     1      -3.053 -15.018   0.280  0.00  0.00    -0.078 C 
ATOM     25  C   UNL     1      -3.166 -16.536   0.442  0.00  0.00    -0.019 C 
ATOM     26  C   UNL     1      -2.527 -16.951   1.770  0.00  0.00    -0.004 C 
ATOM     27  C   UNL     1      -1.073 -16.471   1.798  0.00  0.00    -0.019 C 
ATOM     28  C   UNL     1      -1.037 -14.956   1.585  0.00  0.00    -0.078 C 
ATOM     29  H   UNL     1      -1.150 -15.121  -0.444  0.00  0.00    -0.081 HD
ENDBRANCH  22  23
BRANCH  22  30
ATOM     30  C   UNL     1      -2.191 -12.832  -1.255  0.00  0.00    -0.059 A 
ATOM     31  C   UNL     1      -2.043 -13.667  -2.347  0.00  0.00    +0.002 A 
ATOM     32  C   UNL     1      -2.648 -13.348  -3.548  0.00  0.00    +0.000 A 
ATOM     33  C   UNL     1      -3.402 -12.195  -3.657  0.00  0.00    +0.000 A 
ATOM     34  C   UNL     1      -3.551 -11.360  -2.565  0.00  0.00    +0.000 A 
ATOM     35  C   UNL     1      -2.950 -11.681  -1.363  0.00  0.00    +0.002 A 
ENDBRANCH  22  30
ENDBRANCH  21  22
ENDBRANCH   3  21
TORSDOF 8
