REMARK  Name = ZINC06250748
REMARK  6 active torsions:
REMARK  status: ('A' for Active; 'I' for Inactive)
REMARK    1  A    between atoms: C_1  and  C_2
REMARK    2  A    between atoms: C_5  and  C_16
REMARK    3  A    between atoms: C_10  and  C_12
REMARK    4  A    between atoms: C_12  and  C_13
REMARK    5  A    between atoms: C_12  and  C_14
REMARK    6  A    between atoms: C_12  and  C_15
REMARK                            x       y       z     vdW  Elec       q    Type
REMARK                         _______ _______ _______ _____ _____    ______ ____
ROOT
ATOM      1  C   UNL     1       1.806   2.533   0.098  0.00  0.00    +0.009 C 
ATOM      2  C   UNL     1       1.170   1.141   0.085  0.00  0.00    +0.004 C 
ATOM      3  C   UNL     1      -0.354   1.276   0.131  0.00  0.00    +0.009 C 
ATOM      4  C   UNL     1      -0.992  -0.114   0.085  0.00  0.00    +0.004 C 
ATOM      5  C   UNL     1      -0.541  -0.920   1.308  0.00  0.00    +0.111 C 
ATOM      6  N   UNL     1       0.928  -0.931   1.350  0.00  0.00    -0.301 N 
ATOM      7  C   UNL     1       1.647   0.350   1.307  0.00  0.00    +0.111 C 
ATOM      8  C   UNL     1       1.604  -2.095   1.428  0.00  0.00    +0.221 C 
ATOM      9  O   UNL     1       1.000  -3.139   1.555  0.00  0.00    -0.275 OA
ATOM     10  C   UNL     1      -0.555  -0.834  -1.192  0.00  0.00    +0.009 C 
ENDROOT
BRANCH   8  11
ATOM     11  C   UNL     1       3.109  -2.098   1.356  0.00  0.00    +0.039 C 
ATOM     12  C   UNL     1       3.619  -3.539   1.422  0.00  0.00    +0.020 C 
ATOM     13  C   UNL     1       3.558  -1.458   0.042  0.00  0.00    +0.020 C 
ATOM     14  C   UNL     1       3.677  -1.302   2.532  0.00  0.00    +0.020 C 
ENDBRANCH   8  11
TORSDOF 1
