REMARK  Name = ZINC09971225
REMARK  9 active torsions:
REMARK  status: ('A' for Active; 'I' for Inactive)
REMARK    1  A    between atoms: C_1  and  C_2
REMARK    2  A    between atoms: C_2  and  O_3
REMARK    3  A    between atoms: O_3  and  C_4
REMARK    4  A    between atoms: C_7  and  N_10
REMARK    5  A    between atoms: C_13  and  C_18
REMARK    6  A    between atoms: C_18  and  N_61
REMARK    7  A    between atoms: N_21  and  C_24
REMARK    8  A    between atoms: C_27  and  O_30
REMARK    9  A    between atoms: O_30  and  C_31
REMARK                            x       y       z     vdW  Elec       q    Type
REMARK                         _______ _______ _______ _____ _____    ______ ____
ROOT
ATOM      1  N   UNL     1       1.158   3.487   0.009  0.00  0.00    -0.284 N 
ATOM      2  C   UNL     1       2.342   4.193   0.106  0.00  0.00    +0.224 A 
ATOM      3  N   UNL     1       2.320   5.520   0.208  0.00  0.00    -0.201 NA
ATOM      4  C   UNL     1       3.451   6.196   0.305  0.00  0.00    +0.120 A 
ATOM      5  N   UNL     1       4.609   5.558   0.291  0.00  0.00    -0.202 NA
ATOM      6  C   UNL     1       4.639   4.231   0.185  0.00  0.00    +0.217 A 
ATOM      7  N   UNL     1       3.503   3.548   0.092  0.00  0.00    -0.181 NA
ATOM      8  N   UNL     1       5.848   3.567   0.172  0.00  0.00    -0.327 N 
ATOM      9  H   UNL     1       0.315   3.962  -0.061  0.00  0.00    +0.155 HD
ATOM     10  H   UNL     1       5.869   2.600   0.094  0.00  0.00    +0.145 HD
ATOM     11  H   UNL     1       6.677   4.066   0.239  0.00  0.00    +0.145 HD
ENDROOT
BRANCH   1  15
ATOM     12  C   UNL     1       1.209  -0.682   0.021  0.00  0.00    +0.121 A 
ATOM     13  C   UNL     1       2.148   0.025   0.757  0.00  0.00    +0.047 A 
ATOM     14  C   UNL     1       2.132   1.406   0.754  0.00  0.00    +0.027 A 
ATOM     15  C   UNL     1       1.176   2.087   0.013  0.00  0.00    +0.034 A 
ATOM     16  C   UNL     1       0.236   1.379  -0.725  0.00  0.00    +0.027 A 
ATOM     17  C   UNL     1       0.253  -0.002  -0.720  0.00  0.00    +0.047 A 
BRANCH  12  18
ATOM     18  O   UNL     1       1.226  -2.041   0.025  0.00  0.00    -0.492 OA
BRANCH  18  20
ATOM     19  C   UNL     1       0.406  -4.219  -0.628  0.00  0.00    +0.048 C 
ATOM     20  C   UNL     1       0.229  -2.704  -0.756  0.00  0.00    +0.225 C 
ENDBRANCH  18  20
ENDBRANCH  12  18
ENDBRANCH   1  15
BRANCH   4  21
ATOM     21  C   UNL     1       3.422   7.697   0.426  0.00  0.00    -0.001 C 
BRANCH  21  27
ATOM     22  C   UNL     1       4.742   8.028  -1.578  0.00  0.00    -0.059 C 
ATOM     23  C   UNL     1       4.709   8.599  -2.998  0.00  0.00    +0.086 C 
ATOM     24  N   UNL     1       4.445  10.043  -2.936  0.00  0.00    -0.333 N 
ATOM     25  C   UNL     1       3.161  10.313  -2.272  0.00  0.00    +0.086 C 
ATOM     26  C   UNL     1       3.194   9.741  -0.853  0.00  0.00    -0.059 C 
ATOM     27  N   UNL     1       3.438   8.286  -0.931  0.00  0.00    +0.386 N 
ATOM     28  H   UNL     1       2.695   7.852  -1.491  0.00  0.00    -0.081 HD
BRANCH  24  29
ATOM     29  C   UNL     1       4.479  10.615  -4.213  0.00  0.00    +0.030 A 
ATOM     30  C   UNL     1       3.381  11.318  -4.689  0.00  0.00    +0.027 A 
ATOM     31  C   UNL     1       3.417  11.886  -5.947  0.00  0.00    +0.047 A 
ATOM     32  C   UNL     1       4.547  11.745  -6.739  0.00  0.00    +0.120 A 
ATOM     33  C   UNL     1       5.643  11.038  -6.266  0.00  0.00    +0.047 A 
ATOM     34  C   UNL     1       5.610  10.474  -5.006  0.00  0.00    +0.027 A 
BRANCH  32  35
ATOM     35  O   UNL     1       4.580  12.300  -7.981  0.00  0.00    -0.495 OA
ATOM     36  C   UNL     1       3.417  13.014  -8.403  0.00  0.00    +0.277 C 
ENDBRANCH  32  35
ENDBRANCH  24  29
ENDBRANCH  21  27
ENDBRANCH   4  21
TORSDOF 7
