REMARK  Name = ZINC28467032
REMARK  6 active torsions:
REMARK  status: ('A' for Active; 'I' for Inactive)
REMARK    1  A    between atoms: C_1  and  C_2
REMARK    2  A    between atoms: N_4  and  C_5
REMARK    3  A    between atoms: C_8  and  C_11
REMARK    4  A    between atoms: C_13  and  C_25
REMARK    5  A    between atoms: C_15  and  C_20
REMARK    6  A    between atoms: C_15  and  O_24
REMARK                            x       y       z     vdW  Elec       q    Type
REMARK                         _______ _______ _______ _____ _____    ______ ____
ROOT
ATOM      1  C   UNL     1       5.010   3.626   0.281  0.00  0.00    +0.117 C 
ATOM      2  C   UNL     1       5.182   4.405   1.589  0.00  0.00    +0.110 C 
ATOM      3  C   UNL     1       4.038   5.419   1.707  0.00  0.00    +0.241 C 
ATOM      4  N   UNL     1       4.023   6.266   0.514  0.00  0.00    -0.264 N 
ATOM      5  C   UNL     1       4.458   5.812  -0.671  0.00  0.00    +0.302 C 
ATOM      6  O   UNL     1       4.414   6.553  -1.633  0.00  0.00    -0.253 OA
ATOM      7  N   UNL     1       4.941   4.571  -0.836  0.00  0.00    -0.292 N 
ATOM      8  H   UNL     1       3.648   7.299   0.577  0.00  0.00    +0.153 HD
ATOM      9  H   UNL     1       5.289   4.268  -1.834  0.00  0.00    +0.151 HD
ENDROOT
BRANCH   1  13
ATOM     10  C   UNL     1       1.401   1.342   0.443  0.00  0.00    +0.033 A 
ATOM     11  C   UNL     1       1.752   2.007  -0.725  0.00  0.00    +0.023 A 
ATOM     12  C   UNL     1       2.915   2.749  -0.772  0.00  0.00    +0.007 A 
ATOM     13  C   UNL     1       3.737   2.821   0.338  0.00  0.00    -0.026 A 
ATOM     14  C   UNL     1       3.394   2.155   1.500  0.00  0.00    +0.007 A 
ATOM     15  C   UNL     1       2.228   1.416   1.556  0.00  0.00    +0.023 A 
BRANCH  10  19
ATOM     16  C   UNL     1      -2.173   0.261  -0.038  0.00  0.00    +0.109 C 
ATOM     17  C   UNL     1      -0.874   1.013  -0.172  0.00  0.00    +0.214 C 
ATOM     18  O   UNL     1      -0.812   1.995  -0.881  0.00  0.00    -0.276 OA
ATOM     19  N   UNL     1       0.219   0.594   0.496  0.00  0.00    -0.286 N 
ATOM     20  H   UNL     1       0.183  -0.335   1.084  0.00  0.00    +0.155 HD
ENDBRANCH  10  19
ENDBRANCH   1  13
BRANCH   2  21
ATOM     21  C   UNL     1       6.503   5.131   1.575  0.00  0.00    -0.000 A 
ATOM     22  C   UNL     1       7.549   5.015   2.429  0.00  0.00    +0.012 A 
ATOM     23  C   UNL     1       8.675   5.788   2.218  0.00  0.00    +0.008 A 
ATOM     24  C   UNL     1       8.695   6.648   1.170  0.00  0.00    +0.045 A 
ATOM     25  S   UNL     1       7.091   6.373   0.436  0.00  0.00    -0.101 S 
ENDBRANCH   2  21
BRANCH   3  26
ATOM     26  C   UNL     1       2.706   4.676   1.824  0.00  0.00    +0.436 C 
ATOM     27  F   UNL     1       2.314   4.220   0.561  0.00  0.00    -0.166 F 
ATOM     28  F   UNL     1       2.854   3.586   2.688  0.00  0.00    -0.166 F 
ATOM     29  F   UNL     1       1.732   5.543   2.330  0.00  0.00    -0.166 F 
ENDBRANCH   3  26
BRANCH   3  30
ATOM     30  O   UNL     1       4.237   6.230   2.866  0.00  0.00    -0.364 OA
ATOM     31  H   UNL     1       3.513   7.019   3.117  0.00  0.00    +0.212 HD
ENDBRANCH   3  30
TORSDOF 5
