REMARK  Name = ZINC39597665
REMARK  6 active torsions:
REMARK  status: ('A' for Active; 'I' for Inactive)
REMARK    1  A    between atoms: C_7  and  C_10
REMARK    2  A    between atoms: C_10  and  C_11
REMARK    3  A    between atoms: C_11  and  N_12
REMARK    4  A    between atoms: C_13  and  C_15
REMARK    5  A    between atoms: C_26  and  C_28
REMARK    6  A    between atoms: C_30  and  C_35
REMARK                            x       y       z     vdW  Elec       q    Type
REMARK                         _______ _______ _______ _____ _____    ______ ____
ROOT
ATOM      1  C   UNL     1      -5.921   7.698  -2.249  0.00  0.00    +0.100 C 
ATOM      2  C   UNL     1      -4.787   8.354  -1.431  0.00  0.00    +0.121 C 
ATOM      3  N   UNL     1      -3.868   8.915  -2.449  0.00  0.00    -0.296 N 
ATOM      4  C   UNL     1      -4.765   9.459  -3.497  0.00  0.00    +0.115 C 
ATOM      5  C   UNL     1      -5.906   8.427  -3.602  0.00  0.00    -0.004 C 
ATOM      6  C   UNL     1      -5.621   7.441  -4.731  0.00  0.00    -0.010 C 
ATOM      7  C   UNL     1      -5.667   8.180  -6.072  0.00  0.00    -0.082 C 
ATOM      8  N   UNL     1      -6.990   8.791  -6.250  0.00  0.00    +0.379 N 
ATOM      9  C   UNL     1      -7.218   9.805  -5.214  0.00  0.00    -0.082 C 
ATOM     10  C   UNL     1      -7.237   9.135  -3.837  0.00  0.00    -0.010 C 
ATOM     11  C   UNL     1      -2.520   8.928  -2.428  0.00  0.00    +0.247 C 
ATOM     12  O   UNL     1      -1.920   8.328  -1.557  0.00  0.00    -0.270 OA
ATOM     13  H   UNL     1      -7.038   9.225  -7.160  0.00  0.00    -0.086 HD
ATOM     14  H   UNL     1      -7.700   8.077  -6.183  0.00  0.00    -0.086 HD
ENDROOT
BRANCH  11  15
ATOM     15  C   UNL     1      -1.771   9.671  -3.463  0.00  0.00    +0.040 A 
ATOM     16  C   UNL     1      -0.438   9.353  -3.729  0.00  0.00    +0.025 A 
ATOM     17  C   UNL     1       0.256  10.049  -4.696  0.00  0.00    +0.058 A 
ATOM     18  C   UNL     1      -0.366  11.062  -5.405  0.00  0.00    +0.050 A 
ATOM     19  C   UNL     1      -1.688  11.384  -5.147  0.00  0.00    +0.125 A 
ATOM     20  C   UNL     1      -2.396  10.690  -4.184  0.00  0.00    +0.051 A 
ATOM     21  F   UNL     1      -2.289  12.375  -5.842  0.00  0.00    -0.205 F 
BRANCH  17  22
ATOM     22  C   UNL     1       1.695   9.706  -4.983  0.00  0.00    +0.418 C 
ATOM     23  F   UNL     1       1.751   8.725  -5.979  0.00  0.00    -0.166 F 
ATOM     24  F   UNL     1       2.370  10.851  -5.417  0.00  0.00    -0.166 F 
ATOM     25  F   UNL     1       2.300   9.222  -3.817  0.00  0.00    -0.166 F 
ENDBRANCH  17  22
ENDBRANCH  11  15
BRANCH   1  27
ATOM     26  N   UNL     1      -6.665   5.378  -2.682  0.00  0.00    -0.315 N 
ATOM     27  C   UNL     1      -5.647   6.228  -2.441  0.00  0.00    +0.218 C 
ATOM     28  O   UNL     1      -4.510   5.811  -2.380  0.00  0.00    -0.275 OA
ATOM     29  H   UNL     1      -7.574   5.712  -2.731  0.00  0.00    +0.149 HD
BRANCH  26  30
ATOM     30  C   UNL     1      -6.397   3.950  -2.869  0.00  0.00    +0.109 C 
BRANCH  30  31
ATOM     31  C   UNL     1      -7.714   3.215  -3.126  0.00  0.00    +0.056 C 
BRANCH  31  38
ATOM     32  C   UNL     1      -7.205  -0.371  -0.149  0.00  0.00    +0.001 A 
ATOM     33  C   UNL     1      -6.957  -1.576  -0.791  0.00  0.00    +0.002 A 
ATOM     34  C   UNL     1      -6.881  -1.637  -2.165  0.00  0.00    +0.026 A 
ATOM     35  C   UNL     1      -7.055  -0.481  -2.919  0.00  0.00    +0.047 A 
ATOM     36  N   UNL     1      -7.038  -0.219  -4.271  0.00  0.00    -0.360 N 
ATOM     37  C   UNL     1      -7.269   1.112  -4.489  0.00  0.00    +0.087 A 
ATOM     38  C   UNL     1      -7.439   1.745  -3.318  0.00  0.00    -0.021 A 
ATOM     39  C   UNL     1      -7.307   0.738  -2.263  0.00  0.00    +0.003 A 
ATOM     40  C   UNL     1      -7.385   0.776  -0.870  0.00  0.00    +0.010 A 
ATOM     41  H   UNL     1      -6.886  -0.880  -4.965  0.00  0.00    +0.165 HD
ENDBRANCH  31  38
ENDBRANCH  30  31
ENDBRANCH  26  30
ENDBRANCH   1  27
TORSDOF 6
