REMARK  Name = ZINC00058328
REMARK  4 active torsions:
REMARK  status: ('A' for Active; 'I' for Inactive)
REMARK    1  A    between atoms: C_2  and  N_21
REMARK    2  A    between atoms: C_5  and  C_6
REMARK    3  A    between atoms: C_8  and  C_19
REMARK    4  A    between atoms: C_9  and  N_18
REMARK                            x       y       z     vdW  Elec       q    Type
REMARK                         _______ _______ _______ _____ _____    ______ ____
ROOT
ATOM      1  C   UNL     1       1.006  -2.183  -0.631  0.00  0.00    +0.108 C 
ATOM      2  C   UNL     1      -0.362  -2.714  -0.308  0.00  0.00    +0.099 C 
ATOM      3  C   UNL     1      -1.280  -1.922   0.297  0.00  0.00    +0.198 C 
ATOM      4  O   UNL     1      -0.998  -0.653   0.628  0.00  0.00    -0.445 OA
ATOM      5  C   UNL     1       0.002  -0.004   0.002  0.00  0.00    +0.115 C 
ATOM      6  C   UNL     1       0.994  -0.673  -0.613  0.00  0.00    +0.046 C 
ATOM      7  C   UNL     1       2.050   0.006  -1.251  0.00  0.00    +0.163 C 
ATOM      8  O   UNL     1       2.918  -0.633  -1.810  0.00  0.00    -0.292 OA
ATOM      9  C   UNL     1       2.122   1.509  -1.252  0.00  0.00    +0.080 C 
ATOM     10  C   UNL     1       1.415   2.040  -0.001  0.00  0.00    +0.016 C 
ATOM     11  C   UNL     1      -0.018   1.507   0.010  0.00  0.00    +0.075 C 
ENDROOT
BRANCH   1  16
ATOM     12  C   UNL     1       3.097  -3.451   0.207  0.00  0.00    +0.045 A 
ATOM     13  C   UNL     1       3.865  -3.793   1.304  0.00  0.00    +0.133 A 
ATOM     14  C   UNL     1       3.485  -3.365   2.532  0.00  0.00    +0.078 A 
ATOM     15  S   UNL     1       2.004  -2.441   2.159  0.00  0.00    -0.098 S 
ATOM     16  C   UNL     1       1.992  -2.687   0.391  0.00  0.00    +0.005 A 
BRANCH  13  17
ATOM     17  N   UNL     1       5.082  -4.621   1.140  0.00  0.00    +0.057 N 
ATOM     18  O   UNL     1       5.749  -4.922   2.113  0.00  0.00    -0.126 OA
ATOM     19  O   UNL     1       5.415  -5.002   0.032  0.00  0.00    -0.126 OA
ENDBRANCH  13  17
ENDBRANCH   1  16
BRANCH   3  20
ATOM     20  N   UNL     1      -2.524  -2.429   0.578  0.00  0.00    -0.328 N 
ATOM     21  H   UNL     1      -3.189  -1.871   1.012  0.00  0.00    +0.145 HD
ATOM     22  H   UNL     1      -2.739  -3.346   0.344  0.00  0.00    +0.145 HD
ENDBRANCH   3  20
BRANCH   2  23
ATOM     23  C   UNL     1      -0.698  -4.066  -0.643  0.00  0.00    +0.101 C 
ATOM     24  N   UNL     1      -0.964  -5.138  -0.908  0.00  0.00    -0.191 NA
ENDBRANCH   2  23
TORSDOF 4
