REMARK  Name = ZINC27534193
REMARK  13 active torsions:
REMARK  status: ('A' for Active; 'I' for Inactive)
REMARK    1  A    between atoms: C_1  and  C_2
REMARK    2  A    between atoms: C_2  and  C_3
REMARK    3  A    between atoms: C_2  and  O_4
REMARK    4  A    between atoms: O_4  and  C_5
REMARK    5  A    between atoms: C_5  and  C_7
REMARK    6  A    between atoms: C_8  and  N_38
REMARK    7  A    between atoms: C_12  and  C_14
REMARK    8  A    between atoms: C_17  and  O_22
REMARK    9  A    between atoms: C_18  and  O_20
REMARK   10  A    between atoms: O_20  and  C_21
REMARK   11  A    between atoms: O_22  and  C_23
REMARK   12  A    between atoms: C_23  and  C_24
REMARK   13  A    between atoms: C_27  and  N_30
REMARK                            x       y       z     vdW  Elec       q    Type
REMARK                         _______ _______ _______ _____ _____    ______ ____
ROOT
ATOM      1  C   UNL     1       3.310   0.864   3.630  0.00  0.00    +0.105 C 
ATOM      2  C   UNL     1       3.379   2.096   3.061  0.00  0.00    +0.195 C 
ATOM      3  O   UNL     1       2.971   2.306   1.801  0.00  0.00    -0.446 OA
ATOM      4  C   UNL     1       2.108   1.450   1.223  0.00  0.00    +0.115 C 
ATOM      5  C   UNL     1       1.960   0.192   1.675  0.00  0.00    +0.045 C 
ATOM      6  C   UNL     1       2.765  -0.302   2.853  0.00  0.00    +0.098 C 
ATOM      7  C   UNL     1       1.055  -0.703   1.070  0.00  0.00    +0.163 C 
ATOM      8  O   UNL     1       0.967  -1.838   1.492  0.00  0.00    -0.292 OA
ATOM      9  C   UNL     1       0.196  -0.276  -0.089  0.00  0.00    +0.080 C 
ATOM     10  C   UNL     1      -0.049   1.234   0.007  0.00  0.00    +0.016 C 
ATOM     11  C   UNL     1       1.305   1.944   0.042  0.00  0.00    +0.075 C 
ENDROOT
BRANCH   6  12
ATOM     12  C   UNL     1       3.907  -1.151   2.359  0.00  0.00    -0.031 A 
ATOM     13  C   UNL     1       4.850  -0.609   1.505  0.00  0.00    +0.008 A 
ATOM     14  C   UNL     1       5.902  -1.382   1.052  0.00  0.00    +0.050 A 
ATOM     15  C   UNL     1       6.008  -2.707   1.445  0.00  0.00    +0.162 A 
ATOM     16  C   UNL     1       5.056  -3.254   2.300  0.00  0.00    +0.162 A 
ATOM     17  C   UNL     1       4.007  -2.471   2.755  0.00  0.00    +0.054 A 
BRANCH  16  18
ATOM     18  O   UNL     1       5.156  -4.553   2.689  0.00  0.00    -0.491 OA
ATOM     19  C   UNL     1       4.143  -5.047   3.567  0.00  0.00    +0.277 C 
ENDBRANCH  16  18
BRANCH  15  20
ATOM     20  O   UNL     1       7.040  -3.470   0.997  0.00  0.00    -0.484 OA
BRANCH  20  21
ATOM     21  C   UNL     1       7.979  -2.842   0.122  0.00  0.00    +0.264 C 
BRANCH  21  22
ATOM     22  C   UNL     1       9.044  -3.835  -0.268  0.00  0.00    -0.010 A 
ATOM     23  C   UNL     1      10.191  -3.953   0.493  0.00  0.00    +0.009 A 
ATOM     24  C   UNL     1      11.166  -4.867   0.138  0.00  0.00    +0.033 A 
ATOM     25  C   UNL     1      10.998  -5.656  -0.985  0.00  0.00    +0.126 A 
ATOM     26  C   UNL     1       9.852  -5.534  -1.749  0.00  0.00    +0.033 A 
ATOM     27  C   UNL     1       8.876  -4.624  -1.391  0.00  0.00    +0.009 A 
BRANCH  25  28
ATOM     28  N   UNL     1      12.043  -6.631  -1.368  0.00  0.00    +0.056 N 
ATOM     29  O   UNL     1      11.894  -7.326  -2.357  0.00  0.00    -0.126 OA
ATOM     30  O   UNL     1      13.052  -6.738  -0.694  0.00  0.00    -0.126 OA
ENDBRANCH  25  28
ENDBRANCH  21  22
ENDBRANCH  20  21
ENDBRANCH  15  20
ENDBRANCH   6  12
BRANCH   2  31
ATOM     31  N   UNL     1       3.875   3.144   3.789  0.00  0.00    -0.329 N 
ATOM     32  H   UNL     1       3.936   4.146   3.340  0.00  0.00    +0.145 HD
ATOM     33  H   UNL     1       4.212   2.984   4.824  0.00  0.00    +0.145 HD
ENDBRANCH   2  31
BRANCH   1  34
ATOM     34  C   UNL     1       3.750   0.679   4.950  0.00  0.00    +0.341 C 
ATOM     35  O   UNL     1       2.941   0.610   5.858  0.00  0.00    -0.245 OA
BRANCH  34  36
ATOM     36  O   UNL     1       5.071   0.578   5.213  0.00  0.00    -0.459 OA
BRANCH  36  38
ATOM     37  C   UNL     1       6.748  -0.412   6.644  0.00  0.00    +0.052 C 
ATOM     38  C   UNL     1       5.448   0.391   6.579  0.00  0.00    +0.171 C 
ATOM     39  C   UNL     1       5.657   1.754   7.242  0.00  0.00    +0.052 C 
ENDBRANCH  36  38
ENDBRANCH  34  36
ENDBRANCH   1  34
TORSDOF 10
