REMARK  Name = ZINC25075070
REMARK  11 active torsions:
REMARK  status: ('A' for Active; 'I' for Inactive)
REMARK    1  A    between atoms: C_1  and  C_2
REMARK    2  A    between atoms: C_2  and  C_41
REMARK    3  A    between atoms: C_5  and  C_8
REMARK    4  A    between atoms: C_10  and  O_22
REMARK    5  A    between atoms: C_18  and  C_20
REMARK    6  A    between atoms: C_18  and  C_21
REMARK    7  A    between atoms: O_22  and  C_23
REMARK    8  A    between atoms: C_23  and  C_24
REMARK    9  A    between atoms: N_26  and  N_27
REMARK   10  A    between atoms: C_28  and  C_30
REMARK   11  A    between atoms: C_39  and  O_40
REMARK                            x       y       z     vdW  Elec       q    Type
REMARK                         _______ _______ _______ _____ _____    ______ ____
ROOT
ATOM      1  C   UNL     1      -2.234  -7.031  -0.015  0.00  0.00    +0.255 C 
ATOM      2  O   UNL     1      -3.289  -6.433  -0.001  0.00  0.00    -0.272 OA
ATOM      3  N   UNL     1      -1.072  -6.348  -0.022  0.00  0.00    -0.232 N 
ATOM      4  H   UNL     1      -0.115  -6.891  -0.034  0.00  0.00    +0.173 HD
ENDROOT
BRANCH   3   5
ATOM      5  N   UNL     1      -1.083  -4.947  -0.014  0.00  0.00    -0.230 N 
ATOM      6  C   UNL     1       0.079  -4.265  -0.022  0.00  0.00    +0.264 C 
ATOM      7  O   UNL     1       1.137  -4.864  -0.035  0.00  0.00    -0.269 OA
ATOM      8  H   UNL     1      -2.040  -4.405  -0.003  0.00  0.00    +0.173 HD
BRANCH   6   9
ATOM      9  C   UNL     1       0.068  -2.791  -0.014  0.00  0.00    +0.080 A 
ATOM     10  C   UNL     1      -1.159  -2.101   0.001  0.00  0.00    +0.017 A 
ATOM     11  C   UNL     1      -1.196  -0.746   0.009  0.00  0.00    +0.009 A 
ATOM     12  C   UNL     1       0.002  -0.004   0.002  0.00  0.00    -0.014 A 
ATOM     13  C   UNL     1      -0.017   1.400   0.010  0.00  0.00    +0.008 A 
ATOM     14  C   UNL     1       1.157   2.091   0.002  0.00  0.00    +0.001 A 
ATOM     15  C   UNL     1       2.380   1.427  -0.013  0.00  0.00    +0.001 A 
ATOM     16  C   UNL     1       2.437   0.066  -0.021  0.00  0.00    +0.012 A 
ATOM     17  C   UNL     1       1.247  -0.680  -0.013  0.00  0.00    +0.024 A 
ATOM     18  C   UNL     1       1.271  -2.090  -0.022  0.00  0.00    +0.137 A 
BRANCH  18  19
ATOM     19  O   UNL     1       2.451  -2.754  -0.037  0.00  0.00    -0.505 OA
ATOM     20  H   UNL     1       3.397  -2.194  -0.043  0.00  0.00    +0.292 HD
ENDBRANCH  18  19
ENDBRANCH   6   9
ENDBRANCH   3   5
BRANCH   1  21
ATOM     21  C   UNL     1      -2.223  -8.538  -0.023  0.00  0.00    +0.257 C 
BRANCH  21  22
ATOM     22  O   UNL     1      -3.566  -9.025  -0.013  0.00  0.00    -0.362 OA
BRANCH  22  24
ATOM     23  C   UNL     1      -4.946 -10.911   0.712  0.00  0.00    +0.184 C 
ATOM     24  C   UNL     1      -3.668 -10.450  -0.019  0.00  0.00    +0.184 C 
ATOM     25  C   UNL     1      -3.890 -10.978  -1.457  0.00  0.00    +0.209 C 
ATOM     26  C   UNL     1      -5.441 -10.856  -1.591  0.00  0.00    +0.285 C 
ATOM     27  O   UNL     1      -5.957 -11.122  -0.279  0.00  0.00    -0.340 OA
ATOM     28  O   UNL     1      -5.775 -11.967  -2.447  0.00  0.00    -0.318 OA
ATOM     29  C   UNL     1      -4.699 -12.910  -2.374  0.00  0.00    +0.168 C 
ATOM     30  O   UNL     1      -3.704 -12.409  -1.467  0.00  0.00    -0.338 OA
ATOM     31  C   UNL     1      -4.082 -13.094  -3.762  0.00  0.00    +0.074 C 
ATOM     32  C   UNL     1      -5.230 -14.252  -1.866  0.00  0.00    +0.074 C 
BRANCH  23  37
ATOM     33  C   UNL     1      -7.923  -7.878   0.527  0.00  0.00    +0.074 C 
ATOM     34  C   UNL     1      -6.835  -8.017   1.594  0.00  0.00    +0.165 C 
ATOM     35  O   UNL     1      -7.297  -8.881   2.646  0.00  0.00    -0.347 OA
ATOM     36  C   UNL     1      -6.777 -10.189   2.306  0.00  0.00    +0.197 C 
ATOM     37  C   UNL     1      -5.399  -9.831   1.697  0.00  0.00    +0.179 C 
ATOM     38  O   UNL     1      -5.654  -8.589   1.010  0.00  0.00    -0.341 OA
ATOM     39  C   UNL     1      -6.504  -6.638   2.169  0.00  0.00    +0.074 C 
ENDBRANCH  23  37
ENDBRANCH  22  24
ENDBRANCH  21  22
ENDBRANCH   1  21
TORSDOF 7
