REMARK  Name = ZINC24775356
REMARK  9 active torsions:
REMARK  status: ('A' for Active; 'I' for Inactive)
REMARK    1  A    between atoms: C_1  and  C_2
REMARK    2  A    between atoms: C_2  and  N_3
REMARK    3  A    between atoms: C_4  and  C_26
REMARK    4  A    between atoms: C_7  and  S_8
REMARK    5  A    between atoms: S_8  and  C_9
REMARK    6  A    between atoms: C_12  and  S_18
REMARK    7  A    between atoms: C_14  and  N_15
REMARK    8  A    between atoms: S_18  and  N_21
REMARK    9  A    between atoms: C_30  and  C_31
REMARK                            x       y       z     vdW  Elec       q    Type
REMARK                         _______ _______ _______ _____ _____    ______ ____
ROOT
ATOM      1  C   UNL     1      -2.363   2.640   3.687  0.00  0.00    +0.046 A 
ATOM      2  C   UNL     1      -1.379   3.506   3.208  0.00  0.00    +0.019 A 
ATOM      3  C   UNL     1      -0.651   3.167   2.088  0.00  0.00    +0.030 A 
ATOM      4  C   UNL     1      -0.901   1.973   1.431  0.00  0.00    +0.108 A 
ATOM      5  C   UNL     1      -1.876   1.109   1.901  0.00  0.00    +0.062 A 
ATOM      6  C   UNL     1      -2.607   1.437   3.024  0.00  0.00    +0.142 A 
ENDROOT
BRANCH   6   7
ATOM      7  N   UNL     1      -3.649   0.512   3.526  0.00  0.00    +0.058 N 
ATOM      8  O   UNL     1      -3.878  -0.624   2.900  0.00  0.00    -0.126 OA
ATOM      9  O   UNL     1      -4.346   0.826   4.598  0.00  0.00    -0.126 OA
ENDBRANCH   6   7
BRANCH   4  10
ATOM     10  S   UNL     1       0.029   1.548  -0.004  0.00  0.00    +0.061 S 
ATOM     11  O   UNL     1      -0.015   0.132  -0.112  0.00  0.00    -0.153 OA
ATOM     12  O   UNL     1       1.252   2.268   0.077  0.00  0.00    -0.153 OA
BRANCH  10  13
ATOM     13  N   UNL     1      -0.788   2.149  -1.313  0.00  0.00    -0.177 NA
ATOM     14  C   UNL     1      -1.814   1.433  -2.085  0.00  0.00    +0.109 C 
ATOM     15  C   UNL     1      -2.273   2.374  -3.219  0.00  0.00    +0.018 C 
ATOM     16  C   UNL     1      -1.073   3.345  -3.370  0.00  0.00    +0.018 C 
ATOM     17  C   UNL     1      -0.603   3.488  -1.901  0.00  0.00    +0.109 C 
ENDBRANCH  10  13
ENDBRANCH   4  10
BRANCH   1  18
ATOM     18  S   UNL     1      -3.292   3.064   5.122  0.00  0.00    -0.048 S 
BRANCH  18  23
ATOM     19  N   UNL     1      -5.840   4.105   5.032  0.00  0.00    -0.302 N 
ATOM     20  C   UNL     1      -6.774   4.357   4.061  0.00  0.00    +0.168 A 
ATOM     21  N   UNL     1      -6.239   3.972   2.875  0.00  0.00    -0.128 NA
ATOM     22  N   UNL     1      -5.052   3.514   3.068  0.00  0.00    -0.122 NA
ATOM     23  C   UNL     1      -4.756   3.568   4.390  0.00  0.00    +0.197 A 
BRANCH  20  24
ATOM     24  C   UNL     1      -8.052   4.913   4.258  0.00  0.00    +0.060 A 
ATOM     25  C   UNL     1      -9.046   4.536   5.273  0.00  0.00    +0.053 A 
ATOM     26  C   UNL     1     -10.104   5.336   5.074  0.00  0.00    +0.196 A 
ATOM     27  O   UNL     1      -9.865   6.165   4.044  0.00  0.00    -0.467 OA
ATOM     28  C   UNL     1      -8.655   5.957   3.528  0.00  0.00    +0.112 A 
ATOM     29  C   UNL     1      -8.041   6.702   2.370  0.00  0.00    +0.087 C 
ENDBRANCH  20  24
BRANCH  19  31
ATOM     30  C   UNL     1      -5.592   5.809   6.768  0.00  0.00    +0.027 C 
ATOM     31  C   UNL     1      -5.975   4.359   6.468  0.00  0.00    +0.122 C 
ENDBRANCH  19  31
ENDBRANCH  18  23
ENDBRANCH   1  18
TORSDOF 7
