REMARK  Name = ZINC37343520
REMARK  7 active torsions:
REMARK  status: ('A' for Active; 'I' for Inactive)
REMARK    1  A    between atoms: C_1  and  C_2
REMARK    2  A    between atoms: C_2  and  C_3
REMARK    3  A    between atoms: C_2  and  C_4
REMARK    4  A    between atoms: C_5  and  C_19
REMARK    5  A    between atoms: N_7  and  C_9
REMARK    6  A    between atoms: C_13  and  N_15
REMARK    7  A    between atoms: C_19  and  O_20
REMARK                            x       y       z     vdW  Elec       q    Type
REMARK                         _______ _______ _______ _____ _____    ______ ____
ROOT
ATOM      1  C   UNL     1      -1.412  -0.526   0.013  0.00  0.00    +0.073 A 
ATOM      2  C   UNL     1      -1.991  -1.340  -0.966  0.00  0.00    +0.038 A 
ATOM      3  C   UNL     1      -3.270  -1.592  -0.596  0.00  0.00    +0.138 A 
ATOM      4  N   UNL     1      -3.490  -0.954   0.582  0.00  0.00    -0.221 N 
ATOM      5  N   UNL     1      -2.305  -0.298   0.942  0.00  0.00    -0.169 NA
ATOM      6 CL   UNL     1      -4.419  -2.555  -1.470  0.00  0.00    -0.062 Cl
ENDROOT
BRANCH   4   7
ATOM      7  C   UNL     1      -4.687  -0.955   1.311  0.00  0.00    +0.069 A 
ATOM      8  C   UNL     1      -5.906  -0.974   0.647  0.00  0.00    +0.028 A 
ATOM      9  C   UNL     1      -7.084  -0.975   1.368  0.00  0.00    +0.004 A 
ATOM     10  C   UNL     1      -7.050  -0.956   2.750  0.00  0.00    +0.033 A 
ATOM     11  C   UNL     1      -5.838  -0.937   3.415  0.00  0.00    +0.128 A 
ATOM     12  C   UNL     1      -4.656  -0.942   2.699  0.00  0.00    +0.060 A 
BRANCH  11  13
ATOM     13  N   UNL     1      -5.806  -0.917   4.894  0.00  0.00    +0.056 N 
ATOM     14  O   UNL     1      -6.839  -0.918   5.521  0.00  0.00    -0.126 OA
ATOM     15  O   UNL     1      -4.746  -0.901   5.476  0.00  0.00    -0.126 OA
ENDBRANCH  11  13
ENDBRANCH   4   7
BRANCH   1  17
ATOM     16  C   UNL     1      -0.019   1.526   0.010  0.00  0.00    +0.014 C 
ATOM     17  C   UNL     1       0.002  -0.004   0.002  0.00  0.00    +0.034 C 
ATOM     18  C   UNL     1       0.742  -0.511   1.242  0.00  0.00    +0.014 C 
ENDBRANCH   1  17
BRANCH   2  19
ATOM     19  C   UNL     1      -1.312  -1.848  -2.212  0.00  0.00    +0.196 C 
BRANCH  19  20
ATOM     20  O   UNL     1      -0.688  -3.104  -1.936  0.00  0.00    -0.390 OA
ATOM     21  H   UNL     1      -0.231  -3.491  -2.695  0.00  0.00    +0.210 HD
ENDBRANCH  19  20
ENDBRANCH   2  19
TORSDOF 5
