REMARK  Name = ZINC02446541
REMARK  5 active torsions:
REMARK  status: ('A' for Active; 'I' for Inactive)
REMARK    1  A    between atoms: C_1  and  S_2
REMARK    2  A    between atoms: S_2  and  C_3
REMARK    3  A    between atoms: C_9  and  C_18
REMARK    4  A    between atoms: C_14  and  N_16
REMARK    5  A    between atoms: N_16  and  N_17
REMARK                            x       y       z     vdW  Elec       q    Type
REMARK                         _______ _______ _______ _____ _____    ______ ____
ROOT
ATOM      1  C   UNL     1       3.084   0.564  -3.184  0.00  0.00    +0.190 A 
ATOM      2  N   UNL     1       1.983   0.842  -2.518  0.00  0.00    -0.221 NA
ATOM      3  C   UNL     1       0.899   1.363  -3.137  0.00  0.00    +0.094 A 
ATOM      4  C   UNL     1      -0.398   1.728  -2.538  0.00  0.00    +0.037 A 
ATOM      5  C   UNL     1      -0.786   1.607  -1.181  0.00  0.00    -0.030 A 
ATOM      6  C   UNL     1      -2.033   2.000  -0.801  0.00  0.00    -0.014 A 
ATOM      7  C   UNL     1      -2.923   2.518  -1.754  0.00  0.00    +0.111 A 
ATOM      8  N   UNL     1      -2.554   2.627  -3.026  0.00  0.00    -0.236 NA
ATOM      9  C   UNL     1      -1.356   2.257  -3.422  0.00  0.00    +0.112 A 
ATOM     10  S   UNL     1      -0.542   2.260  -5.000  0.00  0.00    -0.064 S 
ATOM     11  C   UNL     1       1.022   1.585  -4.513  0.00  0.00    +0.081 A 
ATOM     12  C   UNL     1       2.198   1.281  -5.185  0.00  0.00    +0.151 A 
ATOM     13  N   UNL     1       3.212   0.770  -4.489  0.00  0.00    -0.205 NA
ATOM     14  C   UNL     1      -2.212   1.777   0.686  0.00  0.00    +0.038 C 
ATOM     15  C   UNL     1      -0.779   1.606   1.244  0.00  0.00    +0.009 C 
ATOM     16  C   UNL     1      -0.013   1.086   0.008  0.00  0.00    +0.036 C 
ENDROOT
BRANCH   7  17
ATOM     17  C   UNL     1      -4.275   2.943  -1.341  0.00  0.00    +0.153 A 
ATOM     18  C   UNL     1      -4.972   3.994  -1.853  0.00  0.00    +0.051 A 
ATOM     19  C   UNL     1      -6.205   4.031  -1.175  0.00  0.00    +0.042 A 
ATOM     20  C   UNL     1      -6.198   3.017  -0.286  0.00  0.00    +0.196 A 
ATOM     21  O   UNL     1      -5.031   2.363  -0.389  0.00  0.00    -0.461 OA
ENDBRANCH   7  17
BRANCH   1  23
ATOM     22  C   UNL     1       5.641  -0.290  -3.655  0.00  0.00    +0.093 C 
ATOM     23  S   UNL     1       4.451  -0.113  -2.302  0.00  0.00    -0.089 S 
ENDBRANCH   1  23
BRANCH  12  24
ATOM     24  N   UNL     1       2.313   1.502  -6.549  0.00  0.00    -0.267 N 
ATOM     25  H   UNL     1       1.567   1.874  -7.045  0.00  0.00    +0.167 HD
BRANCH  24  26
ATOM     26  N   UNL     1       3.478   1.196  -7.194  0.00  0.00    -0.255 NA
ATOM     27  H   UNL     1       3.728   0.229  -7.050  0.00  0.00    +0.140 HD
ATOM     28  H   UNL     1       3.413   1.411  -8.178  0.00  0.00    +0.140 HD
ENDBRANCH  24  26
ENDBRANCH  12  24
TORSDOF 4
