REMARK  Name = ZINC08609671
REMARK  11 active torsions:
REMARK  status: ('A' for Active; 'I' for Inactive)
REMARK    1  A    between atoms: C_1  and  C_2
REMARK    2  A    between atoms: C_4  and  C_35
REMARK    3  A    between atoms: C_5  and  N_9
REMARK    4  A    between atoms: C_6  and  C_8
REMARK    5  A    between atoms: C_10  and  C_12
REMARK    6  A    between atoms: C_12  and  S_13
REMARK    7  A    between atoms: S_13  and  C_14
REMARK    8  A    between atoms: C_25  and  C_27
REMARK    9  A    between atoms: C_27  and  C_28
REMARK   10  A    between atoms: C_28  and  N_29
REMARK   11  A    between atoms: C_33  and  C_34
REMARK                            x       y       z     vdW  Elec       q    Type
REMARK                         _______ _______ _______ _____ _____    ______ ____
ROOT
ATOM      1  C   UNL     1      -0.738  -8.847   2.096  0.00  0.00    +0.192 A 
ATOM      2  N   UNL     1      -0.969  -9.245   0.871  0.00  0.00    -0.222 NA
ATOM      3  C   UNL     1      -1.222 -10.543   0.574  0.00  0.00    +0.077 A 
ATOM      4  C   UNL     1      -1.468 -10.955  -0.738  0.00  0.00    +0.028 A 
ATOM      5  C   UNL     1      -1.721 -12.282  -1.001  0.00  0.00    +0.002 A 
ATOM      6  C   UNL     1      -1.737 -13.220   0.023  0.00  0.00    +0.001 A 
ATOM      7  C   UNL     1      -1.499 -12.838   1.325  0.00  0.00    +0.014 A 
ATOM      8  C   UNL     1      -1.239 -11.500   1.614  0.00  0.00    +0.045 A 
ATOM      9  C   UNL     1      -0.978 -11.036   2.981  0.00  0.00    +0.168 A 
ATOM     10  N   UNL     1      -0.728  -9.703   3.164  0.00  0.00    -0.188 N 
ATOM     11  N   UNL     1      -0.508  -9.537   4.538  0.00  0.00    -0.148 NA
ATOM     12  C   UNL     1      -0.624 -10.719   5.092  0.00  0.00    +0.154 A 
ATOM     13  N   UNL     1      -0.915 -11.621   4.158  0.00  0.00    -0.211 NA
ENDROOT
BRANCH   1  14
ATOM     14  S   UNL     1      -0.418  -7.138   2.382  0.00  0.00    -0.077 S 
BRANCH  14  15
ATOM     15  C   UNL     1      -0.526  -6.390   0.733  0.00  0.00    +0.173 C 
BRANCH  15  17
ATOM     16  N   UNL     1      -0.299  -4.141  -0.272  0.00  0.00    -0.284 N 
ATOM     17  C   UNL     1      -0.270  -4.908   0.836  0.00  0.00    +0.228 C 
ATOM     18  O   UNL     1      -0.036  -4.407   1.915  0.00  0.00    -0.275 OA
ATOM     19  H   UNL     1      -0.421  -4.551  -1.143  0.00  0.00    +0.155 HD
BRANCH  16  24
ATOM     20  C   UNL     1       0.286   1.486   0.157  0.00  0.00    +0.044 C 
ATOM     21  C   UNL     1       0.130  -0.009   0.043  0.00  0.00    -0.050 A 
ATOM     22  C   UNL     1       1.121  -0.844   0.526  0.00  0.00    +0.008 A 
ATOM     23  C   UNL     1       0.982  -2.215   0.423  0.00  0.00    -0.029 A 
ATOM     24  C   UNL     1      -0.155  -2.753  -0.166  0.00  0.00    +0.039 A 
ATOM     25  C   UNL     1      -1.148  -1.911  -0.649  0.00  0.00    -0.029 A 
ATOM     26  C   UNL     1      -1.005  -0.542  -0.539  0.00  0.00    +0.008 A 
ATOM     27  C   UNL     1      -2.383  -2.491  -1.289  0.00  0.00    +0.045 C 
ATOM     28  C   UNL     1       2.062  -3.124   0.949  0.00  0.00    +0.045 C 
ENDBRANCH  16  24
ENDBRANCH  15  17
ENDBRANCH  14  15
ENDBRANCH   1  14
BRANCH  12  29
ATOM     29  C   UNL     1      -0.465 -11.009   6.562  0.00  0.00    +0.099 C 
BRANCH  29  30
ATOM     30  C   UNL     1      -1.821 -10.877   7.257  0.00  0.00    +0.130 C 
BRANCH  30  31
ATOM     31  N   UNL     1      -1.667 -11.160   8.687  0.00  0.00    -0.335 N 
ATOM     32  C   UNL     1      -1.867 -12.349   9.294  0.00  0.00    +0.174 A 
ATOM     33  N   UNL     1      -1.632 -12.211  10.571  0.00  0.00    -0.352 N 
ATOM     34  C   UNL     1      -1.277 -10.942  10.821  0.00  0.00    +0.104 A 
ATOM     35  C   UNL     1      -1.287 -10.269   9.654  0.00  0.00    +0.033 A 
ATOM     36  C   UNL     1      -0.949  -8.814   9.453  0.00  0.00    +0.065 C 
ATOM     37  H   UNL     1      -1.703 -12.915  11.234  0.00  0.00    +0.166 HD
ENDBRANCH  30  31
ENDBRANCH  29  30
ENDBRANCH  12  29
TORSDOF 7
