REMARK  Name = ZINC06797669
REMARK  3 active torsions:
REMARK  status: ('A' for Active; 'I' for Inactive)
REMARK    1  A    between atoms: C_6  and  N_7
REMARK    2  A    between atoms: C_12  and  C_13
REMARK    3  A    between atoms: C_12  and  N_46
REMARK                            x       y       z     vdW  Elec       q    Type
REMARK                         _______ _______ _______ _____ _____    ______ ____
ROOT
ATOM      1  N   UNL     1       2.344   0.109   0.986  0.00  0.00    -0.333 N 
ATOM      2  C   UNL     1       0.989  -0.438   1.141  0.00  0.00    +0.086 C 
ATOM      3  C   UNL     1       0.117   0.030  -0.027  0.00  0.00    -0.059 C 
ATOM      4  C   UNL     1       1.444   2.046  -0.210  0.00  0.00    -0.059 C 
ATOM      5  C   UNL     1       2.316   1.578   0.957  0.00  0.00    +0.086 C 
ATOM      6  N   UNL     1       0.079   1.507  -0.031  0.00  0.00    +0.384 N 
ATOM      7  H   UNL     1      -0.293   1.834   0.868  0.00  0.00    -0.081 HD
ENDROOT
BRANCH   1  13
ATOM      8  C   UNL     1       2.701  -1.216   2.972  0.00  0.00    +0.024 A 
ATOM      9  C   UNL     1       3.541  -1.679   3.966  0.00  0.00    +0.022 A 
ATOM     10  C   UNL     1       4.865  -1.277   3.998  0.00  0.00    +0.041 A 
ATOM     11  C   UNL     1       5.353  -0.416   3.031  0.00  0.00    +0.022 A 
ATOM     12  C   UNL     1       4.519   0.045   2.031  0.00  0.00    +0.024 A 
ATOM     13  C   UNL     1       3.190  -0.356   1.997  0.00  0.00    +0.030 A 
ATOM     14 CL   UNL     1       5.915  -1.855   5.254  0.00  0.00    -0.084 Cl
ENDBRANCH   1  13
BRANCH   6  15
ATOM     15  C   UNL     1      -0.800   1.987  -1.118  0.00  0.00    -0.042 C 
BRANCH  15  16
ATOM     16  C   UNL     1      -1.110   3.443  -0.884  0.00  0.00    -0.053 A 
ATOM     17  C   UNL     1      -0.515   4.392  -1.642  0.00  0.00    +0.047 A 
ATOM     18  S   UNL     1      -1.213   5.893  -0.970  0.00  0.00    -0.101 S 
ATOM     19  C   UNL     1      -2.241   5.144   0.266  0.00  0.00    -0.007 A 
ATOM     20  C   UNL     1      -2.015   3.811   0.112  0.00  0.00    -0.036 A 
ATOM     21  C   UNL     1      -2.720   2.802   1.013  0.00  0.00    +0.036 C 
ATOM     22  C   UNL     1      -3.241   3.527   2.255  0.00  0.00    +0.005 C 
ATOM     23  C   UNL     1      -4.083   4.738   1.840  0.00  0.00    +0.005 C 
ATOM     24  C   UNL     1      -3.151   5.806   1.248  0.00  0.00    +0.043 C 
ENDBRANCH  15  16
ENDBRANCH   6  15
TORSDOF 3
