REMARK  Name = ZINC19821051
REMARK  6 active torsions:
REMARK  status: ('A' for Active; 'I' for Inactive)
REMARK    1  A    between atoms: C_10  and  N_11
REMARK    2  A    between atoms: C_12  and  C_14
REMARK    3  A    between atoms: C_14  and  C_15
REMARK    4  A    between atoms: C_23  and  C_25
REMARK    5  A    between atoms: C_25  and  N_26
REMARK    6  A    between atoms: C_32  and  C_34
REMARK                            x       y       z     vdW  Elec       q    Type
REMARK                         _______ _______ _______ _____ _____    ______ ____
ROOT
ATOM      1  C   UNL     1      -0.878   1.915   1.345  0.00  0.00    +0.170 C 
ATOM      2  C   UNL     1      -0.080   1.691   2.599  0.00  0.00    +0.234 C 
ATOM      3  O   UNL     1       1.101   1.968   2.591  0.00  0.00    -0.274 OA
ATOM      4  N   UNL     1      -0.610   1.200   3.721  0.00  0.00    -0.312 N 
ATOM      5  C   UNL     1      -1.986   0.740   3.852  0.00  0.00    +0.123 C 
ATOM      6  C   UNL     1      -2.872   1.362   2.772  0.00  0.00    +0.127 C 
ATOM      7  N   UNL     1      -2.177   1.239   1.479  0.00  0.00    -0.289 N 
ATOM      8  C   UNL     1      -2.710   0.534   0.461  0.00  0.00    +0.200 C 
ATOM      9  O   UNL     1      -2.087   0.395  -0.571  0.00  0.00    -0.278 OA
ATOM     10  H   UNL     1       0.069   1.157   4.585  0.00  0.00    +0.149 HD
ENDROOT
BRANCH   1  11
ATOM     11  C   UNL     1      -0.122   1.339   0.146  0.00  0.00    +0.128 C 
BRANCH  11  13
ATOM     12  N   UNL     1       0.615  -0.886  -0.646  0.00  0.00    -0.285 N 
ATOM     13  C   UNL     1       0.067  -0.144   0.337  0.00  0.00    +0.219 C 
ATOM     14  O   UNL     1      -0.275  -0.670   1.375  0.00  0.00    -0.275 OA
ATOM     15  H   UNL     1       0.994  -0.399  -1.556  0.00  0.00    +0.155 HD
BRANCH  12  25
ATOM     16  C   UNL     1       0.294  -4.797  -3.821  0.00  0.00    +0.001 A 
ATOM     17  C   UNL     1       0.204  -3.416  -3.980  0.00  0.00    +0.001 A 
ATOM     18  C   UNL     1       0.334  -2.578  -2.914  0.00  0.00    +0.010 A 
ATOM     19  C   UNL     1       0.561  -3.110  -1.636  0.00  0.00    +0.003 A 
ATOM     20  C   UNL     1       0.652  -4.514  -1.472  0.00  0.00    -0.016 A 
ATOM     21  C   UNL     1       0.513  -5.348  -2.596  0.00  0.00    +0.008 A 
ATOM     22  C   UNL     1       0.881  -5.049  -0.193  0.00  0.00    +0.008 A 
ATOM     23  C   UNL     1       1.012  -4.217   0.877  0.00  0.00    +0.002 A 
ATOM     24  C   UNL     1       0.929  -2.836   0.729  0.00  0.00    +0.024 A 
ATOM     25  C   UNL     1       0.701  -2.273  -0.508  0.00  0.00    +0.041 A 
ENDBRANCH  12  25
ENDBRANCH  11  13
ENDBRANCH   1  11
BRANCH   8  26
ATOM     26  C   UNL     1      -4.078  -0.080   0.604  0.00  0.00    +0.019 C 
BRANCH  26  27
ATOM     27  N   UNL     1      -4.429  -0.789  -0.633  0.00  0.00    +0.387 N 
ATOM     28  C   UNL     1      -4.575   0.149  -1.754  0.00  0.00    -0.059 C 
ATOM     29  C   UNL     1      -4.760  -0.640  -3.055  0.00  0.00    +0.089 C 
ATOM     30  N   UNL     1      -5.880  -1.576  -2.878  0.00  0.00    -0.299 N 
ATOM     31  C   UNL     1      -5.872  -2.455  -1.699  0.00  0.00    +0.089 C 
ATOM     32  C   UNL     1      -5.643  -1.595  -0.452  0.00  0.00    -0.059 C 
ATOM     33  C   UNL     1      -6.887  -1.627  -3.773  0.00  0.00    +0.282 C 
ATOM     34  O   UNL     1      -7.859  -2.327  -3.556  0.00  0.00    -0.267 OA
ATOM     35  H   UNL     1      -3.605  -1.476  -0.877  0.00  0.00    -0.081 HD
BRANCH  33  36
ATOM     36  C   UNL     1      -6.811  -0.840  -5.008  0.00  0.00    +0.189 A 
ATOM     37  C   UNL     1      -7.806  -0.699  -5.932  0.00  0.00    +0.054 A 
ATOM     38  C   UNL     1      -7.303   0.135  -6.943  0.00  0.00    +0.042 A 
ATOM     39  C   UNL     1      -6.036   0.455  -6.600  0.00  0.00    +0.196 A 
ATOM     40  O   UNL     1      -5.743  -0.134  -5.434  0.00  0.00    -0.458 OA
ENDBRANCH  33  36
ENDBRANCH  26  27
ENDBRANCH   8  26
TORSDOF 6
