REMARK  Name = ZINC12629743
REMARK  4 active torsions:
REMARK  status: ('A' for Active; 'I' for Inactive)
REMARK    1  A    between atoms: C_1  and  O_2
REMARK    2  A    between atoms: O_2  and  C_3
REMARK    3  A    between atoms: C_6  and  N_25
REMARK    4  A    between atoms: C_10  and  C_19
REMARK                            x       y       z     vdW  Elec       q    Type
REMARK                         _______ _______ _______ _____ _____    ______ ____
ROOT
ATOM      1  C   UNL     1       0.040   0.863   2.944  0.00  0.00    +0.141 A 
ATOM      2  C   UNL     1       0.936  -0.151   3.222  0.00  0.00    +0.050 A 
ATOM      3  C   UNL     1       1.301  -0.417   4.529  0.00  0.00    +0.037 A 
ATOM      4  C   UNL     1       0.772   0.341   5.555  0.00  0.00    +0.132 A 
ATOM      5  C   UNL     1      -0.118   1.361   5.288  0.00  0.00    +0.014 A 
ATOM      6  C   UNL     1      -0.505   1.638   3.975  0.00  0.00    +0.076 A 
ATOM      7  N   UNL     1      -1.428   2.625   3.624  0.00  0.00    -0.334 N 
ATOM      8  C   UNL     1      -1.912   3.494   4.708  0.00  0.00    +0.106 C 
ATOM      9  C   UNL     1      -2.107   2.618   5.928  0.00  0.00    +0.029 C 
ATOM     10  C   UNL     1      -0.671   2.213   6.364  0.00  0.00    +0.051 C 
ATOM     11  C   UNL     1      -0.851   1.736   7.752  0.00  0.00    -0.023 C 
ATOM     12  C   UNL     1      -1.902   2.356   8.276  0.00  0.00    -0.030 C 
ATOM     13  C   UNL     1      -2.526   3.293   7.239  0.00  0.00    +0.033 C 
ATOM     14  H   UNL     1      -1.093   3.171   2.844  0.00  0.00    +0.147 HD
ENDROOT
BRANCH   8  15
ATOM     15  C   UNL     1      -0.893   4.565   5.002  0.00  0.00    -0.009 A 
ATOM     16  C   UNL     1       0.444   4.364   4.696  0.00  0.00    +0.008 A 
ATOM     17  C   UNL     1       1.345   5.378   4.980  0.00  0.00    +0.020 A 
ATOM     18  C   UNL     1       0.885   6.544   5.565  0.00  0.00    +0.111 A 
ATOM     19  N   UNL     1      -0.393   6.698   5.846  0.00  0.00    -0.263 NA
ATOM     20  C   UNL     1      -1.279   5.757   5.585  0.00  0.00    +0.116 A 
ENDBRANCH   8  15
BRANCH   4  21
ATOM     21  N   UNL     1       1.162   0.056   6.954  0.00  0.00    +0.057 N 
ATOM     22  O   UNL     1       1.573   0.954   7.667  0.00  0.00    -0.126 OA
ATOM     23  O   UNL     1       1.072  -1.077   7.393  0.00  0.00    -0.126 OA
ENDBRANCH   4  21
BRANCH   1  25
ATOM     24  C   UNL     1       0.283   0.295   0.648  0.00  0.00    +0.277 C 
ATOM     25  O   UNL     1      -0.312   1.116   1.655  0.00  0.00    -0.493 OA
ENDBRANCH   1  25
TORSDOF 3
