REMARK  Name = ZINC35228819
REMARK  6 active torsions:
REMARK  status: ('A' for Active; 'I' for Inactive)
REMARK    1  A    between atoms: C_12  and  C_34
REMARK    2  A    between atoms: C_15  and  C_17
REMARK    3  A    between atoms: C_17  and  N_18
REMARK    4  A    between atoms: N_18  and  C_19
REMARK    5  A    between atoms: C_22  and  C_24
REMARK    6  A    between atoms: C_27  and  N_31
REMARK                            x       y       z     vdW  Elec       q    Type
REMARK                         _______ _______ _______ _____ _____    ______ ____
ROOT
ATOM      1  C   UNL     1       2.463  -1.092  -3.917  0.00  0.00    +0.002 A 
ATOM      2  C   UNL     1       3.533  -1.365  -3.084  0.00  0.00    +0.002 A 
ATOM      3  C   UNL     1       3.673  -0.699  -1.882  0.00  0.00    +0.025 A 
ATOM      4  C   UNL     1       2.735   0.248  -1.502  0.00  0.00    +0.061 A 
ATOM      5  C   UNL     1       1.650   0.515  -2.344  0.00  0.00    +0.068 A 
ATOM      6  C   UNL     1       1.519  -0.150  -3.547  0.00  0.00    +0.028 A 
ATOM      7  N   UNL     1       0.707   1.461  -1.915  0.00  0.00    -0.316 N 
ATOM      8  C   UNL     1      -0.289   2.074  -2.599  0.00  0.00    +0.092 A 
ATOM      9  C   UNL     1      -0.927   2.913  -1.752  0.00  0.00    +0.020 A 
ATOM     10  C   UNL     1      -0.296   2.809  -0.493  0.00  0.00    +0.025 A 
ATOM     11  C   UNL     1       0.694   1.918  -0.615  0.00  0.00    +0.052 A 
ATOM     12  C   UNL     1       1.677   1.425   0.420  0.00  0.00    +0.194 C 
ATOM     13  N   UNL     1       2.871   0.941  -0.292  0.00  0.00    -0.252 N 
ATOM     14  C   UNL     1       4.097   1.163   0.222  0.00  0.00    +0.238 C 
ATOM     15  O   UNL     1       5.076   0.695  -0.320  0.00  0.00    -0.273 OA
ENDROOT
BRANCH  12  16
ATOM     16  C   UNL     1       1.062   0.301   1.213  0.00  0.00    +0.131 A 
ATOM     17  C   UNL     1       0.508   0.412   2.434  0.00  0.00    +0.047 A 
ATOM     18  C   UNL     1       0.060  -0.879   2.799  0.00  0.00    +0.041 A 
ATOM     19  C   UNL     1       0.368  -1.701   1.779  0.00  0.00    +0.195 A 
ATOM     20  O   UNL     1       0.969  -0.979   0.819  0.00  0.00    -0.466 OA
ENDBRANCH  12  16
BRANCH  14  21
ATOM     21  C   UNL     1       4.252   1.993   1.470  0.00  0.00    +0.204 C 
BRANCH  21  22
ATOM     22  N   UNL     1       5.676   2.208   1.741  0.00  0.00    -0.286 N 
ATOM     23  C   UNL     1       6.238   1.681   2.847  0.00  0.00    +0.249 C 
ATOM     24  O   UNL     1       7.402   1.916   3.108  0.00  0.00    -0.270 OA
BRANCH  23  25
ATOM     25  C   UNL     1       5.440   0.818   3.743  0.00  0.00    +0.055 A 
ATOM     26  C   UNL     1       4.439  -0.002   3.218  0.00  0.00    +0.017 A 
ATOM     27  C   UNL     1       3.698  -0.805   4.059  0.00  0.00    +0.033 A 
ATOM     28  C   UNL     1       3.943  -0.799   5.421  0.00  0.00    +0.128 A 
ATOM     29  C   UNL     1       4.932   0.011   5.949  0.00  0.00    +0.053 A 
ATOM     30  C   UNL     1       5.686   0.816   5.118  0.00  0.00    +0.055 A 
ATOM     31 CL   UNL     1       6.932   1.827   5.780  0.00  0.00    -0.083 Cl
BRANCH  28  32
ATOM     32  N   UNL     1       3.143  -1.664   6.317  0.00  0.00    +0.056 N 
ATOM     33  O   UNL     1       2.278  -2.373   5.859  0.00  0.00    -0.126 OA
ATOM     34  O   UNL     1       3.355  -1.661   7.508  0.00  0.00    -0.126 OA
ENDBRANCH  28  32
ENDBRANCH  23  25
BRANCH  22  35
ATOM     35  C   UNL     1       6.488   2.994   0.809  0.00  0.00    +0.077 C 
ATOM     36  C   UNL     1       8.009   2.864   0.915  0.00  0.00    +0.024 C 
ATOM     37  C   UNL     1       7.316   4.142   1.390  0.00  0.00    +0.024 C 
ENDBRANCH  22  35
ENDBRANCH  21  22
ENDBRANCH  14  21
TORSDOF 6
