REMARK  Name = ZINC08892177
REMARK  11 active torsions:
REMARK  status: ('A' for Active; 'I' for Inactive)
REMARK    1  A    between atoms: C_1  and  C_2
REMARK    2  A    between atoms: C_3  and  C_17
REMARK    3  A    between atoms: C_6  and  O_12
REMARK    4  A    between atoms: O_12  and  C_13
REMARK    5  A    between atoms: C_17  and  C_18
REMARK    6  A    between atoms: C_18  and  N_19
REMARK    7  A    between atoms: C_20  and  C_22
REMARK    8  A    between atoms: C_28  and  C_30
REMARK    9  A    between atoms: C_30  and  O_32
REMARK   10  A    between atoms: O_32  and  C_33
REMARK   11  A    between atoms: C_33  and  C_34
REMARK                            x       y       z     vdW  Elec       q    Type
REMARK                         _______ _______ _______ _____ _____    ______ ____
ROOT
ATOM      1  C   UNL     1       1.659   7.106  -1.417  0.00  0.00    +0.109 C 
ENDROOT
BRANCH   1   2
ATOM      2  N   UNL     1       0.776   8.274  -1.403  0.00  0.00    -0.315 N 
ATOM      3  C   UNL     1       0.359   8.818  -2.563  0.00  0.00    +0.217 C 
ATOM      4  O   UNL     1       0.715   8.340  -3.619  0.00  0.00    -0.275 OA
ATOM      5  H   UNL     1       0.491   8.656  -0.558  0.00  0.00    +0.149 HD
BRANCH   3   6
ATOM      6  C   UNL     1      -0.550  10.020  -2.548  0.00  0.00    +0.089 C 
ATOM      7  C   UNL     1       0.146  11.176  -1.827  0.00  0.00    +0.013 C 
ATOM      8  C   UNL     1      -0.776  12.397  -1.811  0.00  0.00    +0.001 C 
ATOM      9  C   UNL     1      -1.097  12.812  -3.249  0.00  0.00    +0.001 C 
ATOM     10  C   UNL     1      -1.793  11.656  -3.970  0.00  0.00    +0.015 C 
ATOM     11  C   UNL     1      -0.870  10.435  -3.985  0.00  0.00    +0.110 C 
BRANCH  11  12
ATOM     12  C   UNL     1      -1.556   9.296  -4.696  0.00  0.00    +0.311 C 
ATOM     13  O   UNL     1      -1.766   8.259  -4.112  0.00  0.00    -0.251 OA
BRANCH  12  14
ATOM     14  O   UNL     1      -1.932   9.434  -5.977  0.00  0.00    -0.455 OA
BRANCH  14  15
ATOM     15  C   UNL     1      -2.587   8.296  -6.597  0.00  0.00    +0.345 C 
BRANCH  15  16
ATOM     16  C   UNL     1      -2.940   8.639  -8.046  0.00  0.00    +0.424 C 
ATOM     17  F   UNL     1      -1.771   8.946  -8.751  0.00  0.00    -0.167 F 
ATOM     18  F   UNL     1      -3.571   7.543  -8.644  0.00  0.00    -0.167 F 
ATOM     19  F   UNL     1      -3.801   9.741  -8.068  0.00  0.00    -0.167 F 
ENDBRANCH  15  16
ENDBRANCH  14  15
ENDBRANCH  12  14
ENDBRANCH  11  12
ENDBRANCH   3   6
ENDBRANCH   1   2
BRANCH   1  20
ATOM     20  C   UNL     1       1.980   6.691   0.020  0.00  0.00    +0.056 C 
BRANCH  20  23
ATOM     21  C   UNL     1       5.083   6.745  -0.007  0.00  0.00    +0.063 C 
ATOM     22  C   UNL     1       4.231   5.503  -0.007  0.00  0.00    +0.017 A 
ATOM     23  C   UNL     1       2.889   5.489   0.005  0.00  0.00    -0.018 A 
ATOM     24  C   UNL     1       2.475   4.083   0.000  0.00  0.00    +0.007 A 
ATOM     25  C   UNL     1       1.236   3.438   0.003  0.00  0.00    +0.056 A 
ATOM     26  C   UNL     1       1.186   2.059   0.002  0.00  0.00    +0.129 A 
ATOM     27  C   UNL     1       2.362   1.313  -0.013  0.00  0.00    +0.048 A 
ATOM     28  C   UNL     1       3.589   1.939  -0.021  0.00  0.00    +0.030 A 
ATOM     29  C   UNL     1       3.661   3.328  -0.015  0.00  0.00    +0.047 A 
ATOM     30  N   UNL     1       4.711   4.221  -0.019  0.00  0.00    -0.358 N 
ATOM     31  H   UNL     1       5.650   3.978  -0.028  0.00  0.00    +0.166 HD
BRANCH  26  32
ATOM     32  O   UNL     1      -0.017   1.425   0.010  0.00  0.00    -0.420 OA
BRANCH  32  33
ATOM     33  C   UNL     1       0.002  -0.004   0.002  0.00  0.00    +0.489 C 
ATOM     34  F   UNL     1       0.657  -0.455  -1.149  0.00  0.00    -0.149 F 
ATOM     35  F   UNL     1       0.679  -0.468   1.135  0.00  0.00    -0.149 F 
ATOM     36 CL   UNL     1      -1.689  -0.628   0.015  0.00  0.00    +0.000 Cl
ENDBRANCH  32  33
ENDBRANCH  26  32
ENDBRANCH  20  23
ENDBRANCH   1  20
TORSDOF 10
