REMARK  Name = ZINC39949344
REMARK  3 active torsions:
REMARK  status: ('A' for Active; 'I' for Inactive)
REMARK    1  A    between atoms: C_1  and  S_2
REMARK    2  A    between atoms: S_2  and  C_5
REMARK    3  A    between atoms: C_13  and  C_27
REMARK                            x       y       z     vdW  Elec       q    Type
REMARK                         _______ _______ _______ _____ _____    ______ ____
ROOT
ATOM      1  C   UNL     1       0.845  -0.437  -1.483  0.00  0.00    +0.271 A 
ATOM      2  N   UNL     1       0.145  -0.600  -2.591  0.00  0.00    -0.218 NA
ATOM      3  C   UNL     1       0.722  -0.916  -3.737  0.00  0.00    +0.143 A 
ATOM      4  C   UNL     1       2.105  -1.084  -3.760  0.00  0.00    +0.098 A 
ATOM      5  C   UNL     1       2.807  -0.916  -2.555  0.00  0.00    +0.137 A 
ATOM      6  N   UNL     1       2.156  -0.584  -1.453  0.00  0.00    -0.207 NA
ATOM      7  C   UNL     1       4.271  -1.142  -2.592  0.00  0.00    +0.208 C 
ATOM      8  O   UNL     1       5.049  -0.521  -1.899  0.00  0.00    -0.289 OA
ATOM      9  C   UNL     1       4.720  -2.218  -3.572  0.00  0.00    +0.230 C 
ATOM     10  C   UNL     1       4.050  -1.925  -4.902  0.00  0.00    +0.142 A 
ATOM     11  N   UNL     1       2.789  -1.399  -4.930  0.00  0.00    -0.259 N 
ATOM     12  C   UNL     1       2.171  -1.163  -6.114  0.00  0.00    +0.266 A 
ATOM     13  O   UNL     1       1.039  -0.717  -6.152  0.00  0.00    -0.267 OA
ATOM     14  C   UNL     1       2.908  -1.461  -7.348  0.00  0.00    +0.067 A 
ATOM     15  C   UNL     1       2.359  -1.239  -8.610  0.00  0.00    +0.035 A 
ATOM     16  C   UNL     1       3.099  -1.537  -9.734  0.00  0.00    +0.042 A 
ATOM     17  C   UNL     1       4.384  -2.055  -9.616  0.00  0.00    +0.022 A 
ATOM     18  C   UNL     1       4.943  -2.281  -8.379  0.00  0.00    +0.030 A 
ATOM     19  C   UNL     1       4.213  -1.988  -7.225  0.00  0.00    +0.078 A 
ATOM     20  N   UNL     1       4.719  -2.196  -5.987  0.00  0.00    -0.231 NA
ATOM     21 CL   UNL     1       2.422  -1.264 -11.309  0.00  0.00    -0.084 Cl
ENDROOT
BRANCH   1  23
ATOM     22  C   UNL     1      -0.022   1.810   0.012  0.00  0.00    +0.204 C 
ATOM     23  S   UNL     1       0.002  -0.004   0.002  0.00  0.00    +0.029 S 
ATOM     24  O   UNL     1       0.835  -0.488   1.046  0.00  0.00    -0.167 OA
ATOM     25  O   UNL     1      -1.315  -0.510  -0.168  0.00  0.00    -0.167 OA
ENDBRANCH   1  23
BRANCH   9  26
ATOM     26  C   UNL     1       4.306  -3.543  -3.083  0.00  0.00    +0.082 C 
ATOM     27  N   UNL     1       3.987  -4.566  -2.705  0.00  0.00    -0.195 NA
ENDBRANCH   9  26
TORSDOF 2
