REMARK  Name = ZINC13110661
REMARK  5 active torsions:
REMARK  status: ('A' for Active; 'I' for Inactive)
REMARK    1  A    between atoms: C_3  and  C_6
REMARK    2  A    between atoms: C_16  and  C_18
REMARK    3  A    between atoms: C_23  and  C_25
REMARK    4  A    between atoms: C_25  and  S_26
REMARK    5  A    between atoms: S_26  and  C_27
REMARK                            x       y       z     vdW  Elec       q    Type
REMARK                         _______ _______ _______ _____ _____    ______ ____
ROOT
ATOM      1  C   UNL     1       3.559   0.617  -0.029  0.00  0.00    +0.051 C 
ATOM      2  C   UNL     1       4.208  -0.572  -0.042  0.00  0.00    -0.021 C 
ATOM      3  C   UNL     1       3.416  -1.845  -0.046  0.00  0.00    +0.037 C 
ATOM      4  C   UNL     1       4.253  -3.099   0.099  0.00  0.00    +0.005 C 
ATOM      5  C   UNL     1       5.636  -2.984  -0.540  0.00  0.00    +0.012 C 
ATOM      6  C   UNL     1       6.406  -1.880   0.187  0.00  0.00    +0.069 C 
ATOM      7  C   UNL     1       5.619  -0.594  -0.056  0.00  0.00    +0.068 C 
ATOM      8  N   UNL     1       6.462   0.357  -0.275  0.00  0.00    -0.181 NA
ATOM      9  N   UNL     1       7.777  -0.091  -0.444  0.00  0.00    -0.181 N 
ATOM     10  C   UNL     1       7.754  -1.580  -0.490  0.00  0.00    +0.176 C 
ATOM     11  C   UNL     1       8.876   0.685  -0.531  0.00  0.00    +0.246 C 
ATOM     12  O   UNL     1       9.968   0.177  -0.677  0.00  0.00    -0.273 OA
ENDROOT
BRANCH   1  15
ATOM     13  C   UNL     1      -0.016   1.345   0.009  0.00  0.00    +0.042 A 
ATOM     14  C   UNL     1       1.321   1.778  -0.001  0.00  0.00    +0.049 A 
ATOM     15  C   UNL     1       2.098   0.652  -0.015  0.00  0.00    +0.128 A 
ATOM     16  O   UNL     1       1.279  -0.419  -0.012  0.00  0.00    -0.464 OA
ATOM     17  C   UNL     1       0.002  -0.004   0.002  0.00  0.00    +0.195 A 
ENDBRANCH   1  15
BRANCH  10  18
ATOM     18  C   UNL     1       8.895  -2.183   0.287  0.00  0.00    +0.128 A 
ATOM     19  C   UNL     1       9.530  -3.331  -0.011  0.00  0.00    +0.046 A 
ATOM     20  C   UNL     1      10.527  -3.516   0.974  0.00  0.00    +0.041 A 
ATOM     21  C   UNL     1      10.441  -2.471   1.816  0.00  0.00    +0.195 A 
ATOM     22  O   UNL     1       9.455  -1.663   1.392  0.00  0.00    -0.466 OA
ENDBRANCH  10  18
BRANCH  11  23
ATOM     23  C   UNL     1       8.748   2.184  -0.445  0.00  0.00    +0.175 C 
BRANCH  23  24
ATOM     24  S   UNL     1      10.391   2.940  -0.594  0.00  0.00    -0.077 S 
BRANCH  24  25
ATOM     25  C   UNL     1      10.076   4.670  -0.476  0.00  0.00    +0.184 A 
ATOM     26  N   UNL     1       8.897   5.234  -0.316  0.00  0.00    -0.209 NA
ATOM     27  C   UNL     1       9.037   6.560  -0.269  0.00  0.00    +0.245 A 
ATOM     28  N   UNL     1      10.300   6.862  -0.398  0.00  0.00    -0.160 NA
ATOM     29  H   UNL     1      11.959   5.544  -0.636  0.00  0.00    +0.191 HD
ATOM     30  N   UNL     1      11.001   5.652  -0.528  0.00  0.00    -0.254 N 
ENDBRANCH  24  25
ENDBRANCH  23  24
ENDBRANCH  11  23
TORSDOF 5
