REMARK  Name = ZINC40014405
REMARK  16 active torsions:
REMARK  status: ('A' for Active; 'I' for Inactive)
REMARK    1  A    between atoms: C_1  and  C_2
REMARK    2  A    between atoms: C_2  and  C_3
REMARK    3  A    between atoms: C_3  and  C_4
REMARK    4  A    between atoms: C_4  and  N_5
REMARK    5  A    between atoms: N_5  and  C_6
REMARK    6  A    between atoms: N_5  and  C_10
REMARK    7  A    between atoms: C_6  and  C_7
REMARK    8  A    between atoms: C_7  and  C_8
REMARK    9  A    between atoms: C_8  and  C_9
REMARK   10  A    between atoms: C_10  and  C_11
REMARK   11  A    between atoms: C_11  and  C_12
REMARK   12  A    between atoms: C_12  and  N_13
REMARK   13  A    between atoms: C_14  and  C_30
REMARK   14  A    between atoms: C_34  and  O_36
REMARK   15  A    between atoms: O_36  and  C_37
REMARK   16  A    between atoms: C_37  and  C_38
REMARK                            x       y       z     vdW  Elec       q    Type
REMARK                         _______ _______ _______ _____ _____    ______ ____
ROOT
ATOM      1  N   UNL     1      -5.729  -6.638   0.103  0.00  0.00    -0.284 N 
ATOM      2  C   UNL     1      -6.686  -6.786   1.212  0.00  0.00    +0.145 C 
ATOM      3  C   UNL     1      -7.942  -7.311   0.598  0.00  0.00    +0.072 A 
ATOM      4  C   UNL     1      -9.235  -7.665   1.194  0.00  0.00    +0.199 A 
ATOM      5  O   UNL     1      -9.531  -7.404   2.347  0.00  0.00    -0.287 OA
ATOM      6  C   UNL     1     -10.147  -8.372   0.260  0.00  0.00    +0.067 A 
ATOM      7  C   UNL     1     -11.327  -8.949   0.728  0.00  0.00    +0.053 A 
ATOM      8  C   UNL     1     -12.160  -9.606  -0.153  0.00  0.00    +0.124 A 
ATOM      9  C   UNL     1     -11.821  -9.691  -1.499  0.00  0.00    +0.042 A 
ATOM     10  C   UNL     1     -10.660  -9.123  -1.970  0.00  0.00    +0.050 A 
ATOM     11  C   UNL     1      -9.802  -8.451  -1.099  0.00  0.00    +0.140 A 
ATOM     12  O   UNL     1      -8.672  -7.894  -1.592  0.00  0.00    -0.450 OA
ATOM     13  C   UNL     1      -7.726  -7.446  -0.744  0.00  0.00    +0.199 A 
ATOM     14  C   UNL     1      -6.345  -7.020  -1.034  0.00  0.00    +0.283 C 
ATOM     15  O   UNL     1      -5.835  -7.016  -2.137  0.00  0.00    -0.267 OA
ATOM     16  F   UNL     1     -13.306 -10.168   0.291  0.00  0.00    -0.205 F 
ENDROOT
BRANCH   2  17
ATOM     17  C   UNL     1      -6.155  -7.763   2.229  0.00  0.00    -0.019 A 
ATOM     18  C   UNL     1      -5.497  -8.906   1.812  0.00  0.00    +0.006 A 
ATOM     19  C   UNL     1      -5.009  -9.804   2.743  0.00  0.00    +0.004 A 
ATOM     20  C   UNL     1      -5.178  -9.561   4.093  0.00  0.00    +0.045 A 
ATOM     21  C   UNL     1      -5.838  -8.416   4.514  0.00  0.00    +0.121 A 
ATOM     22  C   UNL     1      -6.322  -7.513   3.578  0.00  0.00    +0.051 A 
BRANCH  21  23
ATOM     23  O   UNL     1      -6.005  -8.176   5.841  0.00  0.00    -0.488 OA
BRANCH  23  24
ATOM     24  C   UNL     1      -5.477  -9.145   6.748  0.00  0.00    +0.256 C 
BRANCH  24  25
ATOM     25  C   UNL     1      -5.755  -8.713   8.164  0.00  0.00    +0.006 C 
ATOM     26  C   UNL     1      -6.207  -9.579   9.037  0.00  0.00    +0.007 C 
ENDBRANCH  24  25
ENDBRANCH  23  24
ENDBRANCH  21  23
ENDBRANCH   2  17
BRANCH   1  27
ATOM     27  C   UNL     1      -4.351  -6.154   0.214  0.00  0.00    +0.107 C 
BRANCH  27  28
ATOM     28  C   UNL     1      -4.329  -4.633   0.047  0.00  0.00    +0.000 C 
BRANCH  28  29
ATOM     29  C   UNL     1      -2.889  -4.128   0.163  0.00  0.00    -0.077 C 
BRANCH  29  30
ATOM     30  N   UNL     1      -2.855  -2.684  -0.101  0.00  0.00    +0.380 N 
ATOM     31  H   UNL     1      -3.280  -2.495  -0.996  0.00  0.00    -0.082 HD
BRANCH  30  32
ATOM     32  C   UNL     1      -3.595  -1.975   0.952  0.00  0.00    -0.079 C 
BRANCH  32  33
ATOM     33  C   UNL     1      -3.665  -0.485   0.611  0.00  0.00    -0.019 C 
BRANCH  33  35
ATOM     34  C   UNL     1      -4.506   1.742   1.367  0.00  0.00    +0.004 C 
ATOM     35  C   UNL     1      -4.436   0.253   1.708  0.00  0.00    -0.005 C 
ENDBRANCH  33  35
ENDBRANCH  32  33
ENDBRANCH  30  32
BRANCH  30  36
ATOM     36  C   UNL     1      -1.460  -2.222  -0.115  0.00  0.00    -0.079 C 
BRANCH  36  37
ATOM     37  C   UNL     1      -0.731  -2.836  -1.312  0.00  0.00    -0.019 C 
BRANCH  37  38
ATOM     38  C   UNL     1       0.733  -2.393  -1.299  0.00  0.00    -0.005 C 
ATOM     39  C   UNL     1       1.462  -3.007  -2.496  0.00  0.00    +0.004 C 
ENDBRANCH  37  38
ENDBRANCH  36  37
ENDBRANCH  30  36
ENDBRANCH  29  30
ENDBRANCH  28  29
ENDBRANCH  27  28
ENDBRANCH   1  27
TORSDOF 14
