REMARK  Name = ZINC66858268
REMARK  6 active torsions:
REMARK  status: ('A' for Active; 'I' for Inactive)
REMARK    1  A    between atoms: C_1  and  N_2
REMARK    2  A    between atoms: C_8  and  C_10
REMARK    3  A    between atoms: C_10  and  C_11
REMARK    4  A    between atoms: C_17  and  C_19
REMARK    5  A    between atoms: C_19  and  C_20
REMARK    6  A    between atoms: C_20  and  C_21
REMARK                            x       y       z     vdW  Elec       q    Type
REMARK                         _______ _______ _______ _____ _____    ______ ____
ROOT
ATOM      1  C   UNL     1      -0.809  -5.225   3.592  0.00  0.00    +0.001 C 
ATOM      2  C   UNL     1      -2.024  -4.632   4.310  0.00  0.00    +0.023 C 
ATOM      3  C   UNL     1      -2.781  -5.750   5.034  0.00  0.00    +0.108 C 
ATOM      4  N   UNL     1      -1.845  -6.460   5.916  0.00  0.00    -0.301 N 
ATOM      5  C   UNL     1      -0.600  -6.992   5.345  0.00  0.00    +0.108 C 
ATOM      6  C   UNL     1       0.132  -5.860   4.618  0.00  0.00    +0.023 C 
ATOM      7  C   UNL     1      -2.123  -6.620   7.225  0.00  0.00    +0.216 C 
ATOM      8  O   UNL     1      -3.153  -6.176   7.685  0.00  0.00    -0.276 OA
ENDROOT
BRANCH   1   9
ATOM      9  C   UNL     1      -0.070  -4.116   2.840  0.00  0.00    +0.099 C 
BRANCH   9  17
ATOM     10  C   UNL     1      -0.018   1.465   0.010  0.00  0.00    -0.096 C 
ATOM     11  N   UNL     1       0.002  -0.004   0.002  0.00  0.00    +0.380 N 
ATOM     12  C   UNL     1      -1.376  -0.510   0.002  0.00  0.00    -0.060 C 
ATOM     13  C   UNL     1      -1.358  -2.038  -0.122  0.00  0.00    +0.089 C 
ATOM     14  N   UNL     1      -0.511  -2.583   0.950  0.00  0.00    -0.305 N 
ATOM     15  C   UNL     1       0.834  -2.015   1.127  0.00  0.00    +0.089 C 
ATOM     16  C   UNL     1       0.713  -0.489   1.192  0.00  0.00    -0.060 C 
ATOM     17  C   UNL     1      -0.956  -3.574   1.748  0.00  0.00    +0.216 C 
ATOM     18  O   UNL     1      -2.068  -4.029   1.587  0.00  0.00    -0.276 OA
ATOM     19  H   UNL     1       0.477  -0.328  -0.827  0.00  0.00    -0.082 HD
ENDBRANCH   9  17
ENDBRANCH   1   9
BRANCH   7  20
ATOM     20  C   UNL     1      -1.153  -7.351   8.118  0.00  0.00    +0.105 C 
BRANCH  20  21
ATOM     21  C   UNL     1      -1.704  -7.392   9.544  0.00  0.00    +0.105 C 
BRANCH  21  22
ATOM     22  C   UNL     1      -0.734  -8.123  10.437  0.00  0.00    +0.216 C 
ATOM     23  O   UNL     1       0.296  -8.567   9.977  0.00  0.00    -0.276 OA
ATOM     24  N   UNL     1      -1.012  -8.282  11.746  0.00  0.00    -0.297 N 
ATOM     25  C   UNL     1      -2.259  -7.758  12.325  0.00  0.00    +0.136 C 
ATOM     26  C   UNL     1      -2.936  -8.883  13.116  0.00  0.00    +0.179 C 
ATOM     27  O   UNL     1      -1.995  -9.444  14.035  0.00  0.00    -0.377 OA
ATOM     28  C   UNL     1      -0.861 -10.053  13.414  0.00  0.00    +0.179 C 
ATOM     29  C   UNL     1      -0.081  -8.992  12.637  0.00  0.00    +0.136 C 
ENDBRANCH  21  22
ENDBRANCH  20  21
ENDBRANCH   7  20
TORSDOF 5
