REMARK  Name = ZINC09289833
REMARK  4 active torsions:
REMARK  status: ('A' for Active; 'I' for Inactive)
REMARK    1  A    between atoms: C_1  and  C_2
REMARK    2  A    between atoms: C_2  and  C_29
REMARK    3  A    between atoms: C_6  and  N_21
REMARK    4  A    between atoms: C_12  and  N_16
REMARK                            x       y       z     vdW  Elec       q    Type
REMARK                         _______ _______ _______ _____ _____    ______ ____
ROOT
ATOM      1  C   UNL     1      -6.647  -5.168  -1.317  0.00  0.00    +0.041 C 
ATOM      2  C   UNL     1      -6.597  -4.853   0.180  0.00  0.00    +0.068 C 
ATOM      3  C   UNL     1      -5.437  -3.896   0.466  0.00  0.00    +0.070 C 
ATOM      4  C   UNL     1      -4.129  -4.623   0.307  0.00  0.00    -0.024 A 
ATOM      5  C   UNL     1      -4.056  -5.981   0.292  0.00  0.00    +0.020 A 
ATOM      6  C   UNL     1      -2.816  -6.611   0.150  0.00  0.00    +0.105 A 
ATOM      7  C   UNL     1      -1.745  -4.579   0.034  0.00  0.00    +0.089 A 
ATOM      8  C   UNL     1      -2.944  -3.858   0.174  0.00  0.00    +0.037 A 
ATOM      9  C   UNL     1      -2.818  -2.390   0.163  0.00  0.00    +0.115 A 
ATOM     10  C   UNL     1      -1.516  -1.888   0.014  0.00  0.00    +0.084 A 
ATOM     11  S   UNL     1      -0.492  -3.327  -0.107  0.00  0.00    -0.065 S 
ATOM     12  C   UNL     1      -1.292  -0.519  -0.010  0.00  0.00    +0.161 A 
ATOM     13  N   UNL     1      -2.348   0.285   0.120  0.00  0.00    -0.113 NA
ATOM     14  N   UNL     1      -3.526  -0.208   0.250  0.00  0.00    -0.041 NA
ATOM     15  N   UNL     1      -3.791  -1.460   0.279  0.00  0.00    -0.128 NA
ATOM     16  C   UNL     1      -5.290  -6.837   0.421  0.00  0.00    +0.199 C 
ATOM     17  O   UNL     1      -6.380  -6.061   0.920  0.00  0.00    -0.369 OA
ATOM     18  C   UNL     1      -7.915  -4.211   0.617  0.00  0.00    +0.041 C 
ATOM     19  N   UNL     1      -1.643  -5.930   0.020  0.00  0.00    -0.337 N 
ATOM     20  H   UNL     1      -0.740  -6.409  -0.081  0.00  0.00    +0.168 HD
ENDROOT
BRANCH  12  21
ATOM     21  N   UNL     1      -0.013  -0.003  -0.158  0.00  0.00    -0.316 N 
ATOM     22  C   UNL     1      -0.033   1.466  -0.152  0.00  0.00    +0.087 C 
ATOM     23  C   UNL     1       1.401   1.994  -0.237  0.00  0.00    -0.063 C 
ATOM     24  C   UNL     1       2.057   0.013  -1.465  0.00  0.00    -0.063 C 
ATOM     25  C   UNL     1       0.623  -0.514  -1.380  0.00  0.00    +0.087 C 
ATOM     26  N   UNL     1       2.041   1.489  -1.467  0.00  0.00    +0.381 N 
ATOM     27  H   UNL     1       3.005   1.838  -1.516  0.00  0.00    -0.086 HD
ATOM     28  H   UNL     1       1.514   1.821  -2.284  0.00  0.00    -0.086 HD
ENDBRANCH  12  21
BRANCH   6  29
ATOM     29  N   UNL     1      -2.744  -7.997   0.138  0.00  0.00    -0.312 N 
ATOM     30  C   UNL     1      -1.933  -8.493   1.259  0.00  0.00    +0.134 C 
ATOM     31  C   UNL     1      -1.930 -10.024   1.242  0.00  0.00    +0.178 C 
ATOM     32  O   UNL     1      -1.442 -10.481  -0.022  0.00  0.00    -0.377 OA
ATOM     33  C   UNL     1      -2.209 -10.017  -1.137  0.00  0.00    +0.178 C 
ATOM     34  C   UNL     1      -2.215  -8.486  -1.144  0.00  0.00    +0.134 C 
ENDBRANCH   6  29
TORSDOF 2
