REMARK  Name = ZINC02860422
REMARK  12 active torsions:
REMARK  status: ('A' for Active; 'I' for Inactive)
REMARK    1  A    between atoms: C_1  and  C_2
REMARK    2  A    between atoms: C_2  and  O_3
REMARK    3  A    between atoms: O_3  and  C_4
REMARK    4  A    between atoms: C_4  and  C_6
REMARK    5  A    between atoms: C_6  and  O_7
REMARK    6  A    between atoms: O_7  and  C_8
REMARK    7  A    between atoms: C_11  and  C_16
REMARK    8  A    between atoms: C_13  and  O_14
REMARK    9  A    between atoms: O_14  and  C_15
REMARK   10  A    between atoms: C_18  and  C_30
REMARK   11  A    between atoms: C_19  and  C_24
REMARK   12  A    between atoms: C_30  and  C_32
REMARK                            x       y       z     vdW  Elec       q    Type
REMARK                         _______ _______ _______ _____ _____    ______ ____
ROOT
ATOM      1  C   UNL     1      -4.516  -0.679  -0.459  0.00  0.00    +0.142 C 
ATOM      2  C   UNL     1      -5.390   0.075  -1.441  0.00  0.00    +0.041 C 
ATOM      3  C   UNL     1      -5.171  -0.144  -2.787  0.00  0.00    +0.051 C 
ATOM      4  N   UNL     1      -4.195  -1.016  -3.202  0.00  0.00    -0.268 N 
ATOM      5  C   UNL     1      -3.407  -1.698  -2.362  0.00  0.00    +0.305 C 
ATOM      6  O   UNL     1      -2.570  -2.447  -2.826  0.00  0.00    -0.252 OA
ATOM      7  N   UNL     1      -3.504  -1.586  -1.024  0.00  0.00    -0.288 N 
ATOM      8  H   UNL     1      -4.071  -1.145  -4.155  0.00  0.00    +0.156 HD
ATOM      9  H   UNL     1      -2.917  -2.094  -0.443  0.00  0.00    +0.151 HD
ENDROOT
BRANCH   1  13
ATOM     10  C   UNL     1      -2.501   2.194   1.986  0.00  0.00    +0.164 A 
ATOM     11  C   UNL     1      -3.754   1.729   2.350  0.00  0.00    +0.069 A 
ATOM     12  C   UNL     1      -4.403   0.799   1.558  0.00  0.00    +0.050 A 
ATOM     13  C   UNL     1      -3.804   0.333   0.401  0.00  0.00    -0.001 A 
ATOM     14  C   UNL     1      -2.557   0.798   0.030  0.00  0.00    +0.056 A 
ATOM     15  C   UNL     1      -1.899   1.725   0.822  0.00  0.00    +0.162 A 
ATOM     16 CL   UNL     1      -5.973   0.217   2.016  0.00  0.00    -0.083 Cl
BRANCH  15  17
ATOM     17  O   UNL     1      -0.669   2.179   0.461  0.00  0.00    -0.491 OA
ATOM     18  C   UNL     1      -0.112   1.653  -0.746  0.00  0.00    +0.277 C 
ENDBRANCH  15  17
BRANCH  10  19
ATOM     19  O   UNL     1      -1.860   3.108   2.763  0.00  0.00    -0.477 OA
BRANCH  19  20
ATOM     20  C   UNL     1      -2.538   3.545   3.943  0.00  0.00    +0.349 C 
BRANCH  20  21
ATOM     21  C   UNL     1      -1.682   4.548   4.672  0.00  0.00    +0.345 C 
ATOM     22  O   UNL     1      -0.602   4.857   4.227  0.00  0.00    -0.247 OA
BRANCH  21  23
ATOM     23  O   UNL     1      -2.120   5.099   5.815  0.00  0.00    -0.463 OA
BRANCH  23  25
ATOM     24  C   UNL     1      -1.906   6.573   7.742  0.00  0.00    +0.048 C 
ATOM     25  C   UNL     1      -1.243   6.057   6.463  0.00  0.00    +0.229 C 
ENDBRANCH  23  25
ENDBRANCH  21  23
ENDBRANCH  20  21
ENDBRANCH  19  20
ENDBRANCH  10  19
ENDBRANCH   1  13
BRANCH   3  26
ATOM     26  C   UNL     1      -5.994   0.564  -3.787  0.00  0.00    -0.003 A 
ATOM     27  C   UNL     1      -5.383   1.225  -4.856  0.00  0.00    +0.010 A 
ATOM     28  C   UNL     1      -6.159   1.879  -5.791  0.00  0.00    +0.001 A 
ATOM     29  C   UNL     1      -7.537   1.893  -5.664  0.00  0.00    +0.000 A 
ATOM     30  C   UNL     1      -8.148   1.245  -4.605  0.00  0.00    +0.001 A 
ATOM     31  C   UNL     1      -7.385   0.581  -3.666  0.00  0.00    +0.010 A 
ENDBRANCH   3  26
BRANCH   2  32
ATOM     32  C   UNL     1      -6.380   0.960  -1.002  0.00  0.00    +0.160 C 
ATOM     33  O   UNL     1      -7.423   0.530  -0.550  0.00  0.00    -0.293 OA
ATOM     34  C   UNL     1      -6.153   2.447  -1.088  0.00  0.00    +0.091 C 
ENDBRANCH   2  32
TORSDOF 9
