REMARK  Name = ZINC63744102
REMARK  7 active torsions:
REMARK  status: ('A' for Active; 'I' for Inactive)
REMARK    1  A    between atoms: C_4  and  S_7
REMARK    2  A    between atoms: S_7  and  N_10
REMARK    3  A    between atoms: N_13  and  C_16
REMARK    4  A    between atoms: C_16  and  C_17
REMARK    5  A    between atoms: C_17  and  C_19
REMARK    6  A    between atoms: C_19  and  C_21
REMARK    7  A    between atoms: C_19  and  C_23
REMARK                            x       y       z     vdW  Elec       q    Type
REMARK                         _______ _______ _______ _____ _____    ______ ____
ROOT
ATOM      1  C   UNL     1       7.001  -2.533   4.471  0.00  0.00    +0.160 C 
ENDROOT
BRANCH   1   5
ATOM      2  N   UNL     1       4.378  -1.079   1.536  0.00  0.00    -0.174 NA
ATOM      3  C   UNL     1       5.191  -0.087   2.255  0.00  0.00    +0.125 C 
ATOM      4  C   UNL     1       6.386  -0.805   2.889  0.00  0.00    +0.102 C 
ATOM      5  N   UNL     1       5.902  -1.924   3.709  0.00  0.00    -0.293 NA
ATOM      6  C   UNL     1       5.212  -2.927   2.888  0.00  0.00    +0.102 C 
ATOM      7  C   UNL     1       3.964  -2.293   2.255  0.00  0.00    +0.125 C 
BRANCH   2   8
ATOM      8  S   UNL     1       3.934  -0.832  -0.041  0.00  0.00    +0.061 S 
ATOM      9  O   UNL     1       3.674  -2.114  -0.595  0.00  0.00    -0.153 OA
ATOM     10  O   UNL     1       4.890   0.060  -0.597  0.00  0.00    -0.153 OA
BRANCH   8  14
ATOM     11  C   UNL     1      -0.017   1.378   0.010  0.00  0.00    +0.000 A 
ATOM     12  C   UNL     1       1.171   2.086   0.002  0.00  0.00    +0.002 A 
ATOM     13  C   UNL     1       2.377   1.411  -0.013  0.00  0.00    +0.028 A 
ATOM     14  C   UNL     1       2.396   0.029  -0.020  0.00  0.00    +0.105 A 
ATOM     15  C   UNL     1       1.208  -0.679  -0.012  0.00  0.00    +0.028 A 
ATOM     16  C   UNL     1       0.002  -0.004   0.002  0.00  0.00    +0.002 A 
ENDBRANCH   8  14
ENDBRANCH   2   8
ENDBRANCH   1   5
BRANCH   1  17
ATOM     17  C   UNL     1       6.438  -3.504   5.476  0.00  0.00    +0.168 C 
ATOM     18  O   UNL     1       5.245  -3.672   5.550  0.00  0.00    -0.295 OA
BRANCH  17  19
ATOM     19  C   UNL     1       7.364  -4.266   6.389  0.00  0.00    +0.201 C 
BRANCH  19  20
ATOM     20  C   UNL     1       6.740  -5.619   6.736  0.00  0.00    +0.199 C 
ATOM     21  N   UNL     1       7.663  -6.402   7.566  0.00  0.00    -0.362 N 
ATOM     22  C   UNL     1       7.943  -7.494   6.914  0.00  0.00    +0.060 A 
ATOM     23  C   UNL     1       8.796  -8.651   7.223  0.00  0.00    +0.027 A 
ATOM     24  C   UNL     1       8.895  -9.659   6.334  0.00  0.00    +0.002 A 
ATOM     25  C   UNL     1       8.210  -9.658   5.106  0.00  0.00    +0.002 A 
ATOM     26  C   UNL     1       7.403  -8.647   4.725  0.00  0.00    +0.027 A 
ATOM     27  C   UNL     1       7.218  -7.493   5.614  0.00  0.00    +0.060 A 
ATOM     28  N   UNL     1       6.518  -6.400   5.512  0.00  0.00    -0.362 N 
ATOM     29  H   UNL     1       8.003  -6.152   8.439  0.00  0.00    +0.162 HD
ATOM     30  H   UNL     1       5.953  -6.148   4.765  0.00  0.00    +0.162 HD
ENDBRANCH  19  20
BRANCH  19  31
ATOM     31  C   UNL     1       7.581  -3.494   7.623  0.00  0.00    +0.078 C 
ATOM     32  N   UNL     1       7.748  -2.899   8.576  0.00  0.00    -0.196 NA
ENDBRANCH  19  31
ENDBRANCH  17  19
ENDBRANCH   1  17
TORSDOF 7
