REMARK  Name = ZINC58169029
REMARK  9 active torsions:
REMARK  status: ('A' for Active; 'I' for Inactive)
REMARK    1  A    between atoms: C_1  and  C_2
REMARK    2  A    between atoms: C_7  and  C_9
REMARK    3  A    between atoms: C_7  and  C_10
REMARK    4  A    between atoms: N_13  and  C_17
REMARK    5  A    between atoms: C_17  and  C_18
REMARK    6  A    between atoms: N_20  and  C_21
REMARK    7  A    between atoms: N_25  and  C_27
REMARK    8  A    between atoms: C_27  and  C_29
REMARK    9  A    between atoms: C_27  and  C_30
REMARK                            x       y       z     vdW  Elec       q    Type
REMARK                         _______ _______ _______ _____ _____    ______ ____
ROOT
ATOM      1  C   UNL     1      -1.431  -5.488  -2.763  0.00  0.00    +0.231 C 
ATOM      2  O   UNL     1      -1.057  -5.765  -1.643  0.00  0.00    -0.274 OA
ATOM      3  N   UNL     1      -1.311  -6.390  -3.757  0.00  0.00    -0.313 N 
ATOM      4  H   UNL     1      -1.611  -6.169  -4.652  0.00  0.00    +0.149 HD
ENDROOT
BRANCH   3   5
ATOM      5  C   UNL     1      -0.728  -7.706  -3.484  0.00  0.00    +0.055 C 
ATOM      6  C   UNL     1       0.809  -7.655  -3.643  0.00  0.00    +0.002 C 
ATOM      7  C   UNL     1       1.132  -9.010  -4.322  0.00  0.00    -0.076 C 
ATOM      8  N   UNL     1      -0.007  -9.202  -5.255  0.00  0.00    +0.385 N 
ATOM      9  C   UNL     1      -1.209  -8.731  -4.529  0.00  0.00    -0.056 C 
ATOM     10  H   UNL     1       0.132  -8.655  -6.092  0.00  0.00    -0.081 HD
BRANCH   8  11
ATOM     11  C   UNL     1      -0.148 -10.624  -5.596  0.00  0.00    -0.041 C 
ATOM     12  C   UNL     1      -1.347 -10.809  -6.529  0.00  0.00    -0.008 C 
BRANCH  11  13
ATOM     13  C   UNL     1       1.103 -11.102  -6.286  0.00  0.00    -0.061 A 
ATOM     14  C   UNL     1       1.742 -10.288  -7.202  0.00  0.00    +0.002 A 
ATOM     15  C   UNL     1       2.890 -10.726  -7.835  0.00  0.00    +0.000 A 
ATOM     16  C   UNL     1       3.400 -11.979  -7.551  0.00  0.00    +0.000 A 
ATOM     17  C   UNL     1       2.762 -12.793  -6.634  0.00  0.00    +0.000 A 
ATOM     18  C   UNL     1       1.616 -12.353  -5.998  0.00  0.00    +0.002 A 
ENDBRANCH  11  13
ENDBRANCH   8  11
ENDBRANCH   3   5
BRANCH   1  19
ATOM     19  C   UNL     1      -2.031  -4.134  -3.043  0.00  0.00    +0.213 C 
BRANCH  19  31
ATOM     20  C   UNL     1      -0.019   1.528   0.010  0.00  0.00    +0.007 C 
ATOM     21  C   UNL     1       0.002  -0.004   0.002  0.00  0.00    -0.011 C 
ATOM     22  C   UNL     1      -1.435  -0.529   0.021  0.00  0.00    +0.038 C 
ATOM     23  C   UNL     1      -1.427  -2.050  -0.036  0.00  0.00    +0.113 C 
ATOM     24  C   UNL     1      -0.575  -2.676   1.049  0.00  0.00    +0.041 C 
ATOM     25  C   UNL     1       0.782  -2.031   1.270  0.00  0.00    -0.032 C 
ATOM     26  C   UNL     1       0.719  -0.508   1.253  0.00  0.00    +0.009 C 
ATOM     27  C   UNL     1       1.296  -2.464   2.661  0.00  0.00    +0.011 C 
ATOM     28  C   UNL     1       1.795  -2.526   0.234  0.00  0.00    +0.011 C 
ATOM     29  C   UNL     1      -1.044  -2.534  -1.413  0.00  0.00    +0.247 C 
ATOM     30  O   UNL     1      -0.058  -2.253  -2.060  0.00  0.00    -0.273 OA
ATOM     31  N   UNL     1      -2.050  -3.344  -1.810  0.00  0.00    -0.215 N 
ATOM     32  C   UNL     1      -3.063  -3.331  -0.937  0.00  0.00    +0.310 C 
ATOM     33  O   UNL     1      -4.088  -3.969  -1.082  0.00  0.00    -0.252 OA
ATOM     34  N   UNL     1      -2.817  -2.537   0.119  0.00  0.00    -0.285 N 
ATOM     35  H   UNL     1      -3.418  -2.318   0.845  0.00  0.00    +0.151 HD
ENDBRANCH  19  31
ENDBRANCH   1  19
TORSDOF 5
