REMARK  Name = ZINC22245044
REMARK  9 active torsions:
REMARK  status: ('A' for Active; 'I' for Inactive)
REMARK    1  A    between atoms: C_1  and  C_2
REMARK    2  A    between atoms: C_5  and  O_31
REMARK    3  A    between atoms: C_6  and  C_8
REMARK    4  A    between atoms: N_10  and  N_11
REMARK    5  A    between atoms: C_12  and  C_14
REMARK    6  A    between atoms: C_18  and  S_20
REMARK    7  A    between atoms: S_20  and  N_23
REMARK    8  A    between atoms: N_23  and  C_24
REMARK    9  A    between atoms: C_24  and  C_25
REMARK                            x       y       z     vdW  Elec       q    Type
REMARK                         _______ _______ _______ _____ _____    ______ ____
ROOT
ATOM      1  C   UNL     1      -0.050   3.845   0.022  0.00  0.00    +0.040 A 
ATOM      2  C   UNL     1       1.166   3.160   0.007  0.00  0.00    +0.013 A 
ATOM      3  C   UNL     1       1.178   1.781   0.000  0.00  0.00    +0.003 A 
ATOM      4  C   UNL     1      -0.013   1.076   0.008  0.00  0.00    +0.028 A 
ATOM      5  C   UNL     1      -1.222   1.748   0.017  0.00  0.00    +0.106 A 
ATOM      6  C   UNL     1      -1.247   3.128   0.030  0.00  0.00    +0.041 A 
ENDROOT
BRANCH   1   8
ATOM      7  N   UNL     1       1.088   6.013   0.024  0.00  0.00    -0.230 N 
ATOM      8  C   UNL     1      -0.070   5.323   0.030  0.00  0.00    +0.260 C 
ATOM      9  O   UNL     1      -1.131   5.916   0.043  0.00  0.00    -0.269 OA
ATOM     10  H   UNL     1       2.048   5.476   0.012  0.00  0.00    +0.173 HD
BRANCH   7  13
ATOM     11  C   UNL     1       2.227   8.103   0.024  0.00  0.00    +0.264 C 
ATOM     12  O   UNL     1       3.288   7.510   0.011  0.00  0.00    -0.269 OA
ATOM     13  N   UNL     1       1.069   7.414   0.031  0.00  0.00    -0.230 N 
ATOM     14  H   UNL     1       0.109   7.951   0.043  0.00  0.00    +0.173 HD
BRANCH  11  20
ATOM     15  C   UNL     1      -0.336  12.381   0.068  0.00  0.00    +0.044 C 
ATOM     16  C   UNL     1       0.978  11.642   0.053  0.00  0.00    -0.050 A 
ATOM     17  C   UNL     1       2.168  12.352   0.046  0.00  0.00    +0.007 A 
ATOM     18  C   UNL     1       3.377  11.686   0.033  0.00  0.00    +0.046 A 
ATOM     19  C   UNL     1       3.408  10.300   0.025  0.00  0.00    +0.129 A 
ATOM     20  C   UNL     1       2.207   9.579   0.032  0.00  0.00    +0.080 A 
ATOM     21  C   UNL     1       0.990  10.265   0.041  0.00  0.00    +0.020 A 
BRANCH  19  22
ATOM     22  O   UNL     1       4.596   9.645   0.011  0.00  0.00    -0.506 OA
ATOM     23  H   UNL     1       4.617   8.545   0.005  0.00  0.00    +0.292 HD
ENDBRANCH  19  22
ENDBRANCH  11  20
ENDBRANCH   7  13
ENDBRANCH   1   8
BRANCH   5  24
ATOM     24  S   UNL     1      -2.732   0.841   0.020  0.00  0.00    +0.059 S 
ATOM     25  O   UNL     1      -3.724   1.702  -0.521  0.00  0.00    -0.153 OA
ATOM     26  O   UNL     1      -2.442  -0.433  -0.539  0.00  0.00    -0.153 OA
BRANCH  24  27
ATOM     27  N   UNL     1      -3.144   0.580   1.603  0.00  0.00    -0.186 NA
ATOM     28  H   UNL     1      -3.005  -0.421   2.037  0.00  0.00    +0.148 HD
BRANCH  27  29
ATOM     29  C   UNL     1      -3.478   1.714   2.469  0.00  0.00    +0.141 C 
BRANCH  29  30
ATOM     30  C   UNL     1      -4.160   1.210   3.715  0.00  0.00    -0.032 A 
ATOM     31  C   UNL     1      -5.536   1.084   3.747  0.00  0.00    +0.005 A 
ATOM     32  C   UNL     1      -6.161   0.617   4.888  0.00  0.00    +0.000 A 
ATOM     33  C   UNL     1      -5.410   0.287   6.001  0.00  0.00    +0.000 A 
ATOM     34  C   UNL     1      -4.034   0.418   5.971  0.00  0.00    +0.000 A 
ATOM     35  C   UNL     1      -3.409   0.880   4.827  0.00  0.00    +0.005 A 
ENDBRANCH  29  30
ENDBRANCH  27  29
ENDBRANCH  24  27
ENDBRANCH   5  24
TORSDOF 8
