REMARK  Name = ZINC01914481
REMARK  13 active torsions:
REMARK  status: ('A' for Active; 'I' for Inactive)
REMARK    1  A    between atoms: C_1  and  C_2
REMARK    2  A    between atoms: C_5  and  C_8
REMARK    3  A    between atoms: C_9  and  O_21
REMARK    4  A    between atoms: C_13  and  C_20
REMARK    5  A    between atoms: C_15  and  C_19
REMARK    6  A    between atoms: O_21  and  C_22
REMARK    7  A    between atoms: C_22  and  C_24
REMARK    8  A    between atoms: C_24  and  C_25
REMARK    9  A    between atoms: C_25  and  C_26
REMARK   10  A    between atoms: C_26  and  N_27
REMARK   11  A    between atoms: N_27  and  S_28
REMARK   12  A    between atoms: S_28  and  C_31
REMARK   13  A    between atoms: C_34  and  C_37
REMARK                            x       y       z     vdW  Elec       q    Type
REMARK                         _______ _______ _______ _____ _____    ______ ____
ROOT
ATOM      1  C   UNL     1      -4.490   6.404  -6.806  0.00  0.00    +0.182 A 
ATOM      2  C   UNL     1      -3.184   6.610  -6.474  0.00  0.00    +0.221 A 
ATOM      3  C   UNL     1      -2.235   6.853  -7.501  0.00  0.00    +0.235 A 
ATOM      4  O   UNL     1      -1.058   7.047  -7.244  0.00  0.00    -0.283 OA
ATOM      5  C   UNL     1      -2.727   6.858  -8.892  0.00  0.00    +0.071 A 
ATOM      6  C   UNL     1      -1.865   7.084  -9.964  0.00  0.00    -0.036 A 
ATOM      7  C   UNL     1      -2.364   7.086 -11.248  0.00  0.00    +0.007 A 
ATOM      8  C   UNL     1      -3.715   6.865 -11.475  0.00  0.00    -0.047 A 
ATOM      9  C   UNL     1      -4.577   6.640 -10.423  0.00  0.00    +0.050 A 
ATOM     10  C   UNL     1      -4.094   6.634  -9.119  0.00  0.00    +0.140 A 
ATOM     11  O   UNL     1      -4.922   6.417  -8.077  0.00  0.00    -0.451 OA
ATOM     12  C   UNL     1      -4.245   6.870 -12.885  0.00  0.00    +0.044 C 
ATOM     13  C   UNL     1      -0.398   7.325  -9.720  0.00  0.00    +0.044 C 
ENDROOT
BRANCH   1  18
ATOM     14  C   UNL     1      -8.295   5.449  -2.599  0.00  0.00    +0.044 C 
ATOM     15  C   UNL     1      -7.298   5.699  -3.701  0.00  0.00    -0.050 A 
ATOM     16  C   UNL     1      -6.407   6.752  -3.597  0.00  0.00    +0.004 A 
ATOM     17  C   UNL     1      -5.492   6.987  -4.601  0.00  0.00    +0.012 A 
ATOM     18  C   UNL     1      -5.466   6.159  -5.726  0.00  0.00    +0.021 A 
ATOM     19  C   UNL     1      -6.373   5.101  -5.827  0.00  0.00    +0.012 A 
ATOM     20  C   UNL     1      -7.279   4.875  -4.812  0.00  0.00    +0.004 A 
ENDBRANCH   1  18
BRANCH   2  21
ATOM     21  O   UNL     1      -2.795   6.589  -5.171  0.00  0.00    -0.418 OA
BRANCH  21  22
ATOM     22  C   UNL     1      -2.473   5.394  -4.651  0.00  0.00    +0.313 C 
ATOM     23  O   UNL     1      -2.537   4.397  -5.338  0.00  0.00    -0.250 OA
BRANCH  22  24
ATOM     24  C   UNL     1      -2.033   5.292  -3.213  0.00  0.00    +0.122 C 
BRANCH  24  25
ATOM     25  C   UNL     1      -1.728   3.831  -2.876  0.00  0.00    +0.028 C 
BRANCH  25  26
ATOM     26  C   UNL     1      -1.281   3.728  -1.416  0.00  0.00    +0.106 C 
BRANCH  26  27
ATOM     27  N   UNL     1      -0.989   2.329  -1.093  0.00  0.00    -0.190 NA
ATOM     28  H   UNL     1      -1.293   1.621  -1.683  0.00  0.00    +0.148 HD
BRANCH  27  29
ATOM     29  S   UNL     1      -0.140   1.956   0.279  0.00  0.00    +0.058 S 
ATOM     30  O   UNL     1      -0.045   0.539   0.325  0.00  0.00    -0.153 OA
ATOM     31  O   UNL     1       1.005   2.797   0.289  0.00  0.00    -0.153 OA
BRANCH  29  32
ATOM     32  C   UNL     1      -1.131   2.439   1.653  0.00  0.00    +0.105 A 
ATOM     33  C   UNL     1      -1.012   3.712   2.178  0.00  0.00    +0.029 A 
ATOM     34  C   UNL     1      -1.793   4.092   3.253  0.00  0.00    +0.005 A 
ATOM     35  C   UNL     1      -2.687   3.196   3.809  0.00  0.00    -0.050 A 
ATOM     36  C   UNL     1      -2.803   1.922   3.287  0.00  0.00    +0.005 A 
ATOM     37  C   UNL     1      -2.025   1.543   2.209  0.00  0.00    +0.029 A 
ATOM     38  C   UNL     1      -3.535   3.610   4.985  0.00  0.00    +0.044 C 
ENDBRANCH  29  32
ENDBRANCH  27  29
ENDBRANCH  26  27
ENDBRANCH  25  26
ENDBRANCH  24  25
ENDBRANCH  22  24
ENDBRANCH  21  22
ENDBRANCH   2  21
TORSDOF 9
