REMARK  Name = ZINC64714174
REMARK  6 active torsions:
REMARK  status: ('A' for Active; 'I' for Inactive)
REMARK    1  A    between atoms: C_1  and  C_2
REMARK    2  A    between atoms: C_7  and  C_8
REMARK    3  A    between atoms: C_10  and  C_13
REMARK    4  A    between atoms: C_13  and  S_14
REMARK    5  A    between atoms: S_14  and  C_15
REMARK    6  A    between atoms: C_25  and  C_27
REMARK                            x       y       z     vdW  Elec       q    Type
REMARK                         _______ _______ _______ _____ _____    ______ ____
ROOT
ATOM      1  C   UNL     1       1.653  -0.573   8.475  0.00  0.00    +0.272 C 
ATOM      2  N   UNL     1       1.221   0.539   9.340  0.00  0.00    -0.163 NA
ATOM      3  N   UNL     1       2.005   1.301   9.911  0.00  0.00    -0.081 NA
ATOM      4  C   UNL     1       3.354   1.228   9.781  0.00  0.00    +0.276 C 
ATOM      5  O   UNL     1       4.097   1.918  10.439  0.00  0.00    -0.270 OA
ATOM      6  C   UNL     1       3.872   0.244   8.777  0.00  0.00    +0.193 C 
ATOM      7  N   UNL     1       2.981  -0.956   8.906  0.00  0.00    -0.178 NA
ATOM      8  N   UNL     1       3.717  -1.892   8.264  0.00  0.00    -0.273 N 
ATOM      9  C   UNL     1       5.039  -1.696   8.732  0.00  0.00    +0.053 C 
ATOM     10  C   UNL     1       5.213  -0.372   9.069  0.00  0.00    +0.028 C 
ATOM     11  H   UNL     1       3.407  -2.552   7.624  0.00  0.00    +0.167 HD
ENDROOT
BRANCH   9  12
ATOM     12  C   UNL     1       6.074  -2.742   8.829  0.00  0.00    +0.034 A 
ATOM     13  C   UNL     1       5.993  -4.069   8.498  0.00  0.00    +0.017 A 
ATOM     14  C   UNL     1       7.103  -4.864   8.676  0.00  0.00    +0.008 A 
ATOM     15  C   UNL     1       8.240  -4.311   9.173  0.00  0.00    +0.046 A 
ATOM     16  S   UNL     1       7.760  -2.607   9.400  0.00  0.00    -0.095 S 
ENDBRANCH   9  12
BRANCH   1  17
ATOM     17  S   UNL     1       1.697  -0.031   6.745  0.00  0.00    -0.106 S 
BRANCH  17  18
ATOM     18  C   UNL     1      -0.045  -0.025   6.242  0.00  0.00    +0.171 C 
BRANCH  18  21
ATOM     19  C   UNL     1      -0.236   0.055   2.619  0.00  0.00    +0.202 A 
ATOM     20  N   UNL     1      -0.131  -0.575   3.803  0.00  0.00    -0.191 NA
ATOM     21  C   UNL     1      -0.143   0.294   4.773  0.00  0.00    +0.238 A 
ATOM     22  O   UNL     1      -0.259   1.520   4.244  0.00  0.00    -0.337 OA
ATOM     23  N   UNL     1      -0.312   1.345   2.836  0.00  0.00    -0.056 NA
BRANCH  19  30
ATOM     24  C   UNL     1       1.710  -1.993   1.999  0.00  0.00    +0.044 C 
ATOM     25  C   UNL     1       0.676  -1.589   0.981  0.00  0.00    -0.040 A 
ATOM     26  C   UNL     1       0.648  -2.200  -0.257  0.00  0.00    +0.004 A 
ATOM     27  C   UNL     1      -0.300  -1.830  -1.193  0.00  0.00    +0.000 A 
ATOM     28  C   UNL     1      -1.226  -0.846  -0.895  0.00  0.00    +0.001 A 
ATOM     29  C   UNL     1      -1.207  -0.228   0.339  0.00  0.00    +0.012 A 
ATOM     30  C   UNL     1      -0.257  -0.601   1.288  0.00  0.00    +0.025 A 
ENDBRANCH  19  30
ENDBRANCH  18  21
ENDBRANCH  17  18
ENDBRANCH   1  17
TORSDOF 5
