REMARK  Name = ZINC24961651
REMARK  10 active torsions:
REMARK  status: ('A' for Active; 'I' for Inactive)
REMARK    1  A    between atoms: C_1  and  C_2
REMARK    2  A    between atoms: C_2  and  C_3
REMARK    3  A    between atoms: C_2  and  C_4
REMARK    4  A    between atoms: C_4  and  C_6
REMARK    5  A    between atoms: C_4  and  N_19
REMARK    6  A    between atoms: N_8  and  C_9
REMARK    7  A    between atoms: C_9  and  C_10
REMARK    8  A    between atoms: C_13  and  S_15
REMARK    9  A    between atoms: S_15  and  N_18
REMARK   10  A    between atoms: C_20  and  C_22
REMARK                            x       y       z     vdW  Elec       q    Type
REMARK                         _______ _______ _______ _____ _____    ______ ____
ROOT
ATOM      1  C   UNL     1       1.708   5.321   1.641  0.00  0.00    +0.234 C 
ATOM      2  O   UNL     1       1.826   6.103   0.722  0.00  0.00    -0.274 OA
ATOM      3  N   UNL     1       1.493   4.014   1.390  0.00  0.00    -0.309 N 
ATOM      4  H   UNL     1       1.386   3.304   2.224  0.00  0.00    +0.149 HD
ENDROOT
BRANCH   1   5
ATOM      5  C   UNL     1       1.802   5.809   3.063  0.00  0.00    +0.161 C 
BRANCH   5   6
ATOM      6  N   UNL     1       2.038   7.255   3.069  0.00  0.00    -0.304 N 
ATOM      7  C   UNL     1       1.669   7.994   4.134  0.00  0.00    +0.217 C 
ATOM      8  O   UNL     1       1.142   7.462   5.088  0.00  0.00    -0.275 OA
ATOM      9  H   UNL     1       2.515   7.738   2.203  0.00  0.00    +0.149 HD
BRANCH   7  10
ATOM     10  C   UNL     1       1.911   9.482   4.139  0.00  0.00    +0.075 C 
ATOM     11  C   UNL     1       3.410   9.755   4.000  0.00  0.00    +0.013 C 
ATOM     12  C   UNL     1       3.656  11.265   4.006  0.00  0.00    +0.001 C 
ATOM     13  C   UNL     1       3.148  11.860   5.321  0.00  0.00    +0.000 C 
ATOM     14  C   UNL     1       1.649  11.586   5.459  0.00  0.00    +0.001 C 
ATOM     15  C   UNL     1       1.404  10.076   5.454  0.00  0.00    +0.013 C 
ENDBRANCH   7  10
ENDBRANCH   5   6
BRANCH   5  17
ATOM     16  C   UNL     1       4.282   5.507   3.115  0.00  0.00    +0.009 C 
ATOM     17  C   UNL     1       2.960   5.101   3.770  0.00  0.00    +0.012 C 
ATOM     18  C   UNL     1       2.978   5.503   5.247  0.00  0.00    +0.009 C 
ENDBRANCH   5  17
ENDBRANCH   1   5
BRANCH   3  19
ATOM     19  C   UNL     1       1.402   3.539   0.007  0.00  0.00    +0.146 C 
BRANCH  19  20
ATOM     20  C   UNL     1       1.160   2.051   0.002  0.00  0.00    +0.009 A 
ATOM     21  C   UNL     1      -0.017   1.378   0.010  0.00  0.00    +0.015 A 
ATOM     22  C   UNL     1       0.002  -0.004   0.002  0.00  0.00    +0.036 A 
ATOM     23  C   UNL     1       1.196  -0.645  -0.013  0.00  0.00    +0.142 A 
ATOM     24  S   UNL     1       2.348   0.719  -0.017  0.00  0.00    -0.072 S 
BRANCH  23  25
ATOM     25  S   UNL     1       1.526  -2.376  -0.026  0.00  0.00    +0.062 S 
ATOM     26  O   UNL     1       2.831  -2.545   0.512  0.00  0.00    -0.153 OA
ATOM     27  O   UNL     1       0.384  -3.011   0.532  0.00  0.00    -0.153 OA
BRANCH  25  28
ATOM     28  N   UNL     1       1.603  -2.848  -1.611  0.00  0.00    -0.203 NA
ATOM     29  H   UNL     1       1.809  -3.927  -1.663  0.00  0.00    +0.144 HD
ATOM     30  H   UNL     1       2.408  -2.297  -2.119  0.00  0.00    +0.144 HD
ENDBRANCH  25  28
ENDBRANCH  23  25
ENDBRANCH  19  20
ENDBRANCH   3  19
TORSDOF 8
