REMARK  Name = ZINC12659406
REMARK  8 active torsions:
REMARK  status: ('A' for Active; 'I' for Inactive)
REMARK    1  A    between atoms: C_1  and  C_2
REMARK    2  A    between atoms: C_2  and  C_4
REMARK    3  A    between atoms: C_7  and  N_10
REMARK    4  A    between atoms: C_11  and  C_13
REMARK    5  A    between atoms: C_13  and  N_24
REMARK    6  A    between atoms: C_14  and  C_15
REMARK    7  A    between atoms: C_19  and  N_21
REMARK    8  A    between atoms: C_25  and  C_27
REMARK                            x       y       z     vdW  Elec       q    Type
REMARK                         _______ _______ _______ _____ _____    ______ ____
ROOT
ATOM      1  C   UNL     1      -1.368   6.432   0.150  0.00  0.00    +0.097 C 
ATOM      2  C   UNL     1      -0.333   5.568   0.267  0.00  0.00    +0.036 C 
ENDROOT
BRANCH   2   3
ATOM      3  C   UNL     1      -0.591   4.144   0.529  0.00  0.00    -0.021 A 
ATOM      4  C   UNL     1      -1.736   3.754   1.231  0.00  0.00    +0.008 A 
ATOM      5  C   UNL     1      -1.974   2.417   1.468  0.00  0.00    +0.003 A 
ATOM      6  C   UNL     1      -1.076   1.461   1.023  0.00  0.00    +0.033 A 
ATOM      7  C   UNL     1       0.059   1.839   0.328  0.00  0.00    +0.127 A 
ATOM      8  C   UNL     1       0.308   3.172   0.078  0.00  0.00    +0.040 A 
BRANCH   7   9
ATOM      9  N   UNL     1       1.009   0.809  -0.149  0.00  0.00    +0.056 N 
ATOM     10  O   UNL     1       0.791  -0.369   0.070  0.00  0.00    -0.126 OA
ATOM     11  O   UNL     1       2.009   1.139  -0.761  0.00  0.00    -0.126 OA
ENDBRANCH   7   9
ENDBRANCH   2   3
BRANCH   1  13
ATOM     12  N   UNL     1       0.154   8.290  -0.288  0.00  0.00    -0.280 N 
ATOM     13  C   UNL     1      -1.111   7.850  -0.140  0.00  0.00    +0.262 C 
ATOM     14  O   UNL     1      -2.042   8.627  -0.245  0.00  0.00    -0.268 OA
ATOM     15  H   UNL     1       0.891   7.659  -0.277  0.00  0.00    +0.155 HD
BRANCH  12  19
ATOM     16  C   UNL     1       0.899  12.345  -0.794  0.00  0.00    +0.017 A 
ATOM     17  C   UNL     1       1.790  11.554  -0.057  0.00  0.00    +0.013 A 
ATOM     18  C   UNL     1       1.541  10.221   0.107  0.00  0.00    +0.024 A 
ATOM     19  C   UNL     1       0.403   9.649  -0.457  0.00  0.00    +0.034 A 
ATOM     20  C   UNL     1      -0.482  10.430  -1.195  0.00  0.00    +0.024 A 
ATOM     21  C   UNL     1      -0.244  11.765  -1.359  0.00  0.00    +0.013 A 
BRANCH  16  23
ATOM     22  C   UNL     1       0.139  14.654  -1.650  0.00  0.00    +0.091 C 
ATOM     23  C   UNL     1       1.162  13.779  -0.973  0.00  0.00    +0.160 C 
ATOM     24  O   UNL     1       2.203  14.259  -0.575  0.00  0.00    -0.292 OA
ENDBRANCH  16  23
ENDBRANCH  12  19
ENDBRANCH   1  13
BRANCH   1  25
ATOM     25  N   UNL     1      -2.680   5.976   0.303  0.00  0.00    -0.277 N 
ATOM     26  C   UNL     1      -3.468   6.501   1.263  0.00  0.00    +0.249 C 
ATOM     27  O   UNL     1      -3.011   7.307   2.051  0.00  0.00    -0.270 OA
ATOM     28  H   UNL     1      -3.024   5.282  -0.280  0.00  0.00    +0.155 HD
BRANCH  26  29
ATOM     29  C   UNL     1      -4.886   6.098   1.357  0.00  0.00    +0.051 A 
ATOM     30  C   UNL     1      -5.383   5.086   0.534  0.00  0.00    +0.014 A 
ATOM     31  C   UNL     1      -6.707   4.711   0.630  0.00  0.00    +0.001 A 
ATOM     32  C   UNL     1      -7.545   5.342   1.534  0.00  0.00    +0.001 A 
ATOM     33  C   UNL     1      -7.061   6.348   2.349  0.00  0.00    +0.016 A 
ATOM     34  C   UNL     1      -5.736   6.730   2.267  0.00  0.00    +0.030 A 
ATOM     35 BR   UNL     1      -5.076   8.107   3.383  0.00  0.00    -0.050 Br
ENDBRANCH  26  29
ENDBRANCH   1  25
TORSDOF 7
