REMARK  Name = ZINC03670410
REMARK  12 active torsions:
REMARK  status: ('A' for Active; 'I' for Inactive)
REMARK    1  A    between atoms: C_1  and  C_2
REMARK    2  A    between atoms: C_2  and  N_3
REMARK    3  A    between atoms: N_3  and  C_4
REMARK    4  A    between atoms: N_3  and  C_6
REMARK    5  A    between atoms: C_4  and  C_5
REMARK    6  A    between atoms: C_6  and  C_7
REMARK    7  A    between atoms: C_7  and  C_9
REMARK    8  A    between atoms: C_7  and  C_10
REMARK    9  A    between atoms: C_10  and  N_11
REMARK   10  A    between atoms: C_12  and  C_14
REMARK   11  A    between atoms: C_14  and  O_33
REMARK   12  A    between atoms: N_24  and  C_25
REMARK                            x       y       z     vdW  Elec       q    Type
REMARK                         _______ _______ _______ _____ _____    ______ ____
ROOT
ATOM      1  C   UNL     1      -5.082  -5.366  -0.075  0.00  0.00    +0.247 C 
ATOM      2  C   UNL     1      -5.654  -4.835   1.220  0.00  0.00    +0.033 A 
ATOM      3  C   UNL     1      -5.052  -5.098   2.428  0.00  0.00    +0.010 A 
ATOM      4  C   UNL     1      -5.604  -4.595   3.594  0.00  0.00    +0.001 A 
ATOM      5  C   UNL     1      -6.756  -3.831   3.541  0.00  0.00    +0.002 A 
ATOM      6  C   UNL     1      -7.362  -3.566   2.329  0.00  0.00    +0.024 A 
ATOM      7  C   UNL     1      -6.812  -4.068   1.157  0.00  0.00    +0.043 A 
ATOM      8  N   UNL     1      -7.409  -3.811  -0.078  0.00  0.00    -0.269 N 
ATOM      9  C   UNL     1      -6.917  -4.272  -1.235  0.00  0.00    +0.314 C 
ATOM     10  O   UNL     1      -7.504  -3.997  -2.264  0.00  0.00    -0.252 OA
ATOM     11  N   UNL     1      -5.805  -5.025  -1.312  0.00  0.00    -0.214 N 
ATOM     12  H   UNL     1      -8.216  -3.274  -0.099  0.00  0.00    +0.156 HD
ENDROOT
BRANCH  11  13
ATOM     13  C   UNL     1      -5.340  -5.478  -2.552  0.00  0.00    +0.043 A 
ATOM     14  C   UNL     1      -5.400  -6.829  -2.866  0.00  0.00    +0.025 A 
ATOM     15  C   UNL     1      -4.941  -7.274  -4.090  0.00  0.00    +0.023 A 
ATOM     16  C   UNL     1      -4.422  -6.375  -5.005  0.00  0.00    +0.059 A 
ATOM     17  C   UNL     1      -4.361  -5.027  -4.695  0.00  0.00    +0.061 A 
ATOM     18  C   UNL     1      -4.824  -4.576  -3.473  0.00  0.00    +0.045 A 
ATOM     19 CL   UNL     1      -3.709  -3.901  -5.845  0.00  0.00    -0.082 Cl
ATOM     20 CL   UNL     1      -3.847  -6.938  -6.543  0.00  0.00    -0.082 Cl
ENDBRANCH  11  13
BRANCH   1  22
ATOM     21  N   UNL     1      -3.446  -3.537  -0.386  0.00  0.00    -0.311 N 
ATOM     22  C   UNL     1      -3.671  -4.853  -0.204  0.00  0.00    +0.269 C 
ATOM     23  O   UNL     1      -2.737  -5.625  -0.145  0.00  0.00    -0.270 OA
ATOM     24  H   UNL     1      -4.193  -2.919  -0.433  0.00  0.00    +0.149 HD
BRANCH  21  25
ATOM     25  C   UNL     1      -2.075  -3.038  -0.512  0.00  0.00    +0.105 C 
BRANCH  25  26
ATOM     26  C   UNL     1      -2.099  -1.521  -0.709  0.00  0.00    -0.014 C 
ATOM     27  C   UNL     1      -2.774  -1.190  -2.041  0.00  0.00    +0.007 C 
BRANCH  26  28
ATOM     28  C   UNL     1      -0.667  -0.984  -0.716  0.00  0.00    -0.074 C 
BRANCH  28  29
ATOM     29  N   UNL     1      -0.694   0.483  -0.770  0.00  0.00    +0.380 N 
ATOM     30  H   UNL     1      -1.241   0.780  -1.565  0.00  0.00    -0.082 HD
BRANCH  29  32
ATOM     31  C   UNL     1      -1.439   2.528   0.354  0.00  0.00    -0.017 C 
ATOM     32  C   UNL     1      -1.296   1.008   0.463  0.00  0.00    -0.082 C 
ENDBRANCH  29  32
BRANCH  29  33
ATOM     33  C   UNL     1       0.677   0.994  -0.901  0.00  0.00    -0.082 C 
ATOM     34  C   UNL     1       1.254   0.567  -2.253  0.00  0.00    -0.017 C 
ENDBRANCH  29  33
ENDBRANCH  28  29
ENDBRANCH  26  28
ENDBRANCH  25  26
ENDBRANCH  21  25
ENDBRANCH   1  22
BRANCH   1  35
ATOM     35  O   UNL     1      -5.022  -6.790   0.022  0.00  0.00    -0.360 OA
ATOM     36  H   UNL     1      -4.515  -7.112   0.780  0.00  0.00    +0.213 HD
ENDBRANCH   1  35
TORSDOF 9
