REMARK  Name = ZINC12276157
REMARK  10 active torsions:
REMARK  status: ('A' for Active; 'I' for Inactive)
REMARK    1  A    between atoms: C_1  and  O_2
REMARK    2  A    between atoms: O_2  and  C_3
REMARK    3  A    between atoms: C_5  and  C_13
REMARK    4  A    between atoms: C_7  and  O_11
REMARK    5  A    between atoms: C_8  and  O_9
REMARK    6  A    between atoms: O_9  and  C_10
REMARK    7  A    between atoms: O_11  and  C_12
REMARK    8  A    between atoms: N_17  and  N_21
REMARK    9  A    between atoms: C_22  and  C_23
REMARK   10  A    between atoms: C_25  and  N_29
REMARK                            x       y       z     vdW  Elec       q    Type
REMARK                         _______ _______ _______ _____ _____    ______ ____
ROOT
ATOM      1  C   UNL     1       2.655  -0.843   3.629  0.00  0.00    +0.028 C 
ATOM      2  C   UNL     1       3.221  -1.321   2.491  0.00  0.00    +0.079 C 
ATOM      3  C   UNL     1       4.363  -2.241   2.323  0.00  0.00    +0.278 C 
ATOM      4  O   UNL     1       4.960  -2.701   3.279  0.00  0.00    -0.267 OA
ATOM      5  N   UNL     1       4.705  -2.541   1.081  0.00  0.00    -0.142 N 
ATOM      6  C   UNL     1       4.041  -2.030   0.025  0.00  0.00    +0.142 C 
ATOM      7  S   UNL     1       4.330  -2.294  -1.642  0.00  0.00    -0.025 S 
ATOM      8  S   UNL     1       2.784  -1.015   0.785  0.00  0.00    -0.059 S 
ENDROOT
BRANCH   1  11
ATOM      9  C   UNL     1       0.050   1.663   4.631  0.00  0.00    +0.166 A 
ATOM     10  C   UNL     1       0.965   0.631   4.701  0.00  0.00    +0.057 A 
ATOM     11  C   UNL     1       1.685   0.258   3.560  0.00  0.00    -0.017 A 
ATOM     12  C   UNL     1       1.482   0.940   2.354  0.00  0.00    +0.057 A 
ATOM     13  C   UNL     1       0.569   1.975   2.294  0.00  0.00    +0.166 A 
ATOM     14  C   UNL     1      -0.149   2.340   3.430  0.00  0.00    +0.204 A 
BRANCH   9  16
ATOM     15  C   UNL     1      -0.400   1.288   6.936  0.00  0.00    +0.277 C 
ATOM     16  O   UNL     1      -0.654   2.024   5.738  0.00  0.00    -0.491 OA
ENDBRANCH   9  16
BRANCH  14  17
ATOM     17  O   UNL     1      -1.047   3.359   3.366  0.00  0.00    -0.488 OA
ATOM     18  C   UNL     1      -0.559   4.672   3.650  0.00  0.00    +0.277 C 
ENDBRANCH  14  17
BRANCH  13  19
ATOM     19  O   UNL     1       0.371   2.638   1.123  0.00  0.00    -0.491 OA
ATOM     20  C   UNL     1       1.141   2.212  -0.003  0.00  0.00    +0.277 C 
ENDBRANCH  13  19
ENDBRANCH   1  11
BRANCH   5  21
ATOM     21  N   UNL     1       5.781  -3.410   0.858  0.00  0.00    -0.179 NA
ATOM     22  C   UNL     1       6.875  -2.963   0.321  0.00  0.00    +0.142 C 
BRANCH  22  23
ATOM     23  C   UNL     1       8.036  -3.857   0.162  0.00  0.00    +0.043 A 
ATOM     24  C   UNL     1       9.215  -3.380  -0.415  0.00  0.00    +0.046 A 
ATOM     25  C   UNL     1      10.298  -4.221  -0.561  0.00  0.00    +0.127 A 
ATOM     26  C   UNL     1      10.222  -5.537  -0.138  0.00  0.00    +0.036 A 
ATOM     27  C   UNL     1       9.061  -6.021   0.435  0.00  0.00    +0.054 A 
ATOM     28  C   UNL     1       7.966  -5.188   0.595  0.00  0.00    +0.188 A 
ATOM     29  O   UNL     1       6.826  -5.661   1.163  0.00  0.00    -0.287 OA
BRANCH  25  30
ATOM     30  N   UNL     1      11.547  -3.715  -1.173  0.00  0.00    +0.056 N 
ATOM     31  O   UNL     1      11.617  -2.558  -1.547  0.00  0.00    -0.126 OA
ATOM     32  O   UNL     1      12.505  -4.456  -1.303  0.00  0.00    -0.126 OA
ENDBRANCH  25  30
ENDBRANCH  22  23
ENDBRANCH   5  21
TORSDOF 7
