REMARK  Name = ZINC53548623
REMARK  3 active torsions:
REMARK  status: ('A' for Active; 'I' for Inactive)
REMARK    1  A    between atoms: C_1  and  N_2
REMARK    2  A    between atoms: N_10  and  C_23
REMARK    3  A    between atoms: N_14  and  C_15
REMARK                            x       y       z     vdW  Elec       q    Type
REMARK                         _______ _______ _______ _____ _____    ______ ____
ROOT
ATOM      1  C   UNL     1      -0.018   1.461   0.010  0.00  0.00    +0.152 C 
ATOM      2  N   UNL     1       0.002  -0.004   0.002  0.00  0.00    -0.309 N 
ATOM      3  C   UNL     1       0.008  -0.826  -1.117  0.00  0.00    +0.152 A 
ATOM      4  C   UNL     1      -0.002  -0.600  -2.505  0.00  0.00    +0.280 A 
ATOM      5  O   UNL     1      -0.019   0.537  -2.943  0.00  0.00    -0.265 OA
ATOM      6  N   UNL     1       0.008  -1.655  -3.345  0.00  0.00    -0.273 N 
ATOM      7  H   UNL     1       0.001  -1.502  -4.303  0.00  0.00    +0.173 HD
ATOM      8  C   UNL     1       0.028  -2.914  -2.876  0.00  0.00    +0.331 A 
ATOM      9  O   UNL     1       0.037  -3.841  -3.664  0.00  0.00    -0.246 OA
ATOM     10  N   UNL     1       0.038  -3.175  -1.555  0.00  0.00    -0.280 N 
ATOM     11  C   UNL     1       0.028  -2.133  -0.642  0.00  0.00    +0.170 A 
ATOM     12  N   UNL     1       0.033  -2.077   0.691  0.00  0.00    -0.196 NA
ATOM     13  C   UNL     1       0.024  -0.821   1.088  0.00  0.00    +0.198 A 
ATOM     14  N   UNL     1       0.031  -0.401   2.399  0.00  0.00    -0.312 N 
ATOM     15  C   UNL     1       0.059  -4.562  -1.083  0.00  0.00    +0.155 C 
ATOM     16  H   UNL     1       0.020   0.547   2.604  0.00  0.00    +0.149 HD
ENDROOT
BRANCH  14  17
ATOM     17  C   UNL     1       0.055  -1.386   3.483  0.00  0.00    +0.073 C 
ATOM     18  C   UNL     1      -1.373  -1.841   3.790  0.00  0.00    +0.022 C 
ATOM     19  C   UNL     1      -1.331  -3.128   4.617  0.00  0.00    +0.002 C 
ATOM     20  C   UNL     1      -0.288  -4.080   4.028  0.00  0.00    +0.000 C 
ATOM     21  C   UNL     1       0.871  -4.241   5.013  0.00  0.00    +0.000 C 
ATOM     22  C   UNL     1       1.753  -2.992   4.971  0.00  0.00    +0.000 C 
ATOM     23  C   UNL     1       1.061  -1.853   5.722  0.00  0.00    +0.002 C 
ATOM     24  C   UNL     1       0.669  -0.753   4.734  0.00  0.00    +0.022 C 
ENDBRANCH  14  17
TORSDOF 1
