REMARK  Name = ZINC39024471
REMARK  11 active torsions:
REMARK  status: ('A' for Active; 'I' for Inactive)
REMARK    1  A    between atoms: C_1  and  C_2
REMARK    2  A    between atoms: C_2  and  O_3
REMARK    3  A    between atoms: O_3  and  C_4
REMARK    4  A    between atoms: C_4  and  C_6
REMARK    5  A    between atoms: C_8  and  N_18
REMARK    6  A    between atoms: C_11  and  O_16
REMARK    7  A    between atoms: O_16  and  C_17
REMARK    8  A    between atoms: C_19  and  C_21
REMARK    9  A    between atoms: C_21  and  N_22
REMARK   10  A    between atoms: N_25  and  C_28
REMARK   11  A    between atoms: C_31  and  N_34
REMARK                            x       y       z     vdW  Elec       q    Type
REMARK                         _______ _______ _______ _____ _____    ______ ____
ROOT
ATOM      1  N   UNL     1       3.914  -1.313  -2.004  0.00  0.00    -0.285 N 
ATOM      2  C   UNL     1       5.244  -1.526  -1.944  0.00  0.00    +0.231 C 
ATOM      3  O   UNL     1       5.697  -2.614  -2.231  0.00  0.00    -0.274 OA
ATOM      4  H   UNL     1       3.559  -0.423  -1.857  0.00  0.00    +0.155 HD
ENDROOT
BRANCH   1   6
ATOM      5  C   UNL     1       3.450  -3.764  -2.649  0.00  0.00    +0.234 C 
ATOM      6  C   UNL     1       3.069  -2.349  -2.272  0.00  0.00    +0.053 C 
ATOM      7  C   UNL     1       1.686  -2.324  -2.256  0.00  0.00    +0.021 A 
ATOM      8  C   UNL     1       0.753  -1.295  -1.976  0.00  0.00    +0.057 A 
ATOM      9  C   UNL     1      -0.579  -1.560  -2.035  0.00  0.00    +0.121 A 
ATOM     10  C   UNL     1      -1.058  -2.834  -2.369  0.00  0.00    +0.047 A 
ATOM     11  C   UNL     1      -0.222  -3.862  -2.647  0.00  0.00    +0.029 A 
ATOM     12  C   UNL     1       1.183  -3.663  -2.606  0.00  0.00    +0.045 A 
ATOM     13  N   UNL     1       2.188  -4.489  -2.831  0.00  0.00    -0.367 N 
ATOM     14  H   UNL     1       2.106  -5.423  -3.076  0.00  0.00    +0.161 HD
BRANCH   5  15
ATOM     15  C   UNL     1       4.238  -3.764  -3.934  0.00  0.00    +0.336 C 
ATOM     16  O   UNL     1       3.677  -3.576  -4.987  0.00  0.00    -0.248 OA
BRANCH  15  17
ATOM     17  O   UNL     1       5.563  -3.974  -3.907  0.00  0.00    -0.463 OA
BRANCH  17  19
ATOM     18  C   UNL     1       7.738  -4.217  -4.933  0.00  0.00    +0.048 C 
ATOM     19  C   UNL     1       6.247  -3.962  -5.162  0.00  0.00    +0.229 C 
ENDBRANCH  17  19
ENDBRANCH  15  17
ENDBRANCH   5  15
BRANCH   9  20
ATOM     20  O   UNL     1      -1.467  -0.566  -1.765  0.00  0.00    -0.495 OA
ATOM     21  C   UNL     1      -2.855  -0.897  -1.842  0.00  0.00    +0.277 C 
ENDBRANCH   9  20
ENDBRANCH   1   6
BRANCH   2  22
ATOM     22  C   UNL     1       6.167  -0.413  -1.520  0.00  0.00    +0.180 C 
BRANCH  22  23
ATOM     23  N   UNL     1       7.554  -0.895  -1.535  0.00  0.00    -0.291 NA
ATOM     24  C   UNL     1       7.761  -1.937  -0.520  0.00  0.00    +0.104 C 
ATOM     25  C   UNL     1       9.161  -2.538  -0.688  0.00  0.00    +0.120 C 
ATOM     26  N   UNL     1      10.145  -1.445  -0.667  0.00  0.00    -0.327 N 
ATOM     27  C   UNL     1       9.929  -0.298  -1.562  0.00  0.00    +0.120 C 
ATOM     28  C   UNL     1       8.499   0.215  -1.359  0.00  0.00    +0.104 C 
BRANCH  26  29
ATOM     29  C   UNL     1      11.254  -1.495   0.180  0.00  0.00    +0.030 A 
ATOM     30  C   UNL     1      11.382  -2.530   1.099  0.00  0.00    +0.025 A 
ATOM     31  C   UNL     1      12.481  -2.576   1.934  0.00  0.00    +0.034 A 
ATOM     32  C   UNL     1      13.452  -1.595   1.858  0.00  0.00    +0.126 A 
ATOM     33  C   UNL     1      13.327  -0.564   0.945  0.00  0.00    +0.034 A 
ATOM     34  C   UNL     1      12.234  -0.514   0.102  0.00  0.00    +0.025 A 
BRANCH  32  35
ATOM     35  N   UNL     1      14.627  -1.648   2.756  0.00  0.00    +0.056 N 
ATOM     36  O   UNL     1      14.738  -2.549   3.555  0.00  0.00    -0.126 OA
ATOM     37  O   UNL     1      15.477  -0.791   2.690  0.00  0.00    -0.126 OA
ENDBRANCH  32  35
ENDBRANCH  26  29
ENDBRANCH  22  23
ENDBRANCH   2  22
TORSDOF 9
