REMARK  Name = ZINC24174093
REMARK  7 active torsions:
REMARK  status: ('A' for Active; 'I' for Inactive)
REMARK    1  A    between atoms: C_1  and  N_2
REMARK    2  A    between atoms: N_2  and  C_3
REMARK    3  A    between atoms: C_3  and  C_4
REMARK    4  A    between atoms: C_15  and  C_17
REMARK    5  A    between atoms: C_17  and  S_18
REMARK    6  A    between atoms: S_18  and  C_19
REMARK    7  A    between atoms: C_25  and  C_30
REMARK                            x       y       z     vdW  Elec       q    Type
REMARK                         _______ _______ _______ _____ _____    ______ ____
ROOT
ATOM      1  C   UNL     1       1.167  10.687  -4.973  0.00  0.00    +0.170 A 
ATOM      2  N   UNL     1       1.034  11.314  -6.178  0.00  0.00    -0.301 N 
ATOM      3  H   UNL     1       0.053  11.346  -6.676  0.00  0.00    +0.171 HD
ATOM      4  C   UNL     1       2.085  11.902  -6.778  0.00  0.00    +0.261 A 
ATOM      5  O   UNL     1       1.948  12.462  -7.852  0.00  0.00    -0.267 OA
ATOM      6  C   UNL     1       3.365  11.855  -6.144  0.00  0.00    +0.080 A 
ATOM      7  C   UNL     1       4.638  12.406  -6.597  0.00  0.00    +0.004 A 
ATOM      8  C   UNL     1       5.734  12.237  -5.821  0.00  0.00    +0.056 A 
ATOM      9  S   UNL     1       5.114  11.320  -4.424  0.00  0.00    -0.076 S 
ATOM     10  C   UNL     1       3.413  11.185  -4.909  0.00  0.00    +0.117 A 
ATOM     11  N   UNL     1       2.335  10.630  -4.367  0.00  0.00    -0.216 NA
ENDROOT
BRANCH   7  12
ATOM     12  C   UNL     1       4.730  13.137  -7.883  0.00  0.00    -0.016 A 
ATOM     13  C   UNL     1       4.208  12.573  -9.047  0.00  0.00    +0.011 A 
ATOM     14  C   UNL     1       4.290  13.260 -10.241  0.00  0.00    +0.039 A 
ATOM     15  C   UNL     1       4.900  14.503 -10.287  0.00  0.00    +0.123 A 
ATOM     16  C   UNL     1       5.425  15.065  -9.134  0.00  0.00    +0.039 A 
ATOM     17  C   UNL     1       5.342  14.389  -7.934  0.00  0.00    +0.011 A 
ATOM     18  F   UNL     1       4.984  15.169 -11.459  0.00  0.00    -0.205 F 
ENDBRANCH   7  12
BRANCH   1  19
ATOM     19  S   UNL     1      -0.240   9.939  -4.221  0.00  0.00    -0.078 S 
BRANCH  19  20
ATOM     20  C   UNL     1       0.518   9.287  -2.713  0.00  0.00    +0.173 C 
BRANCH  20  23
ATOM     21  C   UNL     1       1.193   8.081  -0.239  0.00  0.00    +0.132 C 
ATOM     22  N   UNL     1      -0.191   8.015  -0.714  0.00  0.00    -0.300 N 
ATOM     23  C   UNL     1      -0.528   8.583  -1.888  0.00  0.00    +0.226 C 
ATOM     24  O   UNL     1      -1.675   8.528  -2.281  0.00  0.00    -0.275 OA
BRANCH  22  25
ATOM     25  C   UNL     1      -1.208   7.331   0.088  0.00  0.00    +0.155 C 
BRANCH  25  26
ATOM     26  C   UNL     1      -1.270   5.856  -0.315  0.00  0.00    +0.228 C 
ATOM     27  C   UNL     1      -2.417   5.163   0.432  0.00  0.00    +0.275 C 
ATOM     28  O   UNL     1      -2.437   3.785   0.043  0.00  0.00    -0.485 OA
ATOM     29  C   UNL     1      -1.241   3.136   0.031  0.00  0.00    +0.162 A 
ATOM     30  C   UNL     1      -1.219   1.749   0.017  0.00  0.00    +0.049 A 
ATOM     31  C   UNL     1      -0.013   1.076   0.008  0.00  0.00    +0.004 A 
ATOM     32  C   UNL     1       1.176   1.782   0.000  0.00  0.00    +0.004 A 
ATOM     33  C   UNL     1       1.161   3.164   0.009  0.00  0.00    +0.049 A 
ATOM     34  C   UNL     1      -0.046   3.846   0.026  0.00  0.00    +0.163 A 
ATOM     35  O   UNL     1      -0.045   5.207   0.043  0.00  0.00    -0.480 OA
ENDBRANCH  25  26
ENDBRANCH  22  25
ENDBRANCH  20  23
ENDBRANCH  19  20
ENDBRANCH   1  19
TORSDOF 6
