REMARK  Name = ZINC13494992
REMARK  11 active torsions:
REMARK  status: ('A' for Active; 'I' for Inactive)
REMARK    1  A    between atoms: C_1  and  C_2
REMARK    2  A    between atoms: C_2  and  C_3
REMARK    3  A    between atoms: C_3  and  C_5
REMARK    4  A    between atoms: C_3  and  N_18
REMARK    5  A    between atoms: N_9  and  C_10
REMARK    6  A    between atoms: C_10  and  C_11
REMARK    7  A    between atoms: N_18  and  C_19
REMARK    8  A    between atoms: N_18  and  C_27
REMARK    9  A    between atoms: C_19  and  C_20
REMARK   10  A    between atoms: C_27  and  C_28
REMARK   11  A    between atoms: C_32  and  C_40
REMARK                            x       y       z     vdW  Elec       q    Type
REMARK                         _______ _______ _______ _____ _____    ______ ____
ROOT
ATOM      1  N   UNL     1      -2.246   1.008  -1.444  0.00  0.00    -0.284 NA
ENDROOT
BRANCH   1   2
ATOM      2  C   UNL     1      -1.682  -0.284  -1.030  0.00  0.00    +0.127 C 
BRANCH   2   3
ATOM      3  C   UNL     1      -0.438  -0.569  -1.831  0.00  0.00    +0.169 A 
ATOM      4  N   UNL     1       0.427   0.312  -2.274  0.00  0.00    -0.112 NA
ATOM      5  N   UNL     1       1.349  -0.323  -2.911  0.00  0.00    -0.023 NA
ATOM      6  N   UNL     1       1.096  -1.585  -2.887  0.00  0.00    -0.044 NA
ATOM      7  N   UNL     1       0.005  -1.777  -2.225  0.00  0.00    -0.223 N 
BRANCH   7   8
ATOM      8  C   UNL     1      -0.633  -3.068  -1.956  0.00  0.00    +0.182 C 
BRANCH   8   9
ATOM      9  C   UNL     1      -1.598  -3.392  -3.067  0.00  0.00    -0.026 A 
ATOM     10  C   UNL     1      -2.915  -2.978  -2.981  0.00  0.00    +0.008 A 
ATOM     11  C   UNL     1      -3.801  -3.274  -4.000  0.00  0.00    +0.038 A 
ATOM     12  C   UNL     1      -3.370  -3.985  -5.107  0.00  0.00    +0.123 A 
ATOM     13  C   UNL     1      -2.051  -4.399  -5.192  0.00  0.00    +0.038 A 
ATOM     14  C   UNL     1      -1.166  -4.097  -4.175  0.00  0.00    +0.008 A 
ATOM     15  F   UNL     1      -4.235  -4.275  -6.103  0.00  0.00    -0.205 F 
ENDBRANCH   8   9
ENDBRANCH   7   8
ENDBRANCH   2   3
BRANCH   2  17
ATOM     16  C   UNL     1      -2.615  -0.137   1.283  0.00  0.00    +0.006 C 
ATOM     17  C   UNL     1      -1.330  -0.233   0.458  0.00  0.00    +0.023 C 
ENDBRANCH   2  17
ENDBRANCH   1   2
BRANCH   1  18
ATOM     18  C   UNL     1      -2.437   1.056  -2.900  0.00  0.00    +0.120 C 
BRANCH  18  19
ATOM     19  C   UNL     1      -3.367   2.190  -3.247  0.00  0.00    -0.033 A 
ATOM     20  C   UNL     1      -4.736   2.010  -3.168  0.00  0.00    +0.008 A 
ATOM     21  C   UNL     1      -5.589   3.049  -3.486  0.00  0.00    +0.038 A 
ATOM     22  C   UNL     1      -5.074   4.272  -3.883  0.00  0.00    +0.123 A 
ATOM     23  C   UNL     1      -3.703   4.451  -3.961  0.00  0.00    +0.038 A 
ATOM     24  C   UNL     1      -2.851   3.412  -3.638  0.00  0.00    +0.008 A 
ATOM     25  F   UNL     1      -5.907   5.288  -4.194  0.00  0.00    -0.205 F 
ENDBRANCH  18  19
ENDBRANCH   1  18
BRANCH   1  26
ATOM     26  C   UNL     1      -1.403   2.121  -0.987  0.00  0.00    +0.126 C 
BRANCH  26  27
ATOM     27  C   UNL     1      -1.890   2.601   0.356  0.00  0.00    +0.031 A 
ATOM     28  C   UNL     1      -1.049   2.598   1.420  0.00  0.00    +0.020 A 
ATOM     29  C   UNL     1      -1.553   3.071   2.711  0.00  0.00    -0.001 A 
ATOM     30  C   UNL     1      -0.733   3.092   3.844  0.00  0.00    +0.013 A 
ATOM     31  C   UNL     1      -1.234   3.539   5.034  0.00  0.00    -0.050 A 
ATOM     32  C   UNL     1      -2.549   3.973   5.128  0.00  0.00    +0.005 A 
ATOM     33  C   UNL     1      -3.375   3.961   4.025  0.00  0.00    +0.026 A 
ATOM     34  C   UNL     1      -2.887   3.510   2.803  0.00  0.00    +0.049 A 
ATOM     35  N   UNL     1      -3.691   3.488   1.683  0.00  0.00    -0.322 N 
ATOM     36  H   UNL     1      -4.610   3.791   1.748  0.00  0.00    +0.169 HD
ATOM     37  C   UNL     1      -3.218   3.057   0.501  0.00  0.00    +0.254 A 
ATOM     38  O   UNL     1      -3.955   3.056  -0.470  0.00  0.00    -0.268 OA
ATOM     39  C   UNL     1      -0.350   3.562   6.254  0.00  0.00    +0.044 C 
ENDBRANCH  26  27
ENDBRANCH   1  26
TORSDOF 9
