REMARK  Name = ZINC15317586
REMARK  8 active torsions:
REMARK  status: ('A' for Active; 'I' for Inactive)
REMARK    1  A    between atoms: C_1  and  C_2
REMARK    2  A    between atoms: C_4  and  C_31
REMARK    3  A    between atoms: C_6  and  S_8
REMARK    4  A    between atoms: S_8  and  C_9
REMARK    5  A    between atoms: C_9  and  C_10
REMARK    6  A    between atoms: C_13  and  C_16
REMARK    7  A    between atoms: N_18  and  N_19
REMARK    8  A    between atoms: C_20  and  C_22
REMARK                            x       y       z     vdW  Elec       q    Type
REMARK                         _______ _______ _______ _____ _____    ______ ____
ROOT
ATOM      1  C   UNL     1       7.336   5.217  -0.039  0.00  0.00    +0.260 C 
ATOM      2  O   UNL     1       6.653   6.223  -0.027  0.00  0.00    -0.269 OA
ATOM      3  N   UNL     1       6.748   4.004  -0.040  0.00  0.00    -0.230 N 
ATOM      4  H   UNL     1       7.293   3.201  -0.049  0.00  0.00    +0.173 HD
ENDROOT
BRANCH   1   8
ATOM      5  C   UNL     1      11.572   5.526  -0.076  0.00  0.00    -0.037 A 
ATOM      6  C   UNL     1      10.798   6.673  -0.063  0.00  0.00    +0.005 A 
ATOM      7  C   UNL     1       9.422   6.579  -0.051  0.00  0.00    +0.013 A 
ATOM      8  C   UNL     1       8.810   5.325  -0.052  0.00  0.00    +0.038 A 
ATOM      9  C   UNL     1       9.597   4.172  -0.059  0.00  0.00    +0.013 A 
ATOM     10  C   UNL     1      10.972   4.279  -0.077  0.00  0.00    +0.005 A 
BRANCH   5  11
ATOM     11  C   UNL     1      13.075   5.635  -0.089  0.00  0.00    +0.112 C 
BRANCH  11  12
ATOM     12  S   UNL     1      13.693   5.670   1.612  0.00  0.00    -0.081 S 
BRANCH  12  18
ATOM     13  C   UNL     1      17.637   5.976  -1.635  0.00  0.00    +0.066 C 
ATOM     14  C   UNL     1      17.151   5.933  -0.209  0.00  0.00    +0.043 A 
ATOM     15  C   UNL     1      18.053   5.992   0.842  0.00  0.00    +0.046 A 
ATOM     16  C   UNL     1      17.564   5.949   2.139  0.00  0.00    +0.043 A 
ATOM     17  N   UNL     1      16.259   5.853   2.333  0.00  0.00    -0.227 NA
ATOM     18  C   UNL     1      15.423   5.798   1.306  0.00  0.00    +0.189 A 
ATOM     19  N   UNL     1      15.859   5.832   0.055  0.00  0.00    -0.227 NA
ATOM     20  C   UNL     1      18.508   6.011   3.312  0.00  0.00    +0.066 C 
ENDBRANCH  12  18
ENDBRANCH  11  12
ENDBRANCH   5  11
ENDBRANCH   1   8
BRANCH   3  21
ATOM     21  N   UNL     1       5.351   3.902  -0.027  0.00  0.00    -0.228 N 
ATOM     22  C   UNL     1       4.764   2.689  -0.028  0.00  0.00    +0.295 C 
ATOM     23  O   UNL     1       5.447   1.683  -0.039  0.00  0.00    -0.265 OA
ATOM     24  H   UNL     1       4.806   4.705  -0.018  0.00  0.00    +0.173 HD
BRANCH  22  25
ATOM     25  C   UNL     1       3.298   2.583  -0.015  0.00  0.00    +0.192 A 
ATOM     26  C   UNL     1       2.599   1.418  -0.014  0.00  0.00    +0.063 A 
ATOM     27  C   UNL     1       1.186   1.794   0.000  0.00  0.00    +0.021 A 
ATOM     28  C   UNL     1      -0.013   1.076   0.008  0.00  0.00    +0.011 A 
ATOM     29  C   UNL     1      -1.203   1.746   0.017  0.00  0.00    +0.001 A 
ATOM     30  C   UNL     1      -1.229   3.134   0.030  0.00  0.00    +0.004 A 
ATOM     31  C   UNL     1      -0.058   3.860   0.023  0.00  0.00    +0.047 A 
ATOM     32  C   UNL     1       1.165   3.201   0.008  0.00  0.00    +0.136 A 
ATOM     33  O   UNL     1       2.443   3.627  -0.002  0.00  0.00    -0.450 OA
ENDBRANCH  22  25
ENDBRANCH   3  21
TORSDOF 6
