REMARK  Name = ZINC13053328
REMARK  7 active torsions:
REMARK  status: ('A' for Active; 'I' for Inactive)
REMARK    1  A    between atoms: C_1  and  C_2
REMARK    2  A    between atoms: C_10  and  C_12
REMARK    3  A    between atoms: C_12  and  S_13
REMARK    4  A    between atoms: S_13  and  C_14
REMARK    5  A    between atoms: C_18  and  C_32
REMARK    6  A    between atoms: N_24  and  C_25
REMARK    7  A    between atoms: C_25  and  C_26
REMARK                            x       y       z     vdW  Elec       q    Type
REMARK                         _______ _______ _______ _____ _____    ______ ____
ROOT
ATOM      1  C   UNL     1      -1.729  -0.334   0.017  0.00  0.00    +0.173 A 
ATOM      2  N   UNL     1      -2.558   0.681   0.030  0.00  0.00    -0.223 NA
ATOM      3  C   UNL     1      -3.899   0.500   0.042  0.00  0.00    +0.080 A 
ATOM      4  C   UNL     1      -4.782   1.584   0.056  0.00  0.00    +0.043 A 
ATOM      5  C   UNL     1      -6.151   1.349   0.067  0.00  0.00    +0.065 A 
ATOM      6  C   UNL     1      -6.648   0.040   0.064  0.00  0.00    +0.016 A 
ATOM      7  C   UNL     1      -5.795  -1.027   0.051  0.00  0.00    +0.016 A 
ATOM      8  C   UNL     1      -4.417  -0.815   0.040  0.00  0.00    +0.065 A 
ATOM      9  C   UNL     1      -3.463  -1.935   0.025  0.00  0.00    +0.262 A 
ATOM     10  O   UNL     1      -3.846  -3.090   0.022  0.00  0.00    -0.267 OA
ATOM     11  N   UNL     1      -2.144  -1.635   0.008  0.00  0.00    -0.285 N 
ENDROOT
BRANCH   5  12
ATOM     12  C   UNL     1      -7.091   2.491   0.082  0.00  0.00    +0.387 C 
ATOM     13  O   UNL     1      -6.665   3.629   0.084  0.00  0.00    -0.241 OA
ATOM     14  O   UNL     1      -8.420   2.270   0.093  0.00  0.00    -0.241 OA
ENDBRANCH   5  12
BRANCH   1  15
ATOM     15  S   UNL     1       0.002  -0.004   0.002  0.00  0.00    -0.081 S 
BRANCH  15  16
ATOM     16  C   UNL     1      -0.022   1.806   0.012  0.00  0.00    +0.133 C 
BRANCH  16  26
ATOM     17  C   UNL     1       6.014   4.315  -0.990  0.00  0.00    +0.064 C 
ATOM     18  C   UNL     1       5.280   3.703   0.175  0.00  0.00    +0.033 A 
ATOM     19  C   UNL     1       5.898   3.583   1.349  0.00  0.00    +0.070 A 
ATOM     20  S   UNL     1       4.632   2.823   2.353  0.00  0.00    -0.057 S 
ATOM     21  C   UNL     1       3.369   2.728   1.102  0.00  0.00    +0.180 A 
ATOM     22  N   UNL     1       3.984   3.276   0.008  0.00  0.00    -0.259 N 
ATOM     23  C   UNL     1       3.243   3.342  -1.138  0.00  0.00    +0.259 A 
ATOM     24  O   UNL     1       3.727   3.819  -2.152  0.00  0.00    -0.267 OA
ATOM     25  C   UNL     1       1.934   2.859  -1.149  0.00  0.00    +0.095 A 
ATOM     26  C   UNL     1       1.391   2.327   0.001  0.00  0.00    +0.059 A 
ATOM     27  N   UNL     1       2.140   2.278   1.100  0.00  0.00    -0.227 NA
ENDBRANCH  16  26
ENDBRANCH  15  16
ENDBRANCH   1  15
BRANCH  11  28
ATOM     28  C   UNL     1      -1.153  -2.713  -0.013  0.00  0.00    +0.159 C 
BRANCH  28  29
ATOM     29  C   UNL     1      -0.793  -3.103   1.422  0.00  0.00    +0.138 C 
ATOM     30  C   UNL     1       0.334  -4.158   1.411  0.00  0.00    +0.035 C 
ATOM     31  C   UNL     1      -0.095  -5.111   2.560  0.00  0.00    +0.031 C 
ATOM     32  C   UNL     1      -1.638  -5.048   2.433  0.00  0.00    +0.160 C 
ATOM     33  O   UNL     1      -1.930  -3.691   2.066  0.00  0.00    -0.375 OA
ENDBRANCH  28  29
ENDBRANCH  11  28
TORSDOF 6
