REMARK  Name = ZINC12549904
REMARK  6 active torsions:
REMARK  status: ('A' for Active; 'I' for Inactive)
REMARK    1  A    between atoms: C_4  and  N_7
REMARK    2  A    between atoms: C_11  and  S_12
REMARK    3  A    between atoms: S_12  and  C_13
REMARK    4  A    between atoms: C_16  and  S_22
REMARK    5  A    between atoms: C_18  and  N_19
REMARK    6  A    between atoms: S_22  and  N_25
REMARK                            x       y       z     vdW  Elec       q    Type
REMARK                         _______ _______ _______ _____ _____    ______ ____
ROOT
ATOM      1  C   UNL     1       1.241  -0.709   0.291  0.00  0.00    +0.046 A 
ATOM      2  C   UNL     1       0.892   0.182  -0.718  0.00  0.00    +0.019 A 
ATOM      3  C   UNL     1       0.890   1.539  -0.467  0.00  0.00    +0.030 A 
ATOM      4  C   UNL     1       1.234   2.014   0.786  0.00  0.00    +0.108 A 
ATOM      5  C   UNL     1       1.581   1.131   1.792  0.00  0.00    +0.062 A 
ATOM      6  C   UNL     1       1.586  -0.229   1.548  0.00  0.00    +0.142 A 
ENDROOT
BRANCH   6   7
ATOM      7  N   UNL     1       1.957  -1.173   2.626  0.00  0.00    +0.058 N 
ATOM      8  O   UNL     1       2.259  -0.751   3.728  0.00  0.00    -0.126 OA
ATOM      9  O   UNL     1       1.961  -2.372   2.411  0.00  0.00    -0.126 OA
ENDBRANCH   6   7
BRANCH   4  10
ATOM     10  S   UNL     1       1.230   3.748   1.101  0.00  0.00    +0.061 S 
ATOM     11  O   UNL     1       0.343   4.330   0.156  0.00  0.00    -0.153 OA
ATOM     12  O   UNL     1       1.061   3.905   2.502  0.00  0.00    -0.153 OA
BRANCH  10  13
ATOM     13  N   UNL     1       2.744   4.314   0.740  0.00  0.00    -0.172 NA
ATOM     14  C   UNL     1       3.799   4.364   1.765  0.00  0.00    +0.137 C 
ATOM     15  C   UNL     1       5.055   3.688   1.193  0.00  0.00    +0.177 C 
ATOM     16  O   UNL     1       5.371   4.278  -0.070  0.00  0.00    -0.377 OA
ATOM     17  C   UNL     1       4.363   4.097  -1.068  0.00  0.00    +0.177 C 
ATOM     18  C   UNL     1       3.073   4.788  -0.614  0.00  0.00    +0.137 C 
ENDBRANCH  10  13
ENDBRANCH   4  10
BRANCH   1  19
ATOM     19  S   UNL     1       1.244  -2.442  -0.024  0.00  0.00    -0.049 S 
BRANCH  19  24
ATOM     20  N   UNL     1       3.579  -3.935  -0.353  0.00  0.00    -0.291 N 
ATOM     21  C   UNL     1       4.926  -3.698  -0.444  0.00  0.00    +0.047 A 
ATOM     22  C   UNL     1       5.106  -2.367  -0.337  0.00  0.00    +0.064 A 
ATOM     23  N   UNL     1       3.907  -1.791  -0.191  0.00  0.00    -0.226 NA
ATOM     24  C   UNL     1       2.976  -2.719  -0.193  0.00  0.00    +0.179 A 
ATOM     25  C   UNL     1       6.456  -1.692  -0.387  0.00  0.00    +0.057 C 
ATOM     26  C   UNL     1       7.537  -2.753  -0.152  0.00  0.00    +0.007 C 
ATOM     27  C   UNL     1       7.295  -3.945  -1.083  0.00  0.00    +0.007 C 
ATOM     28  C   UNL     1       6.038  -4.698  -0.630  0.00  0.00    +0.056 C 
BRANCH  20  32
ATOM     29  C   UNL     1       1.687  -7.645  -0.532  0.00  0.00    +0.000 A 
ATOM     30  C   UNL     1       1.461  -6.706  -1.523  0.00  0.00    +0.002 A 
ATOM     31  C   UNL     1       2.086  -5.476  -1.466  0.00  0.00    +0.026 A 
ATOM     32  C   UNL     1       2.943  -5.183  -0.414  0.00  0.00    +0.049 A 
ATOM     33  C   UNL     1       3.172  -6.129   0.576  0.00  0.00    +0.026 A 
ATOM     34  C   UNL     1       2.539  -7.355   0.517  0.00  0.00    +0.002 A 
ENDBRANCH  20  32
ENDBRANCH  19  24
ENDBRANCH   1  19
TORSDOF 6
