REMARK  Name = ZINC34869938
REMARK  14 active torsions:
REMARK  status: ('A' for Active; 'I' for Inactive)
REMARK    1  A    between atoms: C_1  and  C_2
REMARK    2  A    between atoms: C_7  and  N_8
REMARK    3  A    between atoms: C_9  and  N_20
REMARK    4  A    between atoms: C_10  and  C_14
REMARK    5  A    between atoms: C_11  and  C_13
REMARK    6  A    between atoms: C_21  and  C_23
REMARK    7  A    between atoms: C_23  and  N_24
REMARK    8  A    between atoms: N_24  and  C_25
REMARK    9  A    between atoms: C_25  and  C_26
REMARK   10  A    between atoms: C_26  and  C_27
REMARK   11  A    between atoms: C_26  and  C_28
REMARK   12  A    between atoms: N_31  and  C_32
REMARK   13  A    between atoms: C_36  and  C_39
REMARK   14  A    between atoms: C_37  and  C_38
REMARK                            x       y       z     vdW  Elec       q    Type
REMARK                         _______ _______ _______ _____ _____    ______ ____
ROOT
ATOM      1  N   UNL     1       0.545  -1.587   4.036  0.00  0.00    -0.268 N 
ATOM      2  C   UNL     1       0.589  -2.607   3.158  0.00  0.00    +0.236 C 
ATOM      3  O   UNL     1       0.478  -2.390   1.969  0.00  0.00    -0.274 OA
ATOM      4  H   UNL     1       0.584  -1.764   4.989  0.00  0.00    +0.156 HD
ENDROOT
BRANCH   1   6
ATOM      5  N   UNL     1       0.991   0.224   2.437  0.00  0.00    -0.217 N 
ATOM      6  C   UNL     1       0.443  -0.277   3.577  0.00  0.00    +0.137 A 
ATOM      7  C   UNL     1      -0.234   0.760   4.193  0.00  0.00    +0.045 A 
ATOM      8  C   UNL     1      -0.075   1.903   3.386  0.00  0.00    +0.070 A 
ATOM      9  N   UNL     1       0.655   1.580   2.351  0.00  0.00    -0.169 NA
ATOM     10  C   UNL     1      -0.645   3.268   3.670  0.00  0.00    +0.068 C 
BRANCH   5  17
ATOM     11  C   UNL     1       0.445   0.580  -0.334  0.00  0.00    +0.046 C 
ATOM     12  C   UNL     1       1.529  -0.347   0.151  0.00  0.00    -0.025 A 
ATOM     13  C   UNL     1       2.296  -1.050  -0.758  0.00  0.00    +0.005 A 
ATOM     14  C   UNL     1       3.291  -1.901  -0.315  0.00  0.00    +0.000 A 
ATOM     15  C   UNL     1       3.522  -2.052   1.041  0.00  0.00    +0.002 A 
ATOM     16  C   UNL     1       2.759  -1.353   1.955  0.00  0.00    +0.028 A 
ATOM     17  C   UNL     1       1.763  -0.492   1.512  0.00  0.00    +0.070 A 
ENDBRANCH   5  17
BRANCH   7  18
ATOM     18  C   UNL     1      -0.987   0.682   5.468  0.00  0.00    -0.013 A 
ATOM     19  C   UNL     1      -2.126  -0.116   5.560  0.00  0.00    +0.008 A 
ATOM     20  C   UNL     1      -2.824  -0.185   6.748  0.00  0.00    +0.001 A 
ATOM     21  C   UNL     1      -2.395   0.537   7.848  0.00  0.00    +0.000 A 
ATOM     22  C   UNL     1      -1.265   1.331   7.763  0.00  0.00    +0.001 A 
ATOM     23  C   UNL     1      -0.556   1.402   6.581  0.00  0.00    +0.008 A 
ENDBRANCH   7  18
ENDBRANCH   1   6
BRANCH   2  24
ATOM     24  C   UNL     1       0.778  -4.019   3.651  0.00  0.00    +0.205 C 
BRANCH  24  25
ATOM     25  N   UNL     1       0.792  -4.938   2.510  0.00  0.00    -0.276 N 
ATOM     26  C   UNL     1      -0.359  -5.485   2.071  0.00  0.00    +0.307 C 
ATOM     27  O   UNL     1      -1.409  -5.215   2.622  0.00  0.00    -0.252 OA
ATOM     28  N   UNL     1      -0.346  -6.330   1.022  0.00  0.00    -0.269 N 
ATOM     29  H   UNL     1       0.496  -6.584   0.614  0.00  0.00    +0.156 HD
BRANCH  28  30
ATOM     30  C   UNL     1      -1.549  -6.840   0.520  0.00  0.00    +0.038 A 
ATOM     31  C   UNL     1      -2.651  -6.973   1.354  0.00  0.00    +0.023 A 
ATOM     32  C   UNL     1      -3.836  -7.476   0.856  0.00  0.00    +0.002 A 
ATOM     33  C   UNL     1      -3.926  -7.850  -0.473  0.00  0.00    +0.004 A 
ATOM     34  C   UNL     1      -2.831  -7.720  -1.306  0.00  0.00    -0.046 A 
ATOM     35  C   UNL     1      -1.644  -7.210  -0.815  0.00  0.00    -0.026 A 
ATOM     36  C   UNL     1      -0.453  -7.063  -1.726  0.00  0.00    +0.046 C 
ATOM     37  C   UNL     1      -2.933  -8.128  -2.753  0.00  0.00    +0.044 C 
ENDBRANCH  28  30
BRANCH  25  38
ATOM     38  C   UNL     1       2.057  -5.262   1.846  0.00  0.00    +0.113 C 
BRANCH  38  39
ATOM     39  C   UNL     1       2.683  -6.488   2.514  0.00  0.00    +0.000 C 
ATOM     40  C   UNL     1       1.785  -7.706   2.289  0.00  0.00    +0.009 C 
ATOM     41  C   UNL     1       4.062  -6.752   1.904  0.00  0.00    +0.009 C 
ENDBRANCH  38  39
ENDBRANCH  25  38
ENDBRANCH  24  25
ENDBRANCH   2  24
TORSDOF 8
