REMARK  Name = ZINC63490993
REMARK  10 active torsions:
REMARK  status: ('A' for Active; 'I' for Inactive)
REMARK    1  A    between atoms: C_1  and  C_2
REMARK    2  A    between atoms: C_2  and  O_3
REMARK    3  A    between atoms: O_3  and  C_4
REMARK    4  A    between atoms: C_6  and  C_24
REMARK    5  A    between atoms: C_9  and  O_10
REMARK    6  A    between atoms: O_10  and  C_11
REMARK    7  A    between atoms: C_11  and  C_12
REMARK    8  A    between atoms: C_21  and  C_23
REMARK    9  A    between atoms: C_25  and  C_26
REMARK   10  A    between atoms: C_25  and  C_28
REMARK                            x       y       z     vdW  Elec       q    Type
REMARK                         _______ _______ _______ _____ _____    ______ ____
ROOT
ATOM      1  C   UNL     1       1.262  -2.043  -1.397  0.00  0.00    +0.162 A 
ATOM      2  C   UNL     1       0.508  -2.778  -0.502  0.00  0.00    +0.057 A 
ATOM      3  C   UNL     1       0.590  -4.175  -0.506  0.00  0.00    -0.020 A 
ATOM      4  C   UNL     1       1.435  -4.820  -1.417  0.00  0.00    +0.012 A 
ATOM      5  C   UNL     1       2.183  -4.079  -2.305  0.00  0.00    +0.050 A 
ATOM      6  C   UNL     1       2.097  -2.693  -2.304  0.00  0.00    +0.162 A 
ENDROOT
BRANCH   3   7
ATOM      7  C   UNL     1      -0.209  -4.963   0.443  0.00  0.00    +0.026 C 
ATOM      8  C   UNL     1      -0.750  -6.138   0.058  0.00  0.00    +0.072 C 
BRANCH   8   9
ATOM      9  C   UNL     1      -1.428  -7.024   1.071  0.00  0.00    +0.216 C 
ATOM     10  N   UNL     1      -0.803  -8.352   1.079  0.00  0.00    -0.359 N 
ATOM     11  C   UNL     1      -1.720  -9.217   0.755  0.00  0.00    +0.060 A 
ATOM     12  C   UNL     1      -1.703 -10.678   0.597  0.00  0.00    +0.027 A 
ATOM     13  C   UNL     1      -2.834 -11.322   0.244  0.00  0.00    +0.002 A 
ATOM     14  C   UNL     1      -4.049 -10.651   0.017  0.00  0.00    +0.002 A 
ATOM     15  C   UNL     1      -4.173  -9.313   0.134  0.00  0.00    +0.027 A 
ATOM     16  C   UNL     1      -3.005  -8.507   0.515  0.00  0.00    +0.060 A 
ATOM     17  N   UNL     1      -2.834  -7.230   0.700  0.00  0.00    -0.359 N 
ATOM     18  H   UNL     1       0.124  -8.549   1.287  0.00  0.00    +0.162 HD
ATOM     19  H   UNL     1      -3.510  -6.541   0.609  0.00  0.00    +0.162 HD
ENDBRANCH   8   9
BRANCH   8  20
ATOM     20  C   UNL     1      -0.679  -6.543  -1.314  0.00  0.00    +0.099 C 
ATOM     21  N   UNL     1      -0.623  -6.865  -2.402  0.00  0.00    -0.191 NA
ENDBRANCH   8  20
ENDBRANCH   3   7
BRANCH   1  22
ATOM     22  O   UNL     1       1.185  -0.685  -1.396  0.00  0.00    -0.489 OA
BRANCH  22  24
ATOM     23  C   UNL     1       0.355   1.436  -0.589  0.00  0.00    +0.048 C 
ATOM     24  C   UNL     1       0.309  -0.086  -0.439  0.00  0.00    +0.226 C 
ENDBRANCH  22  24
ENDBRANCH   1  22
BRANCH   6  25
ATOM     25  O   UNL     1       2.833  -1.968  -3.186  0.00  0.00    -0.482 OA
BRANCH  25  26
ATOM     26  C   UNL     1       3.668  -2.697  -4.088  0.00  0.00    +0.279 C 
BRANCH  26  27
ATOM     27  C   UNL     1       4.403  -1.733  -4.984  0.00  0.00    +0.049 C 
ATOM     28  N   UNL     1       5.267  -2.206  -5.944  0.00  0.00    -0.316 N 
ATOM     29  C   UNL     1       6.407  -1.351  -6.303  0.00  0.00    +0.250 C 
ATOM     30  N   UNL     1       5.848   0.018  -6.524  0.00  0.00    -0.158 N 
ATOM     31  C   UNL     1       4.896   0.510  -5.689  0.00  0.00    +0.263 C 
ATOM     32  O   UNL     1       4.636   1.700  -5.664  0.00  0.00    -0.269 OA
ATOM     33  C   UNL     1       4.210  -0.404  -4.849  0.00  0.00    +0.091 C 
ATOM     34  N   UNL     1       6.346   0.632  -7.657  0.00  0.00    -0.173 NA
ATOM     35  C   UNL     1       6.957  -0.014  -8.601  0.00  0.00    +0.093 C 
ATOM     36  S   UNL     1       6.943  -1.734  -8.021  0.00  0.00    -0.065 S 
ATOM     37  C   UNL     1       7.555   0.533  -9.871  0.00  0.00    +0.075 C 
ATOM     38  H   UNL     1       5.130  -3.068  -6.367  0.00  0.00    +0.148 HD
ENDBRANCH  26  27
ENDBRANCH  25  26
ENDBRANCH   6  25
TORSDOF 8
