REMARK  Name = ZINC44714100
REMARK  10 active torsions:
REMARK  status: ('A' for Active; 'I' for Inactive)
REMARK    1  A    between atoms: C_1  and  C_2
REMARK    2  A    between atoms: C_4  and  C_7
REMARK    3  A    between atoms: C_8  and  C_13
REMARK    4  A    between atoms: C_9  and  C_12
REMARK    5  A    between atoms: C_17  and  C_26
REMARK    6  A    between atoms: N_28  and  C_29
REMARK    7  A    between atoms: C_29  and  C_31
REMARK    8  A    between atoms: C_29  and  C_32
REMARK    9  A    between atoms: C_33  and  C_39
REMARK   10  A    between atoms: C_37  and  C_38
REMARK                            x       y       z     vdW  Elec       q    Type
REMARK                         _______ _______ _______ _____ _____    ______ ____
ROOT
ATOM      1  C   UNL     1       0.331  -4.816   0.308  0.00  0.00    +0.252 C 
ATOM      2  O   UNL     1      -0.765  -4.304   0.426  0.00  0.00    -0.270 OA
ATOM      3  N   UNL     1       0.791  -5.149  -0.915  0.00  0.00    -0.296 N 
ATOM      4  C   UNL     1       0.079  -5.050  -2.211  0.00  0.00    +0.121 C 
ATOM      5  C   UNL     1       1.152  -4.565  -3.210  0.00  0.00    +0.100 C 
ATOM      6  C   UNL     1       2.491  -4.994  -2.587  0.00  0.00    -0.004 C 
ATOM      7  C   UNL     1       2.125  -5.691  -1.268  0.00  0.00    +0.115 C 
ATOM      8  C   UNL     1       3.219  -5.963  -3.513  0.00  0.00    -0.010 C 
ATOM      9  C   UNL     1       4.573  -6.329  -2.898  0.00  0.00    -0.082 C 
ATOM     10  N   UNL     1       5.371  -5.112  -2.706  0.00  0.00    +0.379 N 
ATOM     11  C   UNL     1       4.707  -4.226  -1.742  0.00  0.00    -0.082 C 
ATOM     12  C   UNL     1       3.359  -3.771  -2.307  0.00  0.00    -0.010 C 
ATOM     13  H   UNL     1       6.285  -5.362  -2.358  0.00  0.00    -0.086 HD
ATOM     14  H   UNL     1       5.470  -4.633  -3.588  0.00  0.00    -0.086 HD
ENDROOT
BRANCH   1  16
ATOM     15  C   UNL     1       1.228  -6.264   2.210  0.00  0.00    +0.201 A 
ATOM     16  C   UNL     1       1.157  -5.074   1.500  0.00  0.00    +0.108 A 
ATOM     17  C   UNL     1       2.027  -4.153   2.134  0.00  0.00    +0.093 A 
ATOM     18  N   UNL     1       2.577  -4.749   3.149  0.00  0.00    -0.082 NA
ATOM     19  O   UNL     1       2.088  -6.075   3.223  0.00  0.00    -0.352 OA
ATOM     20  C   UNL     1       2.272  -2.729   1.706  0.00  0.00    +0.070 C 
BRANCH  15  24
ATOM     21  C   UNL     1      -0.594 -10.985   2.580  0.00  0.00    +0.089 C 
ATOM     22  C   UNL     1      -0.307  -9.590   2.088  0.00  0.00    +0.135 A 
ATOM     23  C   UNL     1       0.485  -8.689   2.695  0.00  0.00    +0.079 A 
ATOM     24  C   UNL     1       0.487  -7.508   1.910  0.00  0.00    +0.152 A 
ATOM     25  N   UNL     1      -0.287  -7.718   0.871  0.00  0.00    -0.075 NA
ATOM     26  O   UNL     1      -0.794  -9.036   0.967  0.00  0.00    -0.359 OA
ENDBRANCH  15  24
ENDBRANCH   1  16
BRANCH   5  27
ATOM     27  C   UNL     1       1.095  -3.066  -3.356  0.00  0.00    +0.219 C 
ATOM     28  O   UNL     1       0.781  -2.376  -2.409  0.00  0.00    -0.275 OA
ATOM     29  N   UNL     1       1.391  -2.492  -4.539  0.00  0.00    -0.308 N 
ATOM     30  H   UNL     1       1.568  -3.045  -5.316  0.00  0.00    +0.149 HD
BRANCH  29  31
ATOM     31  C   UNL     1       1.448  -1.032  -4.651  0.00  0.00    +0.104 C 
ATOM     32  C   UNL     1       2.852  -0.547  -4.282  0.00  0.00    +0.033 C 
BRANCH  31  33
ATOM     33  C   UNL     1       1.131  -0.625  -6.066  0.00  0.00    +0.015 A 
ATOM     34  C   UNL     1       0.290   0.367  -6.440  0.00  0.00    +0.038 A 
ATOM     35  N   UNL     1       0.281   0.413  -7.788  0.00  0.00    -0.281 N 
ATOM     36  H   UNL     1      -0.232   1.028  -8.335  0.00  0.00    +0.189 HD
ATOM     37  N   UNL     1       1.146  -0.583  -8.259  0.00  0.00    -0.179 NA
ATOM     38  C   UNL     1       1.660  -1.200  -7.226  0.00  0.00    +0.065 A 
ATOM     39  C   UNL     1       2.646  -2.338  -7.278  0.00  0.00    +0.068 C 
ATOM     40  C   UNL     1      -0.497   1.260  -5.515  0.00  0.00    +0.065 C 
ENDBRANCH  31  33
ENDBRANCH  29  31
ENDBRANCH   5  27
TORSDOF 5
