REMARK  Name = ZINC12867084
REMARK  15 active torsions:
REMARK  status: ('A' for Active; 'I' for Inactive)
REMARK    1  A    between atoms: C_1  and  C_2
REMARK    2  A    between atoms: C_2  and  C_3
REMARK    3  A    between atoms: C_3  and  C_4
REMARK    4  A    between atoms: C_4  and  N_5
REMARK    5  A    between atoms: C_6  and  N_40
REMARK    6  A    between atoms: C_7  and  N_14
REMARK    7  A    between atoms: N_14  and  C_15
REMARK    8  A    between atoms: C_15  and  C_16
REMARK    9  A    between atoms: C_16  and  C_17
REMARK   10  A    between atoms: C_16  and  C_18
REMARK   11  A    between atoms: C_19  and  C_21
REMARK   12  A    between atoms: C_24  and  S_27
REMARK   13  A    between atoms: S_27  and  N_30
REMARK   14  A    between atoms: C_32  and  C_39
REMARK   15  A    between atoms: C_35  and  C_38
REMARK                            x       y       z     vdW  Elec       q    Type
REMARK                         _______ _______ _______ _____ _____    ______ ____
ROOT
ATOM      1  N   UNL     1      -0.342  -2.942  -2.695  0.00  0.00    -0.260 N 
ATOM      2  C   UNL     1       0.080  -2.357  -3.833  0.00  0.00    +0.251 C 
ATOM      3  O   UNL     1       0.707  -3.001  -4.653  0.00  0.00    -0.270 OA
ENDROOT
BRANCH   1   6
ATOM      4  N   UNL     1      -1.071  -1.288   0.503  0.00  0.00    -0.280 N 
ATOM      5  C   UNL     1      -0.421  -2.041  -0.447  0.00  0.00    +0.127 A 
ATOM      6  C   UNL     1      -0.981  -2.173  -1.702  0.00  0.00    +0.140 A 
ATOM      7  C   UNL     1      -2.199  -1.521  -1.973  0.00  0.00    +0.277 A 
ATOM      8  O   UNL     1      -2.714  -1.617  -3.075  0.00  0.00    -0.266 OA
ATOM      9  N   UNL     1      -2.792  -0.791  -1.008  0.00  0.00    -0.273 N 
ATOM     10  H   UNL     1      -3.658  -0.328  -1.200  0.00  0.00    +0.173 HD
ATOM     11  C   UNL     1      -2.234  -0.678   0.210  0.00  0.00    +0.331 A 
ATOM     12  O   UNL     1      -2.791  -0.013   1.062  0.00  0.00    -0.246 OA
BRANCH   5  13
ATOM     13  N   UNL     1       0.770  -2.659  -0.149  0.00  0.00    -0.343 N 
ATOM     14  H   UNL     1       1.110  -2.645   0.759  0.00  0.00    +0.144 HD
ATOM     15  H   UNL     1       1.271  -3.108  -0.848  0.00  0.00    +0.144 HD
ENDBRANCH   5  13
BRANCH   4  16
ATOM     16  C   UNL     1      -0.490  -1.144   1.840  0.00  0.00    +0.128 C 
BRANCH  16  17
ATOM     17  C   UNL     1      -1.011  -2.262   2.745  0.00  0.00    +0.021 C 
BRANCH  17  19
ATOM     18  C   UNL     1      -0.926  -3.230   5.047  0.00  0.00    +0.004 C 
ATOM     19  C   UNL     1      -0.405  -2.112   4.142  0.00  0.00    -0.002 C 
ENDBRANCH  17  19
ENDBRANCH  16  17
ENDBRANCH   4  16
ENDBRANCH   1   6
BRANCH   2  20
ATOM     20  C   UNL     1      -0.217  -0.931  -4.085  0.00  0.00    +0.037 A 
ATOM     21  C   UNL     1      -0.404  -0.054  -3.016  0.00  0.00    +0.015 A 
ATOM     22  C   UNL     1      -0.676   1.277  -3.258  0.00  0.00    +0.029 A 
ATOM     23  C   UNL     1      -0.775   1.740  -4.558  0.00  0.00    +0.106 A 
ATOM     24  C   UNL     1      -0.597   0.875  -5.623  0.00  0.00    +0.029 A 
ATOM     25  C   UNL     1      -0.318  -0.457  -5.394  0.00  0.00    +0.015 A 
BRANCH  23  26
ATOM     26  S   UNL     1      -1.130   3.439  -4.859  0.00  0.00    +0.061 S 
ATOM     27  O   UNL     1      -0.714   4.152  -3.702  0.00  0.00    -0.153 OA
ATOM     28  O   UNL     1      -0.631   3.735  -6.156  0.00  0.00    -0.153 OA
BRANCH  26  29
ATOM     29  N   UNL     1      -2.777   3.589  -4.940  0.00  0.00    -0.172 NA
ATOM     30  C   UNL     1      -3.488   3.452  -6.221  0.00  0.00    +0.140 C 
ATOM     31  C   UNL     1      -4.636   2.449  -6.027  0.00  0.00    +0.131 C 
ATOM     32  O   UNL     1      -5.425   2.849  -4.904  0.00  0.00    -0.371 OA
ATOM     33  C   UNL     1      -4.716   2.850  -3.662  0.00  0.00    +0.131 C 
ATOM     34  C   UNL     1      -3.573   3.868  -3.734  0.00  0.00    +0.140 C 
ATOM     35  C   UNL     1      -5.671   3.232  -2.529  0.00  0.00    +0.039 C 
ATOM     36  C   UNL     1      -4.063   1.052  -5.777  0.00  0.00    +0.039 C 
ENDBRANCH  26  29
ENDBRANCH  23  26
ENDBRANCH   2  20
BRANCH   1  37
ATOM     37  C   UNL     1      -0.138  -4.378  -2.491  0.00  0.00    +0.117 C 
BRANCH  37  38
ATOM     38  C   UNL     1      -1.401  -5.137  -2.902  0.00  0.00    +0.001 C 
ATOM     39  C   UNL     1      -1.620  -4.986  -4.409  0.00  0.00    +0.009 C 
ATOM     40  C   UNL     1      -1.241  -6.619  -2.557  0.00  0.00    +0.009 C 
ENDBRANCH  37  38
ENDBRANCH   1  37
TORSDOF 10
