REMARK  Name = ZINC65305183
REMARK  8 active torsions:
REMARK  status: ('A' for Active; 'I' for Inactive)
REMARK    1  A    between atoms: C_1  and  C_2
REMARK    2  A    between atoms: C_2  and  C_3
REMARK    3  A    between atoms: C_2  and  C_4
REMARK    4  A    between atoms: C_4  and  C_5
REMARK    5  A    between atoms: C_5  and  N_6
REMARK    6  A    between atoms: N_17  and  C_20
REMARK    7  A    between atoms: C_20  and  C_21
REMARK    8  A    between atoms: N_23  and  C_24
REMARK                            x       y       z     vdW  Elec       q    Type
REMARK                         _______ _______ _______ _____ _____    ______ ____
ROOT
ATOM      1  N   UNL     1      -2.764  -2.542  -0.113  0.00  0.00    -0.276 N 
ATOM      2  C   UNL     1      -3.349  -2.875   1.057  0.00  0.00    +0.270 A 
ATOM      3  O   UNL     1      -2.739  -2.747   2.104  0.00  0.00    -0.266 OA
ATOM      4  C   UNL     1      -4.660  -3.368   1.062  0.00  0.00    +0.101 A 
ATOM      5  C   UNL     1      -5.393  -3.529  -0.114  0.00  0.00    +0.074 A 
ATOM      6  C   UNL     1      -6.676  -4.031   0.089  0.00  0.00    +0.035 A 
ATOM      7  C   UNL     1      -7.095  -4.309   1.343  0.00  0.00    +0.048 A 
ATOM      8  S   UNL     1      -5.786  -3.912   2.319  0.00  0.00    -0.090 S 
ATOM      9  N   UNL     1      -4.750  -3.172  -1.314  0.00  0.00    -0.228 N 
ATOM     10  C   UNL     1      -3.466  -2.684  -1.303  0.00  0.00    +0.240 A 
ATOM     11  N   UNL     1      -3.112  -2.425  -2.533  0.00  0.00    -0.129 NA
ATOM     12  N   UNL     1      -4.188  -2.744  -3.372  0.00  0.00    -0.202 N 
ATOM     13  C   UNL     1      -5.184  -3.212  -2.590  0.00  0.00    +0.353 A 
ATOM     14  O   UNL     1      -6.280  -3.588  -2.967  0.00  0.00    -0.244 OA
ENDROOT
BRANCH   1  15
ATOM     15  C   UNL     1      -1.393  -2.025  -0.127  0.00  0.00    +0.128 C 
BRANCH  15  16
ATOM     16  C   UNL     1      -1.422  -0.500   0.005  0.00  0.00    +0.025 C 
BRANCH  16  18
ATOM     17  C   UNL     1      -0.022   1.569  -0.003  0.00  0.00    +0.007 C 
ATOM     18  C   UNL     1       0.010   0.040  -0.010  0.00  0.00    -0.016 C 
ATOM     19  C   UNL     1       0.756  -0.460   1.229  0.00  0.00    +0.007 C 
ENDBRANCH  16  18
ENDBRANCH  15  16
ENDBRANCH   1  15
BRANCH  12  20
ATOM     20  C   UNL     1      -4.221  -2.607  -4.830  0.00  0.00    +0.245 C 
BRANCH  20  21
ATOM     21  C   UNL     1      -4.729  -1.236  -5.194  0.00  0.00    +0.239 C 
ATOM     22  O   UNL     1      -5.034  -0.451  -4.322  0.00  0.00    -0.273 OA
ATOM     23  N   UNL     1      -4.846  -0.882  -6.490  0.00  0.00    -0.283 N 
ATOM     24  H   UNL     1      -4.541  -1.485  -7.186  0.00  0.00    +0.155 HD
BRANCH  23  25
ATOM     25  C   UNL     1      -5.406   0.354  -6.830  0.00  0.00    +0.047 A 
ATOM     26  C   UNL     1      -5.194   1.461  -6.019  0.00  0.00    +0.024 A 
ATOM     27  C   UNL     1      -5.747   2.680  -6.357  0.00  0.00    +0.002 A 
ATOM     28  C   UNL     1      -6.513   2.800  -7.503  0.00  0.00    +0.001 A 
ATOM     29  C   UNL     1      -6.727   1.700  -8.313  0.00  0.00    +0.017 A 
ATOM     30  C   UNL     1      -6.171   0.478  -7.983  0.00  0.00    +0.039 A 
ATOM     31 BR   UNL     1      -6.457  -1.024  -9.096  0.00  0.00    -0.048 Br
ENDBRANCH  23  25
ENDBRANCH  20  21
ENDBRANCH  12  20
TORSDOF 6
