REMARK  Name = ZINC13506391
REMARK  10 active torsions:
REMARK  status: ('A' for Active; 'I' for Inactive)
REMARK    1  A    between atoms: C_1  and  C_2
REMARK    2  A    between atoms: C_5  and  C_7
REMARK    3  A    between atoms: C_7  and  C_9
REMARK    4  A    between atoms: C_7  and  N_18
REMARK    5  A    between atoms: N_11  and  C_12
REMARK    6  A    between atoms: N_18  and  C_19
REMARK    7  A    between atoms: C_19  and  C_20
REMARK    8  A    between atoms: C_25  and  C_27
REMARK    9  A    between atoms: C_27  and  N_28
REMARK   10  A    between atoms: C_29  and  C_31
REMARK                            x       y       z     vdW  Elec       q    Type
REMARK                         _______ _______ _______ _____ _____    ______ ____
ROOT
ATOM      1  N   UNL     1      -2.958   1.288   1.725  0.00  0.00    -0.277 N 
ATOM      2  C   UNL     1      -3.373   2.318   2.489  0.00  0.00    +0.234 C 
ATOM      3  O   UNL     1      -3.513   2.169   3.685  0.00  0.00    -0.274 OA
ENDROOT
BRANCH   1   4
ATOM      4  C   UNL     1      -2.781  -0.039   2.319  0.00  0.00    +0.228 C 
BRANCH   4   9
ATOM      5  C   UNL     1      -4.742  -2.510  -1.617  0.00  0.00    +0.086 C 
ATOM      6  C   UNL     1      -4.398  -2.131  -0.199  0.00  0.00    +0.102 A 
ATOM      7  C   UNL     1      -4.802  -2.779   0.908  0.00  0.00    +0.045 A 
ATOM      8  C   UNL     1      -4.253  -2.086   2.011  0.00  0.00    +0.047 A 
ATOM      9  C   UNL     1      -3.546  -1.056   1.512  0.00  0.00    +0.135 A 
ATOM     10  O   UNL     1      -3.643  -1.085   0.173  0.00  0.00    -0.462 OA
ENDBRANCH   4   9
BRANCH   4  11
ATOM     11  C   UNL     1      -1.318  -0.397   2.322  0.00  0.00    +0.241 C 
ATOM     12  O   UNL     1      -0.513   0.337   1.789  0.00  0.00    -0.273 OA
ATOM     13  N   UNL     1      -0.903  -1.534   2.916  0.00  0.00    -0.311 N 
ATOM     14  H   UNL     1      -1.547  -2.121   3.342  0.00  0.00    +0.149 HD
BRANCH  13  15
ATOM     15  C   UNL     1       0.520  -1.882   2.918  0.00  0.00    +0.073 C 
ATOM     16  C   UNL     1       0.870  -2.608   1.618  0.00  0.00    +0.022 C 
ATOM     17  C   UNL     1       2.356  -2.972   1.620  0.00  0.00    +0.002 C 
ATOM     18  C   UNL     1       2.655  -3.885   2.810  0.00  0.00    +0.000 C 
ATOM     19  C   UNL     1       2.306  -3.159   4.111  0.00  0.00    +0.002 C 
ATOM     20  C   UNL     1       0.820  -2.795   4.109  0.00  0.00    +0.022 C 
ENDBRANCH  13  15
ENDBRANCH   4  11
ENDBRANCH   1   4
BRANCH   1  21
ATOM     21  C   UNL     1      -2.684   1.496   0.301  0.00  0.00    +0.151 C 
BRANCH  21  22
ATOM     22  C   UNL     1      -3.977   1.766  -0.425  0.00  0.00    +0.007 A 
ATOM     23  C   UNL     1      -4.499   2.950  -0.828  0.00  0.00    +0.013 A 
ATOM     24  C   UNL     1      -5.711   2.957  -1.492  0.00  0.00    +0.008 A 
ATOM     25  C   UNL     1      -6.345   1.780  -1.715  0.00  0.00    +0.045 A 
ATOM     26  S   UNL     1      -5.219   0.608  -0.976  0.00  0.00    -0.100 S 
ENDBRANCH  21  22
ENDBRANCH   1  21
BRANCH   2  27
ATOM     27  C   UNL     1      -3.663   3.656   1.858  0.00  0.00    +0.200 C 
BRANCH  27  28
ATOM     28  N   UNL     1      -3.987   4.630   2.903  0.00  0.00    -0.302 N 
ATOM     29  C   UNL     1      -4.283   5.902   2.571  0.00  0.00    +0.251 C 
ATOM     30  O   UNL     1      -4.282   6.242   1.402  0.00  0.00    -0.270 OA
ATOM     31  H   UNL     1      -3.989   4.359   3.835  0.00  0.00    +0.150 HD
BRANCH  29  32
ATOM     32  C   UNL     1      -4.607   6.876   3.617  0.00  0.00    +0.074 A 
ATOM     33  C   UNL     1      -4.930   8.218   3.491  0.00  0.00    +0.021 A 
ATOM     34  C   UNL     1      -5.196   8.908   4.648  0.00  0.00    +0.008 A 
ATOM     35  C   UNL     1      -5.121   8.260   5.840  0.00  0.00    +0.046 A 
ATOM     36  S   UNL     1      -4.680   6.646   5.385  0.00  0.00    -0.092 S 
ENDBRANCH  29  32
ENDBRANCH  27  28
ENDBRANCH   2  27
TORSDOF 9
