REMARK  Name = ZINC20331700
REMARK  12 active torsions:
REMARK  status: ('A' for Active; 'I' for Inactive)
REMARK    1  A    between atoms: C_1  and  C_2
REMARK    2  A    between atoms: C_2  and  N_3
REMARK    3  A    between atoms: N_3  and  C_4
REMARK    4  A    between atoms: N_3  and  C_6
REMARK    5  A    between atoms: C_4  and  C_5
REMARK    6  A    between atoms: C_6  and  C_7
REMARK    7  A    between atoms: C_7  and  C_8
REMARK    8  A    between atoms: C_8  and  N_9
REMARK    9  A    between atoms: C_10  and  C_30
REMARK   10  A    between atoms: C_12  and  C_17
REMARK   11  A    between atoms: C_17  and  C_19
REMARK   12  A    between atoms: C_26  and  C_29
REMARK                            x       y       z     vdW  Elec       q    Type
REMARK                         _______ _______ _______ _____ _____    ______ ____
ROOT
ATOM      1  N   UNL     1      -4.294   0.489   0.505  0.00  0.00    -0.284 N 
ATOM      2  C   UNL     1      -2.863   0.555   0.826  0.00  0.00    +0.145 C 
ATOM      3  C   UNL     1      -2.529   2.022   0.961  0.00  0.00    +0.076 C 
ATOM      4  C   UNL     1      -3.675   2.706   0.741  0.00  0.00    +0.249 C 
ATOM      5  C   UNL     1      -4.764   1.748   0.453  0.00  0.00    +0.288 C 
ATOM      6  O   UNL     1      -5.915   2.054   0.210  0.00  0.00    -0.266 OA
ATOM      7  O   UNL     1      -3.804   4.052   0.775  0.00  0.00    -0.282 OA
ENDROOT
BRANCH   2   8
ATOM      8  C   UNL     1      -2.054  -0.061  -0.286  0.00  0.00    -0.022 A 
ATOM      9  C   UNL     1      -2.377   0.204  -1.604  0.00  0.00    +0.007 A 
ATOM     10  C   UNL     1      -1.632  -0.357  -2.624  0.00  0.00    +0.015 A 
ATOM     11  C   UNL     1      -0.570  -1.192  -2.327  0.00  0.00    +0.018 A 
ATOM     12  C   UNL     1      -0.250  -1.460  -1.008  0.00  0.00    +0.015 A 
ATOM     13  C   UNL     1      -0.992  -0.895   0.012  0.00  0.00    +0.007 A 
ATOM     14 BR   UNL     1       0.445  -1.965  -3.723  0.00  0.00    -0.050 Br
ENDBRANCH   2   8
BRANCH   3  15
ATOM     15  C   UNL     1      -1.216   2.594   1.277  0.00  0.00    +0.195 C 
ATOM     16  O   UNL     1      -0.630   3.265   0.448  0.00  0.00    -0.287 OA
BRANCH  15  17
ATOM     17  C   UNL     1      -0.606   2.356   2.599  0.00  0.00    +0.023 A 
ATOM     18  C   UNL     1      -1.308   1.653   3.584  0.00  0.00    +0.015 A 
ATOM     19  C   UNL     1      -0.741   1.440   4.817  0.00  0.00    +0.046 A 
ATOM     20  C   UNL     1       0.543   1.911   5.097  0.00  0.00    +0.124 A 
ATOM     21  C   UNL     1       1.242   2.600   4.110  0.00  0.00    -0.002 A 
ATOM     22  C   UNL     1       0.683   2.826   2.877  0.00  0.00    +0.019 A 
ATOM     23  C   UNL     1       2.592   2.967   4.696  0.00  0.00    +0.083 C 
ATOM     24  C   UNL     1       2.659   2.050   5.941  0.00  0.00    +0.175 C 
ATOM     25  O   UNL     1       1.272   1.819   6.241  0.00  0.00    -0.488 OA
ATOM     26  C   UNL     1       3.369   0.736   5.608  0.00  0.00    +0.052 C 
ENDBRANCH  15  17
ENDBRANCH   3  15
BRANCH   1  27
ATOM     27  C   UNL     1      -5.072  -0.732   0.283  0.00  0.00    +0.107 C 
BRANCH  27  28
ATOM     28  C   UNL     1      -5.656  -1.214   1.612  0.00  0.00    +0.000 C 
BRANCH  28  29
ATOM     29  C   UNL     1      -6.469  -2.489   1.379  0.00  0.00    -0.077 C 
BRANCH  29  30
ATOM     30  N   UNL     1      -7.030  -2.952   2.656  0.00  0.00    +0.379 N 
ATOM     31  H   UNL     1      -6.207  -3.015   3.383  0.00  0.00    -0.082 HD
BRANCH  30  33
ATOM     32  C   UNL     1      -9.178  -1.876   2.184  0.00  0.00    -0.017 C 
ATOM     33  C   UNL     1      -8.018  -1.997   3.174  0.00  0.00    -0.082 C 
ENDBRANCH  30  33
BRANCH  30  34
ATOM     34  C   UNL     1      -7.615  -4.293   2.518  0.00  0.00    -0.082 C 
ATOM     35  C   UNL     1      -7.917  -4.862   3.906  0.00  0.00    -0.017 C 
ENDBRANCH  30  34
ENDBRANCH  29  30
ENDBRANCH  28  29
ENDBRANCH  27  28
ENDBRANCH   1  27
TORSDOF 9
