REMARK  Name = ZINC38965798
REMARK  10 active torsions:
REMARK  status: ('A' for Active; 'I' for Inactive)
REMARK    1  A    between atoms: C_1  and  O_2
REMARK    2  A    between atoms: O_2  and  C_3
REMARK    3  A    between atoms: C_6  and  S_9
REMARK    4  A    between atoms: S_9  and  N_12
REMARK    5  A    between atoms: C_14  and  N_24
REMARK    6  A    between atoms: N_24  and  C_25
REMARK    7  A    between atoms: C_27  and  O_33
REMARK    8  A    between atoms: C_29  and  O_31
REMARK    9  A    between atoms: O_31  and  C_32
REMARK   10  A    between atoms: O_33  and  C_34
REMARK                            x       y       z     vdW  Elec       q    Type
REMARK                         _______ _______ _______ _____ _____    ______ ____
ROOT
ATOM      1  N   UNL     1       1.308  -3.093   5.296  0.00  0.00    -0.110 NA
ATOM      2  C   UNL     1       1.768  -3.459   6.456  0.00  0.00    +0.192 C 
ATOM      3  C   UNL     1       0.841  -3.584   7.644  0.00  0.00    +0.237 C 
ATOM      4  N   UNL     1       1.423  -4.003   8.929  0.00  0.00    -0.359 N 
ATOM      5  C   UNL     1       2.703  -4.244   8.982  0.00  0.00    +0.063 A 
ATOM      6  C   UNL     1       3.334  -4.665  10.242  0.00  0.00    +0.027 A 
ATOM      7  C   UNL     1       4.663  -4.906  10.258  0.00  0.00    +0.002 A 
ATOM      8  C   UNL     1       5.454  -4.765   9.105  0.00  0.00    +0.002 A 
ATOM      9  C   UNL     1       4.946  -4.383   7.914  0.00  0.00    +0.030 A 
ATOM     10  C   UNL     1       3.562  -4.103   7.781  0.00  0.00    +0.089 A 
ATOM     11  N   UNL     1       3.072  -3.735   6.615  0.00  0.00    -0.226 NA
ATOM     12  H   UNL     1       0.867  -4.097   9.718  0.00  0.00    +0.162 HD
ENDROOT
BRANCH   1  13
ATOM     13  S   UNL     1       2.333  -2.966   4.002  0.00  0.00    +0.100 S 
ATOM     14  O   UNL     1       2.788  -4.281   3.714  0.00  0.00    -0.146 OA
ATOM     15  O   UNL     1       3.223  -1.897   4.292  0.00  0.00    -0.146 OA
BRANCH  13  19
ATOM     16  C   UNL     1      -0.151  -1.651   0.451  0.00  0.00    +0.120 A 
ATOM     17  C   UNL     1       0.440  -0.704   1.274  0.00  0.00    +0.047 A 
ATOM     18  C   UNL     1       1.197  -1.107   2.357  0.00  0.00    +0.032 A 
ATOM     19  C   UNL     1       1.366  -2.454   2.620  0.00  0.00    +0.113 A 
ATOM     20  C   UNL     1       0.779  -3.400   1.800  0.00  0.00    +0.032 A 
ATOM     21  C   UNL     1       0.016  -3.001   0.720  0.00  0.00    +0.047 A 
BRANCH  16  23
ATOM     22  C   UNL     1      -1.025   0.151  -0.831  0.00  0.00    +0.277 C 
ATOM     23  O   UNL     1      -0.896  -1.256  -0.615  0.00  0.00    -0.495 OA
ENDBRANCH  16  23
ENDBRANCH  13  19
ENDBRANCH   1  13
BRANCH   3  24
ATOM     24  N   UNL     1      -0.207  -4.547   7.294  0.00  0.00    -0.318 N 
ATOM     25  H   UNL     1       0.025  -5.372   6.840  0.00  0.00    +0.148 HD
BRANCH  24  26
ATOM     26  C   UNL     1      -1.539  -4.277   7.614  0.00  0.00    +0.036 A 
ATOM     27  C   UNL     1      -1.856  -3.174   8.395  0.00  0.00    +0.068 A 
ATOM     28  C   UNL     1      -3.178  -2.907   8.713  0.00  0.00    +0.125 A 
ATOM     29  C   UNL     1      -4.185  -3.742   8.252  0.00  0.00    +0.091 A 
ATOM     30  C   UNL     1      -3.869  -4.845   7.472  0.00  0.00    +0.125 A 
ATOM     31  C   UNL     1      -2.548  -5.110   7.148  0.00  0.00    +0.068 A 
BRANCH  30  32
ATOM     32  O   UNL     1      -4.857  -5.662   7.021  0.00  0.00    -0.495 OA
ATOM     33  C   UNL     1      -6.196  -5.326   7.388  0.00  0.00    +0.277 C 
ENDBRANCH  30  32
BRANCH  28  34
ATOM     34  O   UNL     1      -3.489  -1.826   9.477  0.00  0.00    -0.495 OA
ATOM     35  C   UNL     1      -4.872  -1.611   9.765  0.00  0.00    +0.277 C 
ENDBRANCH  28  34
ENDBRANCH  24  26
ENDBRANCH   3  24
TORSDOF 7
