REMARK  Name = ZINC36611140
REMARK  5 active torsions:
REMARK  status: ('A' for Active; 'I' for Inactive)
REMARK    1  A    between atoms: C_1  and  O_2
REMARK    2  A    between atoms: O_2  and  C_3
REMARK    3  A    between atoms: C_5  and  C_12
REMARK    4  A    between atoms: C_8  and  O_9
REMARK    5  A    between atoms: N_13  and  N_14
REMARK                            x       y       z     vdW  Elec       q    Type
REMARK                         _______ _______ _______ _____ _____    ______ ____
ROOT
ATOM      1  C   UNL     1      -1.633  -0.801   1.703  0.00  0.00    +0.163 A 
ATOM      2  C   UNL     1      -2.735  -0.049   1.345  0.00  0.00    +0.060 A 
ATOM      3  C   UNL     1      -3.676  -0.573   0.454  0.00  0.00    +0.013 A 
ATOM      4  C   UNL     1      -3.497  -1.856  -0.070  0.00  0.00    +0.043 A 
ATOM      5  C   UNL     1      -2.393  -2.602   0.293  0.00  0.00    +0.073 A 
ATOM      6  C   UNL     1      -1.457  -2.077   1.173  0.00  0.00    +0.173 A 
ATOM      7  I   UNL     1      -2.126  -4.525  -0.493  0.00  0.00    -0.039 I 
ATOM      8 BR   UNL     1      -4.766  -2.572  -1.275  0.00  0.00    -0.048 Br
ENDROOT
BRANCH   1  10
ATOM      9  C   UNL     1      -0.959   1.022   3.074  0.00  0.00    +0.277 C 
ATOM     10  O   UNL     1      -0.716  -0.293   2.570  0.00  0.00    -0.491 OA
ENDBRANCH   1  10
BRANCH   6  11
ATOM     11  O   UNL     1      -0.369  -2.813   1.524  0.00  0.00    -0.503 OA
ATOM     12  H   UNL     1      -0.504  -3.369   2.303  0.00  0.00    +0.292 HD
ENDBRANCH   6  11
BRANCH   3  13
ATOM     13  C   UNL     1      -4.854   0.225   0.069  0.00  0.00    +0.139 C 
ATOM     14  N   UNL     1      -4.811   1.520   0.138  0.00  0.00    -0.186 NA
BRANCH  14  15
ATOM     15  N   UNL     1      -3.576   2.182   0.130  0.00  0.00    -0.191 N 
ATOM     16  C   UNL     1      -3.523   3.513   0.335  0.00  0.00    +0.317 C 
ATOM     17  O   UNL     1      -2.447   4.073   0.419  0.00  0.00    -0.251 OA
ATOM     18  N   UNL     1      -4.663   4.223   0.446  0.00  0.00    -0.312 N 
ATOM     19  H   UNL     1      -2.759   1.682  -0.023  0.00  0.00    +0.179 HD
ATOM     20  H   UNL     1      -5.522   3.776   0.379  0.00  0.00    +0.147 HD
ATOM     21  H   UNL     1      -4.625   5.181   0.594  0.00  0.00    +0.147 HD
ENDBRANCH  14  15
ENDBRANCH   3  13
TORSDOF 4
