REMARK  Name = ZINC45945987
REMARK  5 active torsions:
REMARK  status: ('A' for Active; 'I' for Inactive)
REMARK    1  A    between atoms: C_1  and  C_2
REMARK    2  A    between atoms: C_2  and  N_3
REMARK    3  A    between atoms: C_6  and  C_18
REMARK    4  A    between atoms: N_8  and  C_11
REMARK    5  A    between atoms: C_20  and  C_23
REMARK                            x       y       z     vdW  Elec       q    Type
REMARK                         _______ _______ _______ _____ _____    ______ ____
ROOT
ATOM      1  N   UNL     1      -1.553   0.002   0.202  0.00  0.00    -0.258 N 
ATOM      2  C   UNL     1      -2.062  -0.758   1.195  0.00  0.00    +0.286 A 
ATOM      3  O   UNL     1      -1.607  -0.687   2.321  0.00  0.00    -0.265 OA
ATOM      4  C   UNL     1      -3.175  -1.674   0.896  0.00  0.00    +0.196 A 
ATOM      5  N   UNL     1      -3.642  -1.726  -0.331  0.00  0.00    -0.153 NA
ATOM      6  N   UNL     1      -3.078  -0.915  -1.324  0.00  0.00    -0.181 N 
ATOM      7  C   UNL     1      -2.065  -0.078  -1.040  0.00  0.00    +0.353 A 
ATOM      8  O   UNL     1      -1.599   0.616  -1.923  0.00  0.00    -0.244 OA
ENDROOT
BRANCH   6   9
ATOM      9  C   UNL     1      -3.579  -0.974  -2.629  0.00  0.00    +0.071 A 
ATOM     10  C   UNL     1      -4.944  -0.857  -2.856  0.00  0.00    +0.031 A 
ATOM     11  C   UNL     1      -5.437  -0.914  -4.145  0.00  0.00    +0.040 A 
ATOM     12  C   UNL     1      -4.570  -1.089  -5.211  0.00  0.00    +0.124 A 
ATOM     13  C   UNL     1      -3.208  -1.207  -4.987  0.00  0.00    +0.040 A 
ATOM     14  C   UNL     1      -2.711  -1.144  -3.700  0.00  0.00    +0.031 A 
ATOM     15  F   UNL     1      -5.054  -1.146  -6.471  0.00  0.00    -0.205 F 
ENDBRANCH   6   9
BRANCH   4  16
ATOM     16  C   UNL     1      -3.758  -2.524   1.961  0.00  0.00    +0.228 A 
ATOM     17  N   UNL     1      -4.767  -3.395   1.801  0.00  0.00    -0.182 NA
ATOM     18  C   UNL     1      -5.037  -3.981   2.939  0.00  0.00    +0.314 A 
ATOM     19  O   UNL     1      -4.200  -3.498   3.873  0.00  0.00    -0.328 OA
ATOM     20  N   UNL     1      -3.370  -2.553   3.214  0.00  0.00    -0.054 NA
BRANCH  18  21
ATOM     21  C   UNL     1      -6.088  -5.004   3.161  0.00  0.00    +0.305 C 
ATOM     22  O   UNL     1      -6.702  -5.458   2.217  0.00  0.00    -0.265 OA
ATOM     23  N   UNL     1      -6.360  -5.430   4.410  0.00  0.00    -0.289 N 
ATOM     24  C   UNL     1      -7.312  -6.526   4.655  0.00  0.00    +0.113 C 
ATOM     25  C   UNL     1      -6.540  -7.691   5.273  0.00  0.00    +0.054 C 
ATOM     26  C   UNL     1      -5.657  -7.213   6.396  0.00  0.00    -0.041 A 
ATOM     27  C   UNL     1      -5.227  -8.155   7.323  0.00  0.00    +0.004 A 
ATOM     28  C   UNL     1      -4.410  -7.785   8.370  0.00  0.00    +0.000 A 
ATOM     29  C   UNL     1      -4.011  -6.468   8.501  0.00  0.00    +0.000 A 
ATOM     30  C   UNL     1      -4.439  -5.530   7.584  0.00  0.00    +0.005 A 
ATOM     31  C   UNL     1      -5.267  -5.899   6.532  0.00  0.00    -0.027 A 
ATOM     32  C   UNL     1      -5.716  -4.824   5.580  0.00  0.00    +0.143 C 
ENDBRANCH  18  21
ENDBRANCH   4  16
BRANCH   1  34
ATOM     33  C   UNL     1      -1.005   2.281   0.897  0.00  0.00    +0.027 C 
ATOM     34  C   UNL     1      -0.446   0.920   0.479  0.00  0.00    +0.127 C 
ENDBRANCH   1  34
TORSDOF 4
