REMARK  Name = ZINC00921280
REMARK  10 active torsions:
REMARK  status: ('A' for Active; 'I' for Inactive)
REMARK    1  A    between atoms: C_4  and  C_7
REMARK    2  A    between atoms: C_7  and  C_8
REMARK    3  A    between atoms: C_8  and  N_9
REMARK    4  A    between atoms: N_9  and  C_10
REMARK    5  A    between atoms: C_10  and  C_12
REMARK    6  A    between atoms: C_10  and  C_19
REMARK    7  A    between atoms: C_15  and  O_18
REMARK    8  A    between atoms: N_21  and  C_22
REMARK    9  A    between atoms: C_28  and  C_30
REMARK   10  A    between atoms: C_30  and  N_31
REMARK                            x       y       z     vdW  Elec       q    Type
REMARK                         _______ _______ _______ _____ _____    ______ ____
ROOT
ATOM      1  N   UNL     1      -3.530   0.759   0.806  0.00  0.00    -0.284 N 
ATOM      2  C   UNL     1      -3.637  -0.364   1.542  0.00  0.00    +0.238 C 
ATOM      3  O   UNL     1      -2.648  -1.018   1.799  0.00  0.00    -0.274 OA
ENDROOT
BRANCH   1   4
ATOM      4  C   UNL     1      -4.726   1.548   0.496  0.00  0.00    +0.113 C 
BRANCH   4   5
ATOM      5  C   UNL     1      -5.542   0.834  -0.583  0.00  0.00    +0.054 C 
BRANCH   5   9
ATOM      6  C   UNL     1      -8.781   3.336  -1.806  0.00  0.00    +0.000 A 
ATOM      7  C   UNL     1      -7.563   3.416  -2.455  0.00  0.00    +0.000 A 
ATOM      8  C   UNL     1      -6.515   2.607  -2.059  0.00  0.00    +0.004 A 
ATOM      9  C   UNL     1      -6.685   1.717  -1.015  0.00  0.00    -0.046 A 
ATOM     10  C   UNL     1      -7.905   1.632  -0.370  0.00  0.00    +0.004 A 
ATOM     11  C   UNL     1      -8.951   2.445  -0.763  0.00  0.00    +0.000 A 
ENDBRANCH   5   9
ENDBRANCH   4   5
ENDBRANCH   1   4
BRANCH   1  12
ATOM     12  C   UNL     1      -2.220   1.192   0.316  0.00  0.00    +0.192 C 
BRANCH  12  13
ATOM     13  C   UNL     1      -1.770   2.406   1.089  0.00  0.00    -0.018 A 
ATOM     14  C   UNL     1      -0.426   2.721   1.159  0.00  0.00    +0.009 A 
ATOM     15  C   UNL     1      -0.013   3.836   1.862  0.00  0.00    +0.046 A 
ATOM     16  C   UNL     1      -0.947   4.638   2.501  0.00  0.00    +0.117 A 
ATOM     17  C   UNL     1      -2.295   4.317   2.433  0.00  0.00    +0.046 A 
ATOM     18  C   UNL     1      -2.703   3.200   1.730  0.00  0.00    +0.009 A 
BRANCH  16  19
ATOM     19  O   UNL     1      -0.543   5.736   3.192  0.00  0.00    -0.507 OA
ATOM     20  H   UNL     1      -0.506   6.543   2.661  0.00  0.00    +0.292 HD
ENDBRANCH  16  19
ENDBRANCH  12  13
BRANCH  12  21
ATOM     21  C   UNL     1      -2.319   1.537  -1.147  0.00  0.00    +0.238 C 
ATOM     22  O   UNL     1      -3.301   2.109  -1.570  0.00  0.00    -0.273 OA
ATOM     23  N   UNL     1      -1.316   1.209  -1.986  0.00  0.00    -0.311 N 
ATOM     24  H   UNL     1      -0.531   0.751  -1.648  0.00  0.00    +0.149 HD
BRANCH  23  25
ATOM     25  C   UNL     1      -1.413   1.544  -3.409  0.00  0.00    +0.073 C 
ATOM     26  C   UNL     1      -2.187   0.445  -4.140  0.00  0.00    +0.022 C 
ATOM     27  C   UNL     1      -2.288   0.795  -5.626  0.00  0.00    +0.002 C 
ATOM     28  C   UNL     1      -0.882   0.909  -6.220  0.00  0.00    +0.000 C 
ATOM     29  C   UNL     1      -0.108   2.007  -5.489  0.00  0.00    +0.002 C 
ATOM     30  C   UNL     1      -0.007   1.658  -4.003  0.00  0.00    +0.022 C 
ENDBRANCH  23  25
ENDBRANCH  12  21
ENDBRANCH   1  12
BRANCH   2  31
ATOM     31  C   UNL     1      -4.986  -0.810   2.046  0.00  0.00    +0.241 C 
BRANCH  31  32
ATOM     32  N   UNL     1      -4.836  -2.049   2.813  0.00  0.00    -0.235 N 
ATOM     33  C   UNL     1      -4.602  -2.156   4.164  0.00  0.00    +0.090 A 
ATOM     34  C   UNL     1      -4.438  -1.235   5.193  0.00  0.00    +0.029 A 
ATOM     35  C   UNL     1      -4.213  -1.674   6.468  0.00  0.00    +0.002 A 
ATOM     36  C   UNL     1      -4.146  -3.033   6.746  0.00  0.00    +0.002 A 
ATOM     37  C   UNL     1      -4.303  -3.957   5.755  0.00  0.00    +0.032 A 
ATOM     38  C   UNL     1      -4.535  -3.533   4.439  0.00  0.00    +0.113 A 
ATOM     39  N   UNL     1      -4.726  -4.192   3.279  0.00  0.00    -0.129 NA
ATOM     40  N   UNL     1      -4.908  -3.358   2.316  0.00  0.00    -0.064 NA
ENDBRANCH  31  32
ENDBRANCH   2  31
TORSDOF 10
