REMARK  Name = ZINC36528526
REMARK  17 active torsions:
REMARK  status: ('A' for Active; 'I' for Inactive)
REMARK    1  A    between atoms: C_1  and  C_2
REMARK    2  A    between atoms: C_2  and  C_3
REMARK    3  A    between atoms: C_2  and  C_4
REMARK    4  A    between atoms: C_2  and  C_5
REMARK    5  A    between atoms: C_5  and  C_6
REMARK    6  A    between atoms: C_6  and  C_7
REMARK    7  A    between atoms: C_6  and  C_8
REMARK    8  A    between atoms: C_6  and  N_9
REMARK    9  A    between atoms: C_10  and  C_12
REMARK   10  A    between atoms: C_12  and  C_14
REMARK   11  A    between atoms: C_12  and  N_23
REMARK   12  A    between atoms: C_17  and  O_22
REMARK   13  A    between atoms: C_18  and  O_20
REMARK   14  A    between atoms: O_20  and  C_21
REMARK   15  A    between atoms: N_23  and  C_24
REMARK   16  A    between atoms: C_25  and  C_27
REMARK   17  A    between atoms: C_27  and  C_28
REMARK                            x       y       z     vdW  Elec       q    Type
REMARK                         _______ _______ _______ _____ _____    ______ ____
ROOT
ATOM      1  C   UNL     1       5.368  -0.496  -4.266  0.00  0.00    +0.192 C 
ENDROOT
BRANCH   1   2
ATOM      2  C   UNL     1       4.755   0.252  -5.421  0.00  0.00    -0.015 A 
ATOM      3  C   UNL     1       4.236   1.518  -5.225  0.00  0.00    +0.010 A 
ATOM      4  C   UNL     1       3.672   2.209  -6.281  0.00  0.00    +0.049 A 
ATOM      5  C   UNL     1       3.627   1.633  -7.540  0.00  0.00    +0.158 A 
ATOM      6  C   UNL     1       4.150   0.358  -7.738  0.00  0.00    +0.162 A 
ATOM      7  C   UNL     1       4.718  -0.326  -6.676  0.00  0.00    +0.055 A 
BRANCH   6   8
ATOM      8  O   UNL     1       4.109  -0.211  -8.972  0.00  0.00    -0.491 OA
ATOM      9  C   UNL     1       4.664  -1.522  -9.101  0.00  0.00    +0.277 C 
ENDBRANCH   6   8
BRANCH   5  10
ATOM     10  O   UNL     1       3.073   2.311  -8.581  0.00  0.00    -0.503 OA
ATOM     11  H   UNL     1       3.700   2.860  -9.072  0.00  0.00    +0.292 HD
ENDBRANCH   5  10
ENDBRANCH   1   2
BRANCH   1  13
ATOM     12  N   UNL     1       3.260  -0.588  -2.975  0.00  0.00    -0.308 N 
ATOM     13  C   UNL     1       4.562  -0.242  -3.018  0.00  0.00    +0.238 C 
ATOM     14  O   UNL     1       5.085   0.273  -2.052  0.00  0.00    -0.273 OA
ATOM     15  H   UNL     1       2.842  -0.999  -3.747  0.00  0.00    +0.149 HD
BRANCH  12  16
ATOM     16  C   UNL     1       2.476  -0.341  -1.762  0.00  0.00    +0.030 C 
ATOM     17  C   UNL     1       2.598   1.133  -1.368  0.00  0.00    +0.031 C 
ATOM     18  C   UNL     1       3.005  -1.218  -0.626  0.00  0.00    +0.031 C 
BRANCH  16  19
ATOM     19  C   UNL     1       1.008  -0.679  -2.026  0.00  0.00    +0.031 C 
BRANCH  19  21
ATOM     20  C   UNL     1       1.051  -1.074  -4.493  0.00  0.00    +0.010 C 
ATOM     21  C   UNL     1       0.593  -0.119  -3.389  0.00  0.00    -0.036 C 
ATOM     22  C   UNL     1       1.242   1.250  -3.597  0.00  0.00    +0.010 C 
ATOM     23  C   UNL     1      -0.930   0.025  -3.438  0.00  0.00    +0.010 C 
ENDBRANCH  19  21
ENDBRANCH  16  19
ENDBRANCH  12  16
ENDBRANCH   1  13
BRANCH   1  24
ATOM     24  N   UNL     1       6.744  -0.035  -4.060  0.00  0.00    -0.289 N 
ATOM     25  C   UNL     1       7.000   1.349  -3.655  0.00  0.00    +0.133 C 
ATOM     26  C   UNL     1       7.774  -0.885  -4.245  0.00  0.00    +0.221 C 
ATOM     27  O   UNL     1       7.562  -2.031  -4.580  0.00  0.00    -0.275 OA
BRANCH  26  28
ATOM     28  C   UNL     1       9.188  -0.411  -4.034  0.00  0.00    +0.131 C 
BRANCH  28  29
ATOM     29  C   UNL     1      10.144  -1.545  -4.303  0.00  0.00    -0.039 A 
ATOM     30  C   UNL     1      10.514  -2.394  -3.277  0.00  0.00    +0.005 A 
ATOM     31  C   UNL     1      11.390  -3.435  -3.523  0.00  0.00    +0.015 A 
ATOM     32  C   UNL     1      11.895  -3.627  -4.796  0.00  0.00    +0.018 A 
ATOM     33  C   UNL     1      11.524  -2.777  -5.822  0.00  0.00    +0.015 A 
ATOM     34  C   UNL     1      10.644  -1.740  -5.576  0.00  0.00    +0.005 A 
ATOM     35 BR   UNL     1      13.094  -5.050  -5.134  0.00  0.00    -0.050 Br
ENDBRANCH  28  29
ENDBRANCH  26  28
ENDBRANCH   1  24
TORSDOF 10
