REMARK  Name = ZINC36207324
REMARK  14 active torsions:
REMARK  status: ('A' for Active; 'I' for Inactive)
REMARK    1  A    between atoms: C_1  and  C_2
REMARK    2  A    between atoms: C_2  and  C_3
REMARK    3  A    between atoms: C_9  and  C_18
REMARK    4  A    between atoms: C_13  and  C_14
REMARK    5  A    between atoms: C_14  and  O_16
REMARK    6  A    between atoms: O_16  and  C_17
REMARK    7  A    between atoms: C_18  and  N_19
REMARK    8  A    between atoms: N_19  and  C_20
REMARK    9  A    between atoms: N_19  and  C_32
REMARK   10  A    between atoms: C_20  and  C_21
REMARK   11  A    between atoms: C_21  and  C_23
REMARK   12  A    between atoms: C_21  and  O_31
REMARK   13  A    between atoms: C_23  and  O_24
REMARK   14  A    between atoms: O_24  and  C_25
REMARK                            x       y       z     vdW  Elec       q    Type
REMARK                         _______ _______ _______ _____ _____    ______ ____
ROOT
ATOM      1  N   UNL     1      -0.644  -2.040  -7.139  0.00  0.00    +0.388 N 
ATOM      2  H   UNL     1       0.204  -1.492  -7.142  0.00  0.00    -0.081 HD
ENDROOT
BRANCH   1   3
ATOM      3  C   UNL     1      -0.325  -3.435  -6.809  0.00  0.00    -0.068 C 
ATOM      4  C   UNL     1       0.305  -3.499  -5.416  0.00  0.00    -0.015 C 
ATOM      5  C   UNL     1       0.637  -4.952  -5.073  0.00  0.00    -0.002 C 
ATOM      6  C   UNL     1      -0.645  -5.787  -5.092  0.00  0.00    -0.000 C 
ATOM      7  C   UNL     1      -1.274  -5.723  -6.485  0.00  0.00    -0.002 C 
ATOM      8  C   UNL     1      -1.607  -4.270  -6.829  0.00  0.00    -0.015 C 
ENDBRANCH   1   3
BRANCH   1   9
ATOM      9  C   UNL     1      -1.573  -1.500  -6.137  0.00  0.00    -0.003 C 
BRANCH   9  16
ATOM     10  C   UNL     1       1.548   0.249  -1.763  0.00  0.00    -0.012 A 
ATOM     11  C   UNL     1       0.657  -0.155  -2.759  0.00  0.00    +0.076 A 
ATOM     12  C   UNL     1      -0.823  -0.190  -2.733  0.00  0.00    +0.260 A 
ATOM     13  O   UNL     1      -1.439   0.166  -1.744  0.00  0.00    -0.267 OA
ATOM     14  N   UNL     1      -1.470  -0.625  -3.831  0.00  0.00    -0.312 N 
ATOM     15  H   UNL     1      -2.440  -0.654  -3.831  0.00  0.00    +0.170 HD
ATOM     16  C   UNL     1      -0.795  -1.023  -4.938  0.00  0.00    +0.094 A 
ATOM     17  N   UNL     1       0.509  -1.004  -4.994  0.00  0.00    -0.229 NA
ATOM     18  C   UNL     1       1.244  -0.594  -3.968  0.00  0.00    +0.116 A 
ATOM     19  S   UNL     1       2.984  -0.426  -3.662  0.00  0.00    -0.062 S 
ATOM     20  C   UNL     1       2.893   0.208  -1.996  0.00  0.00    +0.102 A 
BRANCH  10  22
ATOM     21  C   UNL     1       0.803   2.247  -0.498  0.00  0.00    +0.009 C 
ATOM     22  C   UNL     1       1.027   0.735  -0.435  0.00  0.00    +0.034 C 
ENDBRANCH  10  22
BRANCH  20  23
ATOM     23  C   UNL     1       3.988   0.587  -1.101  0.00  0.00    +0.346 C 
ATOM     24  O   UNL     1       3.744   1.003   0.016  0.00  0.00    -0.244 OA
BRANCH  23  25
ATOM     25  O   UNL     1       5.267   0.475  -1.515  0.00  0.00    -0.464 OA
ATOM     26  C   UNL     1       6.284   0.863  -0.590  0.00  0.00    +0.280 C 
ENDBRANCH  23  25
ENDBRANCH  20  23
ENDBRANCH   9  16
ENDBRANCH   1   9
BRANCH   1  27
ATOM     27  C   UNL     1      -1.269  -1.981  -8.467  0.00  0.00    -0.043 C 
BRANCH  27  28
ATOM     28  C   UNL     1      -0.251  -2.403  -9.529  0.00  0.00    +0.135 C 
BRANCH  28  29
ATOM     29  O   UNL     1       0.868  -1.515  -9.495  0.00  0.00    -0.390 OA
ATOM     30  H   UNL     1       0.642  -0.590  -9.667  0.00  0.00    +0.210 HD
ENDBRANCH  28  29
BRANCH  28  31
ATOM     31  C   UNL     1      -0.903  -2.348 -10.912  0.00  0.00    +0.258 C 
BRANCH  31  32
ATOM     32  O   UNL     1       0.009  -2.852 -11.889  0.00  0.00    -0.489 OA
BRANCH  32  33
ATOM     33  C   UNL     1      -0.419  -2.872 -13.179  0.00  0.00    +0.121 A 
ATOM     34  C   UNL     1      -1.688  -2.412 -13.498  0.00  0.00    +0.045 A 
ATOM     35  C   UNL     1      -2.119  -2.433 -14.810  0.00  0.00    +0.004 A 
ATOM     36  C   UNL     1      -1.288  -2.914 -15.805  0.00  0.00    +0.000 A 
ATOM     37  C   UNL     1      -0.023  -3.374 -15.490  0.00  0.00    +0.004 A 
ATOM     38  C   UNL     1       0.416  -3.349 -14.180  0.00  0.00    +0.045 A 
ENDBRANCH  32  33
ENDBRANCH  31  32
ENDBRANCH  28  31
ENDBRANCH  27  28
ENDBRANCH   1  27
TORSDOF 12
