REMARK  Name = ZINC00757974
REMARK  5 active torsions:
REMARK  status: ('A' for Active; 'I' for Inactive)
REMARK    1  A    between atoms: C_1  and  C_2
REMARK    2  A    between atoms: C_3  and  C_19
REMARK    3  A    between atoms: C_4  and  C_10
REMARK    4  A    between atoms: C_13  and  N_16
REMARK    5  A    between atoms: N_21  and  C_22
REMARK                            x       y       z     vdW  Elec       q    Type
REMARK                         _______ _______ _______ _____ _____    ______ ____
ROOT
ATOM      1  C   UNL     1       0.170   4.484  -0.723  0.00  0.00    +0.061 C 
ATOM      2  C   UNL     1      -0.062   3.134  -0.094  0.00  0.00    +0.017 C 
ATOM      3  C   UNL     1      -1.304   2.793   0.307  0.00  0.00    +0.056 C 
ATOM      4  C   UNL     1      -1.494   1.424   0.928  0.00  0.00    +0.139 C 
ATOM      5  N   UNL     1      -0.296   0.578   1.057  0.00  0.00    -0.315 N 
ATOM      6  C   UNL     1       0.880   1.060   0.609  0.00  0.00    +0.135 C 
ATOM      7  S   UNL     1       2.281   0.084   0.746  0.00  0.00    -0.019 S 
ATOM      8  N   UNL     1       0.990   2.277   0.062  0.00  0.00    -0.300 N 
ATOM      9  H   UNL     1      -0.375  -0.422   1.509  0.00  0.00    +0.149 HD
ATOM     10  H   UNL     1       1.996   2.573  -0.271  0.00  0.00    +0.154 HD
ENDROOT
BRANCH   4  11
ATOM     11  C   UNL     1      -2.073   1.621   2.306  0.00  0.00    -0.023 A 
ATOM     12  C   UNL     1      -1.259   2.027   3.346  0.00  0.00    +0.008 A 
ATOM     13  C   UNL     1      -1.791   2.213   4.609  0.00  0.00    +0.033 A 
ATOM     14  C   UNL     1      -3.135   1.982   4.833  0.00  0.00    +0.126 A 
ATOM     15  C   UNL     1      -3.949   1.571   3.793  0.00  0.00    +0.033 A 
ATOM     16  C   UNL     1      -3.418   1.391   2.530  0.00  0.00    +0.008 A 
BRANCH  14  17
ATOM     17  N   UNL     1      -3.704   2.175   6.186  0.00  0.00    +0.056 N 
ATOM     18  O   UNL     1      -4.889   1.972   6.383  0.00  0.00    -0.126 OA
ATOM     19  O   UNL     1      -2.987   2.537   7.101  0.00  0.00    -0.126 OA
ENDBRANCH  14  17
ENDBRANCH   4  11
BRANCH   3  20
ATOM     20  C   UNL     1      -2.395   3.682   0.146  0.00  0.00    +0.248 C 
ATOM     21  O   UNL     1      -3.211   3.492  -0.738  0.00  0.00    -0.270 OA
ATOM     22  N   UNL     1      -2.531   4.738   0.973  0.00  0.00    -0.282 N 
ATOM     23  H   UNL     1      -1.751   4.959   1.716  0.00  0.00    +0.155 HD
BRANCH  22  24
ATOM     24  C   UNL     1      -3.665   5.553   0.886  0.00  0.00    +0.034 A 
ATOM     25  C   UNL     1      -4.245   5.808  -0.350  0.00  0.00    +0.024 A 
ATOM     26  C   UNL     1      -5.367   6.609  -0.432  0.00  0.00    +0.017 A 
ATOM     27  C   UNL     1      -5.907   7.165   0.714  0.00  0.00    +0.018 A 
ATOM     28  C   UNL     1      -5.329   6.916   1.946  0.00  0.00    +0.017 A 
ATOM     29  C   UNL     1      -4.210   6.112   2.035  0.00  0.00    +0.024 A 
ATOM     30 BR   UNL     1      -7.440   8.266   0.597  0.00  0.00    -0.050 Br
ENDBRANCH  22  24
ENDBRANCH   3  20
TORSDOF 4
