REMARK  Name = ZINC36935019
REMARK  4 active torsions:
REMARK  status: ('A' for Active; 'I' for Inactive)
REMARK    1  A    between atoms: C_1  and  C_2
REMARK    2  A    between atoms: C_2  and  C_4
REMARK    3  A    between atoms: C_2  and  C_6
REMARK    4  A    between atoms: C_6  and  C_8
REMARK                            x       y       z     vdW  Elec       q    Type
REMARK                         _______ _______ _______ _____ _____    ______ ____
ROOT
ATOM      1  C   UNL     1      -0.055  -0.637  -2.530  0.00  0.00    +0.031 C 
ATOM      2  C   UNL     1      -0.630   0.720  -2.940  0.00  0.00    +0.018 C 
ATOM      3  C   UNL     1      -1.404   0.570  -4.251  0.00  0.00    -0.010 C 
ATOM      4  C   UNL     1      -0.461   0.065  -5.345  0.00  0.00    +0.007 C 
ATOM      5  C   UNL     1       0.115  -1.292  -4.935  0.00  0.00    -0.010 C 
ATOM      6  C   UNL     1       0.888  -1.143  -3.623  0.00  0.00    +0.018 C 
ATOM      7  C   UNL     1      -1.027  -2.293  -4.742  0.00  0.00    +0.007 C 
ATOM      8  C   UNL     1      -1.970  -1.788  -3.649  0.00  0.00    -0.010 C 
ATOM      9  C   UNL     1      -2.545  -0.430  -4.059  0.00  0.00    +0.007 C 
ATOM     10  C   UNL     1      -1.196  -1.638  -2.337  0.00  0.00    +0.018 C 
ENDROOT
BRANCH   1  11
ATOM     11  C   UNL     1       0.707  -0.490  -1.238  0.00  0.00    +0.156 C 
ATOM     12  O   UNL     1       1.883  -0.762  -1.196  0.00  0.00    -0.295 OA
BRANCH  11  14
ATOM     13  C   UNL     1      -0.019   1.526   0.010  0.00  0.00    +0.031 C 
ATOM     14  C   UNL     1       0.002  -0.004   0.002  0.00  0.00    +0.155 C 
BRANCH  14  15
ATOM     15  C   UNL     1       0.714  -0.492   1.195  0.00  0.00    +0.073 C 
ATOM     16  N   UNL     1       1.263  -0.868   2.115  0.00  0.00    -0.196 NA
ENDBRANCH  14  15
ENDBRANCH  11  14
ENDBRANCH   1  11
TORSDOF 3
