REMARK  Name = ZINC35486643
REMARK  8 active torsions:
REMARK  status: ('A' for Active; 'I' for Inactive)
REMARK    1  A    between atoms: C_1  and  N_2
REMARK    2  A    between atoms: N_2  and  C_3
REMARK    3  A    between atoms: N_2  and  C_4
REMARK    4  A    between atoms: C_4  and  C_5
REMARK    5  A    between atoms: C_5  and  N_6
REMARK    6  A    between atoms: C_7  and  C_23
REMARK    7  A    between atoms: C_27  and  O_29
REMARK    8  A    between atoms: O_29  and  C_30
REMARK                            x       y       z     vdW  Elec       q    Type
REMARK                         _______ _______ _______ _____ _____    ______ ____
ROOT
ATOM      1  N   UNL     1       2.845  -0.526  -2.362  0.00  0.00    -0.285 N 
ATOM      2  C   UNL     1       3.519  -1.824  -2.521  0.00  0.00    +0.145 C 
ATOM      3  C   UNL     1       4.061  -1.835  -3.912  0.00  0.00    +0.072 A 
ATOM      4  C   UNL     1       4.832  -2.847  -4.641  0.00  0.00    +0.199 A 
ATOM      5  O   UNL     1       5.011  -3.978  -4.225  0.00  0.00    -0.287 OA
ATOM      6  C   UNL     1       5.374  -2.363  -5.936  0.00  0.00    +0.065 A 
ATOM      7  C   UNL     1       6.290  -3.135  -6.651  0.00  0.00    +0.030 A 
ATOM      8  C   UNL     1       6.787  -2.667  -7.848  0.00  0.00    +0.019 A 
ATOM      9  C   UNL     1       6.376  -1.434  -8.337  0.00  0.00    +0.019 A 
ATOM     10  C   UNL     1       5.471  -0.665  -7.641  0.00  0.00    +0.048 A 
ATOM     11  C   UNL     1       4.953  -1.117  -6.428  0.00  0.00    +0.140 A 
ATOM     12  O   UNL     1       4.058  -0.345  -5.769  0.00  0.00    -0.450 OA
ATOM     13  C   UNL     1       3.722  -0.650  -4.500  0.00  0.00    +0.199 A 
ATOM     14  C   UNL     1       2.963   0.150  -3.523  0.00  0.00    +0.283 C 
ATOM     15  O   UNL     1       2.512   1.259  -3.732  0.00  0.00    -0.267 OA
ATOM     16 BR   UNL     1       8.028  -3.706  -8.826  0.00  0.00    -0.050 Br
ENDROOT
BRANCH   2  17
ATOM     17  C   UNL     1       2.533  -2.949  -2.337  0.00  0.00    -0.019 A 
ATOM     18  C   UNL     1       1.260  -2.844  -2.865  0.00  0.00    +0.006 A 
ATOM     19  C   UNL     1       0.352  -3.874  -2.698  0.00  0.00    +0.004 A 
ATOM     20  C   UNL     1       0.716  -5.010  -2.002  0.00  0.00    +0.045 A 
ATOM     21  C   UNL     1       1.993  -5.118  -1.471  0.00  0.00    +0.120 A 
ATOM     22  C   UNL     1       2.904  -4.086  -1.645  0.00  0.00    +0.051 A 
BRANCH  21  23
ATOM     23  O   UNL     1       2.353  -6.235  -0.786  0.00  0.00    -0.495 OA
ATOM     24  C   UNL     1       1.367  -7.260  -0.651  0.00  0.00    +0.277 C 
ENDBRANCH  21  23
ENDBRANCH   2  17
BRANCH   1  25
ATOM     25  C   UNL     1       2.159  -0.053  -1.157  0.00  0.00    +0.090 C 
BRANCH  25  26
ATOM     26  C   UNL     1       0.690  -0.478  -1.207  0.00  0.00    -0.060 C 
BRANCH  26  28
ATOM     27  C   UNL     1      -0.018   1.465   0.010  0.00  0.00    -0.097 C 
ATOM     28  N   UNL     1       0.002  -0.004   0.002  0.00  0.00    +0.377 N 
ATOM     29  C   UNL     1      -1.376  -0.512   0.012  0.00  0.00    -0.097 C 
ATOM     30  H   UNL     1       0.490  -0.338   0.820  0.00  0.00    -0.083 HD
ENDBRANCH  26  28
ENDBRANCH  25  26
ENDBRANCH   1  25
TORSDOF 5
