REMARK  Name = ZINC64403893
REMARK  7 active torsions:
REMARK  status: ('A' for Active; 'I' for Inactive)
REMARK    1  A    between atoms: C_3  and  C_6
REMARK    2  A    between atoms: C_8  and  C_12
REMARK    3  A    between atoms: N_14  and  C_15
REMARK    4  A    between atoms: C_15  and  C_16
REMARK    5  A    between atoms: C_16  and  O_17
REMARK    6  A    between atoms: O_17  and  C_18
REMARK    7  A    between atoms: C_24  and  C_28
REMARK                            x       y       z     vdW  Elec       q    Type
REMARK                         _______ _______ _______ _____ _____    ______ ____
ROOT
ATOM      1  C   UNL     1       9.623  -4.890   0.836  0.00  0.00    +0.197 C 
ATOM      2  C   UNL     1      10.540  -5.008  -0.162  0.00  0.00    +0.067 C 
ATOM      3  C   UNL     1      11.081  -6.258  -0.500  0.00  0.00    +0.049 C 
ATOM      4  C   UNL     1      10.683  -7.388   0.182  0.00  0.00    +0.134 C 
ATOM      5  N   UNL     1      11.029  -8.673   0.069  0.00  0.00    -0.265 N 
ATOM      6  N   UNL     1      10.426  -9.439   0.904  0.00  0.00    -0.181 NA
ATOM      7  C   UNL     1       9.530  -8.613   1.729  0.00  0.00    +0.262 C 
ATOM      8  N   UNL     1       9.733  -7.254   1.214  0.00  0.00    -0.204 N 
ATOM      9  N   UNL     1       9.213  -6.001   1.537  0.00  0.00    -0.231 N 
ATOM     10  H   UNL     1       8.562  -5.914   2.251  0.00  0.00    +0.173 HD
ATOM     11  H   UNL     1      11.673  -8.996  -0.582  0.00  0.00    +0.190 HD
ENDROOT
BRANCH   7  12
ATOM     12  C   UNL     1       9.922  -8.696   3.182  0.00  0.00    -0.002 A 
ATOM     13  C   UNL     1       9.714  -7.613   4.016  0.00  0.00    +0.010 A 
ATOM     14  C   UNL     1      10.073  -7.688   5.349  0.00  0.00    +0.039 A 
ATOM     15  C   UNL     1      10.640  -8.848   5.848  0.00  0.00    +0.123 A 
ATOM     16  C   UNL     1      10.848  -9.931   5.012  0.00  0.00    +0.039 A 
ATOM     17  C   UNL     1      10.484  -9.856   3.681  0.00  0.00    +0.010 A 
ATOM     18  F   UNL     1      10.992  -8.922   7.151  0.00  0.00    -0.205 F 
ENDBRANCH   7  12
BRANCH   1  19
ATOM     19  O   UNL     1       9.117  -3.675   1.144  0.00  0.00    -0.477 OA
BRANCH  19  20
ATOM     20  C   UNL     1       8.162  -3.621   2.206  0.00  0.00    +0.249 C 
BRANCH  20  21
ATOM     21  C   UNL     1       7.706  -2.174   2.408  0.00  0.00    +0.145 C 
BRANCH  21  24
ATOM     22  C   UNL     1       6.489  -0.467   1.168  0.00  0.00    +0.243 C 
ATOM     23  O   UNL     1       6.637   0.282   2.110  0.00  0.00    -0.273 OA
ATOM     24  N   UNL     1       6.986  -1.718   1.217  0.00  0.00    -0.310 N 
ATOM     25  H   UNL     1       6.868  -2.317   0.463  0.00  0.00    +0.149 HD
BRANCH  22  28
ATOM     26  C   UNL     1       3.574   0.619  -0.029  0.00  0.00    +0.126 C 
ATOM     27  C   UNL     1       4.318  -0.508  -0.048  0.00  0.00    +0.044 C 
ATOM     28  C   UNL     1       5.748   0.002  -0.058  0.00  0.00    +0.238 C 
ATOM     29  N   UNL     1       5.584   1.465  -0.043  0.00  0.00    -0.170 NA
ATOM     30  N   UNL     1       4.377   1.716  -0.033  0.00  0.00    -0.150 NA
BRANCH  26  33
ATOM     31  C   UNL     1      -0.016   1.343   0.009  0.00  0.00    +0.042 A 
ATOM     32  C   UNL     1       1.325   1.774  -0.001  0.00  0.00    +0.051 A 
ATOM     33  C   UNL     1       2.097   0.654  -0.014  0.00  0.00    +0.154 A 
ATOM     34  O   UNL     1       1.280  -0.417  -0.012  0.00  0.00    -0.461 OA
ATOM     35  C   UNL     1       0.002  -0.004   0.002  0.00  0.00    +0.196 A 
ENDBRANCH  26  33
ENDBRANCH  22  28
ENDBRANCH  21  24
ENDBRANCH  20  21
ENDBRANCH  19  20
ENDBRANCH   1  19
TORSDOF 7
