REMARK  Name = ZINC15451445
REMARK  12 active torsions:
REMARK  status: ('A' for Active; 'I' for Inactive)
REMARK    1  A    between atoms: C_1  and  C_2
REMARK    2  A    between atoms: C_2  and  C_3
REMARK    3  A    between atoms: C_3  and  C_4
REMARK    4  A    between atoms: C_4  and  N_5
REMARK    5  A    between atoms: C_6  and  N_33
REMARK    6  A    between atoms: C_7  and  N_14
REMARK    7  A    between atoms: N_14  and  C_15
REMARK    8  A    between atoms: C_20  and  C_22
REMARK    9  A    between atoms: C_22  and  N_64
REMARK   10  A    between atoms: C_23  and  N_64
REMARK   11  A    between atoms: C_24  and  C_25
REMARK   12  A    between atoms: C_24  and  N_64
REMARK                            x       y       z     vdW  Elec       q    Type
REMARK                         _______ _______ _______ _____ _____    ______ ____
ROOT
ATOM      1  N   UNL     1       1.935   1.213   0.410  0.00  0.00    -0.263 N 
ATOM      2  C   UNL     1       3.052   1.927   0.161  0.00  0.00    +0.204 C 
ATOM      3  O   UNL     1       3.016   3.140   0.190  0.00  0.00    -0.277 OA
ENDROOT
BRANCH   1   6
ATOM      4  N   UNL     1      -1.084   3.210  -0.221  0.00  0.00    -0.280 N 
ATOM      5  C   UNL     1       0.118   2.577  -0.435  0.00  0.00    +0.127 A 
ATOM      6  C   UNL     1       0.702   1.873   0.598  0.00  0.00    +0.140 A 
ATOM      7  C   UNL     1       0.047   1.824   1.843  0.00  0.00    +0.277 A 
ATOM      8  O   UNL     1       0.540   1.208   2.773  0.00  0.00    -0.266 OA
ATOM      9  N   UNL     1      -1.132   2.458   1.999  0.00  0.00    -0.273 N 
ATOM     10  H   UNL     1      -1.602   2.417   2.880  0.00  0.00    +0.173 HD
ATOM     11  C   UNL     1      -1.684   3.144   0.982  0.00  0.00    +0.331 A 
ATOM     12  O   UNL     1      -2.746   3.710   1.151  0.00  0.00    -0.246 OA
BRANCH   5  13
ATOM     13  N   UNL     1       0.731   2.645  -1.663  0.00  0.00    -0.343 N 
ATOM     14  H   UNL     1       1.532   2.126  -1.835  0.00  0.00    +0.144 HD
ATOM     15  H   UNL     1       0.362   3.213  -2.358  0.00  0.00    +0.144 HD
ENDBRANCH   5  13
BRANCH   4  16
ATOM     16  C   UNL     1      -1.715   3.962  -1.308  0.00  0.00    +0.128 C 
BRANCH  16  17
ATOM     17  C   UNL     1      -2.635   3.034  -2.103  0.00  0.00    +0.021 C 
BRANCH  17  19
ATOM     18  C   UNL     1      -4.215   2.890  -4.033  0.00  0.00    +0.004 C 
ATOM     19  C   UNL     1      -3.294   3.819  -3.239  0.00  0.00    -0.002 C 
ENDBRANCH  17  19
ENDBRANCH  16  17
ENDBRANCH   4  16
ENDBRANCH   1   6
BRANCH   1  20
ATOM     20  C   UNL     1       2.002  -0.249   0.484  0.00  0.00    +0.082 C 
ATOM     21  C   UNL     1       2.941  -0.677   1.631  0.00  0.00    +0.023 C 
ATOM     22  C   UNL     1       3.666  -1.930   1.079  0.00  0.00    +0.002 C 
ATOM     23  C   UNL     1       3.889  -1.569  -0.411  0.00  0.00    +0.002 C 
ATOM     24  C   UNL     1       2.604  -0.816  -0.814  0.00  0.00    +0.023 C 
ENDBRANCH   1  20
BRANCH   2  25
ATOM     25  C   UNL     1       4.345   1.220  -0.153  0.00  0.00    +0.019 C 
BRANCH  25  27
ATOM     26  C   UNL     1       5.170   3.036  -1.526  0.00  0.00    -0.095 C 
ATOM     27  N   UNL     1       5.414   2.228  -0.312  0.00  0.00    +0.386 N 
ATOM     28  H   UNL     1       5.413   2.847   0.507  0.00  0.00    -0.081 HD
BRANCH  27  29
ATOM     29  C   UNL     1       6.729   1.560  -0.407  0.00  0.00    -0.041 C 
BRANCH  29  30
ATOM     30  C   UNL     1       7.812   2.596  -0.249  0.00  0.00    -0.044 A 
ATOM     31  C   UNL     1       8.521   3.028  -1.355  0.00  0.00    +0.003 A 
ATOM     32  C   UNL     1       9.514   3.978  -1.211  0.00  0.00    +0.002 A 
ATOM     33  C   UNL     1       9.801   4.497   0.038  0.00  0.00    +0.021 A 
ATOM     34  C   UNL     1       9.092   4.065   1.145  0.00  0.00    +0.059 A 
ATOM     35  C   UNL     1       8.092   3.118   1.000  0.00  0.00    +0.061 A 
ATOM     36 CL   UNL     1       7.197   2.581   2.387  0.00  0.00    -0.082 Cl
ATOM     37 CL   UNL     1       9.451   4.717   2.713  0.00  0.00    -0.082 Cl
ENDBRANCH  29  30
ENDBRANCH  27  29
ENDBRANCH  25  27
ENDBRANCH   2  25
TORSDOF 10
