REMARK  Name = ZINC20363131
REMARK  9 active torsions:
REMARK  status: ('A' for Active; 'I' for Inactive)
REMARK    1  A    between atoms: C_1  and  C_2
REMARK    2  A    between atoms: C_7  and  C_22
REMARK    3  A    between atoms: C_9  and  C_13
REMARK    4  A    between atoms: C_10  and  C_12
REMARK    5  A    between atoms: C_13  and  O_15
REMARK    6  A    between atoms: O_15  and  C_16
REMARK    7  A    between atoms: C_33  and  C_35
REMARK    8  A    between atoms: C_35  and  O_37
REMARK    9  A    between atoms: O_37  and  C_38
REMARK                            x       y       z     vdW  Elec       q    Type
REMARK                         _______ _______ _______ _____ _____    ______ ____
ROOT
ATOM      1  C   UNL     1       6.319   1.460   4.378  0.00  0.00    +0.009 C 
ATOM      2  C   UNL     1       5.433   1.182   3.163  0.00  0.00    +0.013 C 
ATOM      3  C   UNL     1       5.348   2.433   2.286  0.00  0.00    +0.055 C 
ATOM      4  C   UNL     1       4.434   2.169   1.115  0.00  0.00    +0.016 C 
ATOM      5  C   UNL     1       3.393   1.316   1.223  0.00  0.00    +0.025 C 
ATOM      6  C   UNL     1       2.473   1.072   0.054  0.00  0.00    +0.092 C 
ATOM      7  C   UNL     1       3.107   1.515  -1.232  0.00  0.00    +0.065 C 
ATOM      8  C   UNL     1       4.158   2.353  -1.239  0.00  0.00    +0.016 C 
ATOM      9  N   UNL     1       4.681   2.819  -0.065  0.00  0.00    -0.321 N 
ATOM     10  C   UNL     1       4.764   2.782  -2.550  0.00  0.00    +0.061 C 
ATOM     11  C   UNL     1       3.138   0.632   2.424  0.00  0.00    +0.176 C 
ATOM     12  O   UNL     1       2.189  -0.124   2.490  0.00  0.00    -0.291 OA
ATOM     13  C   UNL     1       4.019   0.817   3.630  0.00  0.00    +0.171 C 
ATOM     14  H   UNL     1       5.305   3.724  -0.074  0.00  0.00    +0.152 HD
ENDROOT
BRANCH   6  15
ATOM     15  C   UNL     1       1.192   1.838   0.264  0.00  0.00    -0.032 A 
ATOM     16  C   UNL     1       1.221   3.217   0.357  0.00  0.00    +0.008 A 
ATOM     17  C   UNL     1       0.049   3.925   0.549  0.00  0.00    +0.050 A 
ATOM     18  C   UNL     1      -1.159   3.252   0.649  0.00  0.00    +0.166 A 
ATOM     19  C   UNL     1      -1.188   1.863   0.550  0.00  0.00    +0.167 A 
ATOM     20  C   UNL     1      -0.009   1.161   0.363  0.00  0.00    +0.054 A 
ATOM     21  O   UNL     1      -2.481   1.444   0.673  0.00  0.00    -0.453 OA
ATOM     22  C   UNL     1      -3.288   2.613   0.432  0.00  0.00    +0.466 C 
ATOM     23  O   UNL     1      -2.433   3.703   0.836  0.00  0.00    -0.453 OA
ENDBRANCH   6  15
BRANCH   7  24
ATOM     24  C   UNL     1       2.588   1.043  -2.460  0.00  0.00    +0.338 C 
ATOM     25  O   UNL     1       2.798  -0.104  -2.809  0.00  0.00    -0.245 OA
BRANCH  24  26
ATOM     26  O   UNL     1       1.859   1.864  -3.245  0.00  0.00    -0.458 OA
BRANCH  26  27
ATOM     27  C   UNL     1       1.366   1.320  -4.471  0.00  0.00    +0.177 C 
ATOM     28  C   UNL     1       2.394   1.552  -5.581  0.00  0.00    +0.044 C 
ATOM     29  C   UNL     1       1.866   0.970  -6.894  0.00  0.00    +0.004 C 
ATOM     30  C   UNL     1       0.551   1.658  -7.265  0.00  0.00    +0.000 C 
ATOM     31  C   UNL     1      -0.476   1.427  -6.155  0.00  0.00    +0.004 C 
ATOM     32  C   UNL     1       0.051   2.009  -4.842  0.00  0.00    +0.044 C 
ENDBRANCH  26  27
ENDBRANCH  24  26
ENDBRANCH   7  24
BRANCH  13  33
ATOM     33  C   UNL     1       4.065  -0.463   4.423  0.00  0.00    +0.318 C 
ATOM     34  O   UNL     1       5.119  -1.023   4.606  0.00  0.00    -0.250 OA
BRANCH  33  35
ATOM     35  O   UNL     1       2.933  -0.981   4.927  0.00  0.00    -0.467 OA
ATOM     36  C   UNL     1       3.052  -2.216   5.680  0.00  0.00    +0.280 C 
ENDBRANCH  33  35
ENDBRANCH  13  33
TORSDOF 6
