REMARK  Name = ZINC36545522
REMARK  11 active torsions:
REMARK  status: ('A' for Active; 'I' for Inactive)
REMARK    1  A    between atoms: C_1  and  C_2
REMARK    2  A    between atoms: C_2  and  C_3
REMARK    3  A    between atoms: C_3  and  C_4
REMARK    4  A    between atoms: C_4  and  N_5
REMARK    5  A    between atoms: C_6  and  C_8
REMARK    6  A    between atoms: C_8  and  C_10
REMARK    7  A    between atoms: C_8  and  N_17
REMARK    8  A    between atoms: C_14  and  O_16
REMARK    9  A    between atoms: N_17  and  C_18
REMARK   10  A    between atoms: C_25  and  C_27
REMARK   11  A    between atoms: C_27  and  C_28
REMARK                            x       y       z     vdW  Elec       q    Type
REMARK                         _______ _______ _______ _____ _____    ______ ____
ROOT
ATOM      1  N   UNL     1       2.262  -5.810   3.947  0.00  0.00    -0.254 N 
ATOM      2  C   UNL     1       3.001  -6.410   4.901  0.00  0.00    +0.225 C 
ATOM      3  O   UNL     1       3.424  -5.765   5.837  0.00  0.00    -0.275 OA
ENDROOT
BRANCH   1   4
ATOM      4  C   UNL     1       1.774  -6.555   2.867  0.00  0.00    +0.056 A 
ATOM      5  C   UNL     1       2.630  -6.936   1.842  0.00  0.00    +0.025 A 
ATOM      6  C   UNL     1       2.146  -7.671   0.777  0.00  0.00    +0.002 A 
ATOM      7  C   UNL     1       0.811  -8.027   0.731  0.00  0.00    +0.002 A 
ATOM      8  C   UNL     1      -0.045  -7.649   1.749  0.00  0.00    +0.022 A 
ATOM      9  C   UNL     1       0.434  -6.919   2.821  0.00  0.00    +0.062 A 
ATOM     10 CL   UNL     1      -0.638  -6.452   4.103  0.00  0.00    -0.082 Cl
ENDBRANCH   1   4
BRANCH   1  11
ATOM     11  C   UNL     1       1.969  -4.378   4.041  0.00  0.00    +0.197 C 
BRANCH  11  12
ATOM     12  C   UNL     1       3.244  -3.592   3.873  0.00  0.00    -0.014 A 
ATOM     13  C   UNL     1       4.115  -3.900   2.845  0.00  0.00    +0.006 A 
ATOM     14  C   UNL     1       5.285  -3.181   2.688  0.00  0.00    +0.004 A 
ATOM     15  C   UNL     1       5.587  -2.152   3.560  0.00  0.00    +0.045 A 
ATOM     16  C   UNL     1       4.715  -1.841   4.593  0.00  0.00    +0.117 A 
ATOM     17  C   UNL     1       3.538  -2.561   4.744  0.00  0.00    +0.051 A 
BRANCH  16  18
ATOM     18  O   UNL     1       5.010  -0.830   5.451  0.00  0.00    -0.507 OA
ATOM     19  H   UNL     1       4.675   0.033   5.173  0.00  0.00    +0.292 HD
ENDBRANCH  16  18
ENDBRANCH  11  12
BRANCH  11  21
ATOM     20  N   UNL     1       0.040  -3.074   3.205  0.00  0.00    -0.313 N 
ATOM     21  C   UNL     1       0.995  -3.992   2.958  0.00  0.00    +0.238 C 
ATOM     22  O   UNL     1       1.070  -4.509   1.863  0.00  0.00    -0.273 OA
ATOM     23  H   UNL     1      -0.020  -2.660   4.081  0.00  0.00    +0.149 HD
BRANCH  20  24
ATOM     24  C   UNL     1      -0.907  -2.699   2.152  0.00  0.00    +0.104 C 
BRANCH  24  25
ATOM     25  C   UNL     1      -1.878  -1.646   2.690  0.00  0.00    +0.018 C 
BRANCH  25  27
ATOM     26  C   UNL     1      -3.837  -0.202   2.128  0.00  0.00    +0.004 C 
ATOM     27  C   UNL     1      -2.866  -1.255   1.590  0.00  0.00    -0.002 C 
ENDBRANCH  25  27
ENDBRANCH  24  25
ENDBRANCH  20  24
ENDBRANCH  11  21
ENDBRANCH   1  11
BRANCH   2  28
ATOM     28  C   UNL     1       3.303  -7.884   4.804  0.00  0.00    +0.133 C 
BRANCH  28  29
ATOM     29  C   UNL     1       4.139  -8.304   5.985  0.00  0.00    -0.019 A 
ATOM     30  C   UNL     1       5.517  -8.345   5.877  0.00  0.00    +0.005 A 
ATOM     31  C   UNL     1       6.285  -8.730   6.960  0.00  0.00    +0.002 A 
ATOM     32  C   UNL     1       5.676  -9.075   8.153  0.00  0.00    +0.021 A 
ATOM     33  C   UNL     1       4.298  -9.034   8.263  0.00  0.00    +0.060 A 
ATOM     34  C   UNL     1       3.529  -8.642   7.179  0.00  0.00    +0.063 A 
ATOM     35 CL   UNL     1       1.799  -8.583   7.318  0.00  0.00    -0.082 Cl
ATOM     36 CL   UNL     1       3.533  -9.466   9.760  0.00  0.00    -0.082 Cl
ENDBRANCH  28  29
ENDBRANCH   2  28
TORSDOF 10
