REMARK  Name = ZINC39237549
REMARK  10 active torsions:
REMARK  status: ('A' for Active; 'I' for Inactive)
REMARK    1  A    between atoms: C_1  and  C_2
REMARK    2  A    between atoms: C_2  and  N_3
REMARK    3  A    between atoms: C_4  and  C_30
REMARK    4  A    between atoms: C_8  and  S_10
REMARK    5  A    between atoms: S_10  and  C_11
REMARK    6  A    between atoms: C_13  and  C_24
REMARK    7  A    between atoms: C_32  and  O_38
REMARK    8  A    between atoms: C_34  and  O_36
REMARK    9  A    between atoms: O_36  and  C_37
REMARK   10  A    between atoms: O_38  and  C_39
REMARK                            x       y       z     vdW  Elec       q    Type
REMARK                         _______ _______ _______ _____ _____    ______ ____
ROOT
ATOM      1  C   UNL     1       1.956   0.942   3.704  0.00  0.00    +0.167 C 
ATOM      2  C   UNL     1       1.825   2.247   4.465  0.00  0.00    -0.010 C 
ATOM      3  C   UNL     1       2.522   2.350   5.673  0.00  0.00    +0.003 A 
ATOM      4  C   UNL     1       2.455   3.529   6.445  0.00  0.00    +0.030 A 
ATOM      5  C   UNL     1       3.143   3.603   7.617  0.00  0.00    +0.042 A 
ATOM      6  C   UNL     1       3.915   2.535   8.072  0.00  0.00    +0.022 A 
ATOM      7  C   UNL     1       4.018   1.373   7.370  0.00  0.00    +0.025 A 
ATOM      8  C   UNL     1       3.334   1.226   6.151  0.00  0.00    +0.041 A 
ATOM      9  N   UNL     1       3.436   0.083   5.464  0.00  0.00    -0.284 N 
ATOM     10  C   UNL     1       2.827  -0.132   4.314  0.00  0.00    +0.235 C 
ATOM     11  O   UNL     1       2.966  -1.199   3.744  0.00  0.00    -0.274 OA
ATOM     12 CL   UNL     1       3.057   5.055   8.564  0.00  0.00    -0.084 Cl
ATOM     13  H   UNL     1       3.987  -0.626   5.831  0.00  0.00    +0.155 HD
ENDROOT
BRANCH   2  14
ATOM     14  C   UNL     1       1.032   3.315   3.974  0.00  0.00    -0.020 A 
ATOM     15  C   UNL     1       1.636   4.518   3.575  0.00  0.00    +0.008 A 
ATOM     16  C   UNL     1       0.857   5.549   3.100  0.00  0.00    +0.001 A 
ATOM     17  C   UNL     1      -0.518   5.402   3.014  0.00  0.00    +0.000 A 
ATOM     18  C   UNL     1      -1.124   4.219   3.406  0.00  0.00    +0.001 A 
ATOM     19  C   UNL     1      -0.362   3.174   3.879  0.00  0.00    +0.008 A 
ENDBRANCH   2  14
BRANCH   1  20
ATOM     20  S   UNL     1       2.613   1.322   2.057  0.00  0.00    -0.099 S 
BRANCH  20  25
ATOM     21  N   UNL     1       0.468  -0.060   1.130  0.00  0.00    -0.244 NA
ATOM     22  C   UNL     1       0.232  -1.524   1.059  0.00  0.00    +0.231 C 
ATOM     23  N   UNL     1       1.497  -2.129   1.493  0.00  0.00    -0.166 NA
ATOM     24  N   UNL     1       2.419  -1.307   1.463  0.00  0.00    -0.160 NA
ATOM     25  C   UNL     1       1.946   0.005   1.003  0.00  0.00    +0.259 C 
BRANCH  22  26
ATOM     26  C   UNL     1      -0.888  -1.920   1.987  0.00  0.00    +0.000 A 
ATOM     27  C   UNL     1      -1.909  -1.029   2.256  0.00  0.00    +0.053 A 
ATOM     28  C   UNL     1      -2.941  -1.392   3.110  0.00  0.00    +0.124 A 
ATOM     29  C   UNL     1      -2.947  -2.650   3.693  0.00  0.00    +0.091 A 
ATOM     30  C   UNL     1      -1.921  -3.542   3.421  0.00  0.00    +0.124 A 
ATOM     31  C   UNL     1      -0.895  -3.177   2.562  0.00  0.00    +0.053 A 
BRANCH  30  32
ATOM     32  O   UNL     1      -1.924  -4.776   3.992  0.00  0.00    -0.495 OA
ATOM     33  C   UNL     1      -3.015  -5.086   4.861  0.00  0.00    +0.277 C 
ENDBRANCH  30  32
BRANCH  28  34
ATOM     34  O   UNL     1      -3.945  -0.515   3.375  0.00  0.00    -0.495 OA
ATOM     35  C   UNL     1      -4.974  -0.956   4.263  0.00  0.00    +0.277 C 
ENDBRANCH  28  34
ENDBRANCH  22  26
BRANCH  21  37
ATOM     36  C   UNL     1       0.040   2.142   0.146  0.00  0.00    +0.020 C 
ATOM     37  C   UNL     1      -0.187   0.634   0.014  0.00  0.00    +0.086 C 
ENDBRANCH  21  37
ENDBRANCH  20  25
ENDBRANCH   1  20
TORSDOF 7
