REMARK  Name = ZINC36600213
REMARK  14 active torsions:
REMARK  status: ('A' for Active; 'I' for Inactive)
REMARK    1  A    between atoms: C_1  and  C_2
REMARK    2  A    between atoms: C_2  and  C_3
REMARK    3  A    between atoms: C_3  and  C_4
REMARK    4  A    between atoms: C_4  and  N_5
REMARK    5  A    between atoms: C_6  and  C_8
REMARK    6  A    between atoms: C_8  and  C_10
REMARK    7  A    between atoms: C_8  and  N_17
REMARK    8  A    between atoms: C_15  and  O_16
REMARK    9  A    between atoms: N_17  and  C_18
REMARK   10  A    between atoms: C_18  and  C_19
REMARK   11  A    between atoms: C_22  and  C_24
REMARK   12  A    between atoms: C_25  and  C_27
REMARK   13  A    between atoms: C_27  and  C_28
REMARK   14  A    between atoms: C_27  and  C_34
REMARK                            x       y       z     vdW  Elec       q    Type
REMARK                         _______ _______ _______ _____ _____    ______ ____
ROOT
ATOM      1  N   UNL     1      -4.196  -5.741   0.015  0.00  0.00    -0.278 N 
ATOM      2  C   UNL     1      -4.628  -6.769  -0.742  0.00  0.00    +0.229 C 
ATOM      3  O   UNL     1      -4.796  -6.617  -1.933  0.00  0.00    -0.275 OA
ENDROOT
BRANCH   1   4
ATOM      4  C   UNL     1      -3.860  -4.460  -0.613  0.00  0.00    +0.196 C 
BRANCH   4   5
ATOM      5  C   UNL     1      -4.848  -3.411  -0.173  0.00  0.00    +0.023 A 
ATOM      6  C   UNL     1      -5.612  -3.612   0.961  0.00  0.00    +0.009 A 
ATOM      7  C   UNL     1      -6.519  -2.650   1.364  0.00  0.00    +0.001 A 
ATOM      8  C   UNL     1      -6.664  -1.484   0.635  0.00  0.00    +0.004 A 
ATOM      9  C   UNL     1      -5.902  -1.278  -0.499  0.00  0.00    +0.046 A 
ATOM     10  C   UNL     1      -4.988  -2.239  -0.903  0.00  0.00    +0.122 A 
BRANCH  10  11
ATOM     11  O   UNL     1      -4.233  -2.037  -2.015  0.00  0.00    -0.506 OA
ATOM     12  H   UNL     1      -4.640  -2.360  -2.830  0.00  0.00    +0.292 HD
ENDBRANCH  10  11
ENDBRANCH   4   5
BRANCH   4  14
ATOM     13  N   UNL     1      -1.946  -2.893  -0.657  0.00  0.00    -0.313 N 
ATOM     14  C   UNL     1      -2.471  -4.047  -0.199  0.00  0.00    +0.238 C 
ATOM     15  O   UNL     1      -1.826  -4.753   0.547  0.00  0.00    -0.273 OA
ATOM     16  H   UNL     1      -2.463  -2.329  -1.254  0.00  0.00    +0.149 HD
BRANCH  13  17
ATOM     17  C   UNL     1      -0.596  -2.492  -0.255  0.00  0.00    +0.104 C 
BRANCH  17  18
ATOM     18  C   UNL     1      -0.245  -1.155  -0.910  0.00  0.00    +0.018 C 
BRANCH  18  20
ATOM     19  C   UNL     1       1.516   0.602  -1.145  0.00  0.00    +0.004 C 
ATOM     20  C   UNL     1       1.165  -0.735  -0.490  0.00  0.00    -0.002 C 
ENDBRANCH  18  20
ENDBRANCH  17  18
ENDBRANCH  13  17
ENDBRANCH   4  14
ENDBRANCH   1   4
BRANCH   1  21
ATOM     21  C   UNL     1      -4.063  -5.903   1.465  0.00  0.00    +0.183 C 
BRANCH  21  22
ATOM     22  C   UNL     1      -2.845  -6.739   1.767  0.00  0.00    +0.122 A 
ATOM     23  C   UNL     1      -1.647  -6.270   2.157  0.00  0.00    +0.046 A 
ATOM     24  C   UNL     1      -0.803  -7.392   2.327  0.00  0.00    +0.045 A 
ATOM     25  C   UNL     1      -1.538  -8.480   2.030  0.00  0.00    +0.102 A 
ATOM     26  O   UNL     1      -2.775  -8.078   1.697  0.00  0.00    -0.463 OA
ATOM     27  C   UNL     1      -1.055  -9.907   2.069  0.00  0.00    +0.086 C 
ENDBRANCH  21  22
ENDBRANCH   1  21
BRANCH   2  28
ATOM     28  C   UNL     1      -4.902  -8.108  -0.107  0.00  0.00    +0.135 C 
BRANCH  28  29
ATOM     29  C   UNL     1      -5.970  -7.956   0.945  0.00  0.00    -0.031 A 
ATOM     30  C   UNL     1      -7.037  -7.104   0.730  0.00  0.00    +0.005 A 
ATOM     31  C   UNL     1      -8.017  -6.965   1.695  0.00  0.00    +0.000 A 
ATOM     32  C   UNL     1      -7.930  -7.678   2.876  0.00  0.00    +0.000 A 
ATOM     33  C   UNL     1      -6.863  -8.531   3.091  0.00  0.00    +0.000 A 
ATOM     34  C   UNL     1      -5.886  -8.673   2.124  0.00  0.00    +0.005 A 
ENDBRANCH  28  29
BRANCH  28  35
ATOM     35  C   UNL     1      -5.370  -9.077  -1.162  0.00  0.00    -0.031 A 
ATOM     36  C   UNL     1      -6.474  -8.774  -1.938  0.00  0.00    +0.005 A 
ATOM     37  C   UNL     1      -6.903  -9.664  -2.905  0.00  0.00    +0.000 A 
ATOM     38  C   UNL     1      -6.229 -10.855  -3.097  0.00  0.00    +0.000 A 
ATOM     39  C   UNL     1      -5.126 -11.158  -2.321  0.00  0.00    +0.000 A 
ATOM     40  C   UNL     1      -4.694 -10.267  -1.357  0.00  0.00    +0.005 A 
ENDBRANCH  28  35
ENDBRANCH   2  28
TORSDOF 12
