REMARK  Name = ZINC39674630
REMARK  10 active torsions:
REMARK  status: ('A' for Active; 'I' for Inactive)
REMARK    1  A    between atoms: C_1  and  C_2
REMARK    2  A    between atoms: C_4  and  C_14
REMARK    3  A    between atoms: C_7  and  C_12
REMARK    4  A    between atoms: C_14  and  C_15
REMARK    5  A    between atoms: C_15  and  N_16
REMARK    6  A    between atoms: C_17  and  C_19
REMARK    7  A    between atoms: C_30  and  C_32
REMARK    8  A    between atoms: C_37  and  O_38
REMARK    9  A    between atoms: O_38  and  C_39
REMARK   10  A    between atoms: C_39  and  C_41
REMARK                            x       y       z     vdW  Elec       q    Type
REMARK                         _______ _______ _______ _____ _____    ______ ____
ROOT
ATOM      1  C   UNL     1      -7.024  -1.492  -2.017  0.00  0.00    +0.100 C 
ATOM      2  C   UNL     1      -6.571  -1.776  -3.467  0.00  0.00    +0.121 C 
ATOM      3  N   UNL     1      -7.164  -3.095  -3.793  0.00  0.00    -0.296 N 
ATOM      4  C   UNL     1      -8.510  -3.057  -3.174  0.00  0.00    +0.115 C 
ATOM      5  C   UNL     1      -8.299  -2.332  -1.830  0.00  0.00    -0.004 C 
ATOM      6  C   UNL     1      -9.489  -1.426  -1.526  0.00  0.00    -0.010 C 
ATOM      7  C   UNL     1     -10.732  -2.287  -1.287  0.00  0.00    -0.082 C 
ATOM      8  N   UNL     1     -10.488  -3.201  -0.164  0.00  0.00    +0.379 N 
ATOM      9  C   UNL     1      -9.403  -4.130  -0.502  0.00  0.00    -0.082 C 
ATOM     10  C   UNL     1      -8.104  -3.347  -0.709  0.00  0.00    -0.010 C 
ATOM     11  C   UNL     1      -6.604  -4.101  -4.494  0.00  0.00    +0.250 C 
ATOM     12  O   UNL     1      -7.256  -5.092  -4.760  0.00  0.00    -0.270 OA
ATOM     13  H   UNL     1     -10.230  -2.667   0.652  0.00  0.00    -0.086 HD
ATOM     14  H   UNL     1     -11.329  -3.724   0.031  0.00  0.00    -0.086 HD
ENDROOT
BRANCH  11  15
ATOM     15  C   UNL     1      -5.201  -4.000  -4.938  0.00  0.00    +0.079 A 
ATOM     16  C   UNL     1      -4.673  -2.764  -5.320  0.00  0.00    +0.017 A 
ATOM     17  C   UNL     1      -3.361  -2.676  -5.734  0.00  0.00    +0.001 A 
ATOM     18  C   UNL     1      -2.563  -3.808  -5.773  0.00  0.00    +0.004 A 
ATOM     19  C   UNL     1      -3.073  -5.036  -5.399  0.00  0.00    +0.047 A 
ATOM     20  C   UNL     1      -4.389  -5.141  -4.975  0.00  0.00    +0.144 A 
BRANCH  20  21
ATOM     21  O   UNL     1      -4.890  -6.346  -4.601  0.00  0.00    -0.425 OA
BRANCH  21  22
ATOM     22  C   UNL     1      -4.847  -6.671  -3.299  0.00  0.00    +0.309 C 
ATOM     23  O   UNL     1      -4.455  -5.865  -2.488  0.00  0.00    -0.251 OA
ATOM     24  C   UNL     1      -5.286  -8.040  -2.848  0.00  0.00    +0.136 C 
ENDBRANCH  21  22
ENDBRANCH  20  21
ENDBRANCH  11  15
BRANCH   1  26
ATOM     25  N   UNL     1      -5.832  -1.292   0.141  0.00  0.00    -0.315 N 
ATOM     26  C   UNL     1      -5.962  -1.927  -1.041  0.00  0.00    +0.218 C 
ATOM     27  O   UNL     1      -5.224  -2.849  -1.318  0.00  0.00    -0.275 OA
ATOM     28  H   UNL     1      -6.422  -0.554   0.362  0.00  0.00    +0.149 HD
BRANCH  25  29
ATOM     29  C   UNL     1      -4.799  -1.714   1.090  0.00  0.00    +0.108 C 
BRANCH  29  30
ATOM     30  C   UNL     1      -4.866  -0.836   2.341  0.00  0.00    +0.052 C 
BRANCH  30  33
ATOM     31  C   UNL     1      -4.747  -0.810   5.579  0.00  0.00    +0.035 C 
ATOM     32  C   UNL     1      -3.519  -0.674   4.677  0.00  0.00    +0.103 C 
ATOM     33  C   UNL     1      -3.803  -1.270   3.317  0.00  0.00    -0.037 C 
ATOM     34  C   UNL     1      -2.908  -2.278   3.154  0.00  0.00    +0.000 A 
ATOM     35  C   UNL     1      -2.691  -3.189   2.087  0.00  0.00    +0.028 A 
ATOM     36  C   UNL     1      -1.695  -4.133   2.178  0.00  0.00    +0.052 A 
ATOM     37  C   UNL     1      -0.843  -4.224   3.359  0.00  0.00    +0.021 A 
ATOM     38  C   UNL     1      -1.002  -3.385   4.403  0.00  0.00    +0.027 A 
ATOM     39  C   UNL     1      -2.051  -2.359   4.358  0.00  0.00    +0.043 A 
ATOM     40  N   UNL     1      -2.399  -1.442   5.229  0.00  0.00    -0.378 N 
ATOM     41  H   UNL     1      -1.985  -1.296   6.094  0.00  0.00    +0.160 HD
BRANCH  36  42
ATOM     42  C   UNL     1      -1.490  -5.044   1.093  0.00  0.00    +0.099 C 
ATOM     43  N   UNL     1      -1.328  -5.767   0.232  0.00  0.00    -0.191 NA
ENDBRANCH  36  42
ENDBRANCH  30  33
ENDBRANCH  29  30
ENDBRANCH  25  29
ENDBRANCH   1  26
TORSDOF 8
