REMARK  Name = ZINC16758541
REMARK  10 active torsions:
REMARK  status: ('A' for Active; 'I' for Inactive)
REMARK    1  A    between atoms: C_1  and  C_2
REMARK    2  A    between atoms: N_13  and  C_32
REMARK    3  A    between atoms: C_14  and  S_16
REMARK    4  A    between atoms: S_16  and  C_17
REMARK    5  A    between atoms: C_17  and  C_18
REMARK    6  A    between atoms: N_20  and  C_21
REMARK    7  A    between atoms: N_20  and  C_26
REMARK    8  A    between atoms: C_21  and  C_22
REMARK    9  A    between atoms: C_22  and  C_23
REMARK   10  A    between atoms: C_32  and  C_33
REMARK                            x       y       z     vdW  Elec       q    Type
REMARK                         _______ _______ _______ _____ _____    ______ ____
ROOT
ATOM      1  C   UNL     1      -1.808  -1.056  -9.296  0.00  0.00    +0.008 C 
ATOM      2  C   UNL     1      -1.690  -1.189  -7.776  0.00  0.00    -0.009 C 
ATOM      3  C   UNL     1      -0.660  -0.186  -7.248  0.00  0.00    +0.008 C 
ATOM      4  C   UNL     1      -0.718  -0.139  -5.721  0.00  0.00    +0.037 C 
ATOM      5  C   UNL     1      -0.591  -1.561  -5.180  0.00  0.00    -0.023 A 
ATOM      6  C   UNL     1      -0.826  -2.624  -5.974  0.00  0.00    -0.004 A 
ATOM      7  S   UNL     1      -0.563  -4.039  -4.939  0.00  0.00    -0.073 S 
ATOM      8  C   UNL     1      -0.134  -3.195  -3.438  0.00  0.00    +0.117 A 
ATOM      9  C   UNL     1      -0.212  -1.838  -3.793  0.00  0.00    +0.076 A 
ATOM     10  C   UNL     1       0.086  -0.903  -2.751  0.00  0.00    +0.263 A 
ATOM     11  O   UNL     1       0.039   0.296  -2.965  0.00  0.00    -0.267 OA
ATOM     12  N   UNL     1       0.421  -1.366  -1.533  0.00  0.00    -0.283 N 
ATOM     13  C   UNL     1       0.473  -2.705  -1.274  0.00  0.00    +0.173 A 
ATOM     14  N   UNL     1       0.198  -3.587  -2.214  0.00  0.00    -0.216 NA
ATOM     15  C   UNL     1      -1.225  -2.608  -7.418  0.00  0.00    +0.046 C 
ENDROOT
BRANCH  13  16
ATOM     16  S   UNL     1       0.911  -3.262   0.339  0.00  0.00    -0.078 S 
BRANCH  16  17
ATOM     17  C   UNL     1       0.815  -5.052   0.091  0.00  0.00    +0.173 C 
BRANCH  17  18
ATOM     18  C   UNL     1       1.161  -5.757   1.377  0.00  0.00    +0.230 C 
ATOM     19  O   UNL     1       1.349  -5.115   2.389  0.00  0.00    -0.274 OA
ATOM     20  N   UNL     1       1.261  -7.101   1.403  0.00  0.00    -0.270 N 
BRANCH  20  21
ATOM     21  C   UNL     1       1.152  -7.834   0.216  0.00  0.00    +0.036 A 
ATOM     22  C   UNL     1      -0.060  -7.887  -0.460  0.00  0.00    +0.023 A 
ATOM     23  C   UNL     1      -0.163  -8.607  -1.634  0.00  0.00    +0.002 A 
ATOM     24  C   UNL     1       0.936  -9.284  -2.130  0.00  0.00    +0.000 A 
ATOM     25  C   UNL     1       2.143  -9.237  -1.457  0.00  0.00    +0.002 A 
ATOM     26  C   UNL     1       2.253  -8.514  -0.285  0.00  0.00    +0.023 A 
ENDBRANCH  20  21
BRANCH  20  27
ATOM     27  C   UNL     1       1.484  -7.794   2.675  0.00  0.00    +0.123 C 
BRANCH  27  28
ATOM     28  C   UNL     1       0.135  -8.138   3.311  0.00  0.00    +0.115 C 
BRANCH  28  29
ATOM     29  C   UNL     1       0.365  -8.851   4.619  0.00  0.00    +0.212 C 
ATOM     30  O   UNL     1       1.495  -9.064   5.004  0.00  0.00    -0.276 OA
ATOM     31  N   UNL     1      -0.686  -9.253   5.361  0.00  0.00    -0.329 N 
ATOM     32  H   UNL     1      -1.590  -9.083   5.053  0.00  0.00    +0.145 HD
ATOM     33  H   UNL     1      -0.539  -9.712   6.202  0.00  0.00    +0.145 HD
ENDBRANCH  28  29
ENDBRANCH  27  28
ENDBRANCH  20  27
ENDBRANCH  17  18
ENDBRANCH  16  17
ENDBRANCH  13  16
BRANCH  12  34
ATOM     34  C   UNL     1       0.733  -0.415  -0.463  0.00  0.00    +0.154 C 
BRANCH  34  35
ATOM     35  C   UNL     1       2.208  -0.110  -0.476  0.00  0.00    -0.013 C 
ATOM     36  C   UNL     1       2.620   1.131  -0.560  0.00  0.00    +0.005 C 
ENDBRANCH  34  35
ENDBRANCH  12  34
TORSDOF 9
