REMARK  Name = ZINC23553153
REMARK  11 active torsions:
REMARK  status: ('A' for Active; 'I' for Inactive)
REMARK    1  A    between atoms: C_1  and  C_2
REMARK    2  A    between atoms: C_2  and  O_3
REMARK    3  A    between atoms: O_3  and  C_4
REMARK    4  A    between atoms: C_9  and  C_10
REMARK    5  A    between atoms: C_10  and  S_11
REMARK    6  A    between atoms: S_11  and  C_12
REMARK    7  A    between atoms: N_22  and  C_23
REMARK    8  A    between atoms: C_23  and  C_24
REMARK    9  A    between atoms: C_24  and  C_25
REMARK   10  A    between atoms: C_28  and  S_31
REMARK   11  A    between atoms: S_31  and  N_34
REMARK                            x       y       z     vdW  Elec       q    Type
REMARK                         _______ _______ _______ _____ _____    ______ ____
ROOT
ATOM      1  C   UNL     1      -0.022   1.758   0.012  0.00  0.00    +0.172 A 
ATOM      2  N   UNL     1      -1.182   2.366   0.021  0.00  0.00    -0.223 NA
ATOM      3  C   UNL     1      -1.274   3.712   0.034  0.00  0.00    +0.079 A 
ATOM      4  C   UNL     1      -2.512   4.361   0.049  0.00  0.00    +0.028 A 
ATOM      5  C   UNL     1      -2.559   5.727   0.056  0.00  0.00    +0.002 A 
ATOM      6  C   UNL     1      -1.393   6.482   0.049  0.00  0.00    +0.001 A 
ATOM      7  C   UNL     1      -0.168   5.876   0.035  0.00  0.00    +0.015 A 
ATOM      8  C   UNL     1      -0.090   4.484   0.027  0.00  0.00    +0.065 A 
ATOM      9  C   UNL     1       1.198   3.778   0.011  0.00  0.00    +0.262 A 
ATOM     10  O   UNL     1       2.252   4.388   0.004  0.00  0.00    -0.267 OA
ATOM     11  N   UNL     1       1.170   2.425   0.004  0.00  0.00    -0.287 N 
ENDROOT
BRANCH   1  12
ATOM     12  S   UNL     1       0.002  -0.004   0.002  0.00  0.00    -0.083 S 
BRANCH  12  13
ATOM     13  C   UNL     1      -1.776  -0.343   0.017  0.00  0.00    +0.116 C 
BRANCH  13  19
ATOM     14  C   UNL     1      -2.097  -2.525   1.210  0.00  0.00    +0.124 A 
ATOM     15  C   UNL     1      -2.307  -3.896   1.201  0.00  0.00    +0.046 A 
ATOM     16  C   UNL     1      -2.423  -4.569  -0.000  0.00  0.00    +0.004 A 
ATOM     17  C   UNL     1      -2.330  -3.876  -1.194  0.00  0.00    +0.001 A 
ATOM     18  C   UNL     1      -2.125  -2.508  -1.187  0.00  0.00    +0.008 A 
ATOM     19  C   UNL     1      -2.004  -1.832   0.011  0.00  0.00    +0.004 A 
BRANCH  14  20
ATOM     20  O   UNL     1      -1.983  -1.861   2.390  0.00  0.00    -0.492 OA
BRANCH  20  22
ATOM     21  C   UNL     1      -1.938  -1.726   4.803  0.00  0.00    +0.048 C 
ATOM     22  C   UNL     1      -2.090  -2.639   3.584  0.00  0.00    +0.225 C 
ENDBRANCH  20  22
ENDBRANCH  14  20
ENDBRANCH  13  19
ENDBRANCH  12  13
ENDBRANCH   1  12
BRANCH  11  23
ATOM     23  C   UNL     1       2.426   1.671  -0.013  0.00  0.00    +0.132 C 
BRANCH  23  24
ATOM     24  C   UNL     1       2.849   1.417  -1.461  0.00  0.00    +0.057 C 
BRANCH  24  25
ATOM     25  C   UNL     1       4.141   0.641  -1.478  0.00  0.00    -0.046 A 
ATOM     26  C   UNL     1       5.349   1.312  -1.491  0.00  0.00    +0.005 A 
ATOM     27  C   UNL     1       6.535   0.600  -1.502  0.00  0.00    +0.029 A 
ATOM     28  C   UNL     1       6.511  -0.782  -1.509  0.00  0.00    +0.105 A 
ATOM     29  C   UNL     1       5.302  -1.453  -1.501  0.00  0.00    +0.029 A 
ATOM     30  C   UNL     1       4.117  -0.741  -1.485  0.00  0.00    +0.005 A 
BRANCH  28  31
ATOM     31  S   UNL     1       8.021  -1.689  -1.528  0.00  0.00    +0.056 S 
ATOM     32  O   UNL     1       9.016  -0.833  -0.982  0.00  0.00    -0.153 OA
ATOM     33  O   UNL     1       7.734  -2.969  -0.980  0.00  0.00    -0.153 OA
BRANCH  31  34
ATOM     34  N   UNL     1       8.426  -1.934  -3.115  0.00  0.00    -0.204 NA
ATOM     35  H   UNL     1       9.368  -2.499  -3.170  0.00  0.00    +0.144 HD
ATOM     36  H   UNL     1       8.552  -0.962  -3.615  0.00  0.00    +0.144 HD
ENDBRANCH  31  34
ENDBRANCH  28  31
ENDBRANCH  24  25
ENDBRANCH  23  24
ENDBRANCH  11  23
TORSDOF 10
