REMARK  Name = ZINC04954364
REMARK  4 active torsions:
REMARK  status: ('A' for Active; 'I' for Inactive)
REMARK    1  A    between atoms: N_13  and  C_17
REMARK    2  A    between atoms: C_17  and  C_18
REMARK    3  A    between atoms: N_20  and  C_21
REMARK    4  A    between atoms: C_21  and  C_22
REMARK                            x       y       z     vdW  Elec       q    Type
REMARK                         _______ _______ _______ _____ _____    ______ ____
ROOT
ATOM      1  C   UNL     1     -11.392   0.962  -2.396  0.00  0.00    +0.000 A 
ATOM      2  C   UNL     1     -10.122   1.058  -2.934  0.00  0.00    +0.000 A 
ATOM      3  C   UNL     1      -9.059   0.455  -2.294  0.00  0.00    +0.006 A 
ATOM      4  C   UNL     1      -9.254  -0.247  -1.112  0.00  0.00    -0.012 A 
ATOM      5  C   UNL     1     -10.518  -0.336  -0.571  0.00  0.00    -0.042 A 
ATOM      6  C   UNL     1     -11.587   0.269  -1.220  0.00  0.00    +0.004 A 
ATOM      7  C   UNL     1     -10.797  -1.063   0.718  0.00  0.00    +0.035 C 
ATOM      8  C   UNL     1      -9.655  -2.017   1.059  0.00  0.00    +0.008 C 
ATOM      9  C   UNL     1      -8.334  -1.239   0.991  0.00  0.00    +0.040 C 
ATOM     10  C   UNL     1      -8.058  -0.888  -0.465  0.00  0.00    +0.138 C 
ATOM     11  C   UNL     1      -6.856   0.024  -0.567  0.00  0.00    +0.251 C 
ATOM     12  O   UNL     1      -6.736   1.134  -0.093  0.00  0.00    -0.272 OA
ATOM     13  N   UNL     1      -5.947  -0.656  -1.294  0.00  0.00    -0.215 N 
ATOM     14  C   UNL     1      -6.409  -1.856  -1.665  0.00  0.00    +0.310 C 
ATOM     15  O   UNL     1      -5.773  -2.650  -2.330  0.00  0.00    -0.252 OA
ATOM     16  N   UNL     1      -7.657  -2.088  -1.214  0.00  0.00    -0.281 N 
ATOM     17  H   UNL     1      -8.187  -2.887  -1.357  0.00  0.00    +0.152 HD
ENDROOT
BRANCH  13  18
ATOM     18  C   UNL     1      -4.620  -0.142  -1.642  0.00  0.00    +0.213 C 
BRANCH  18  19
ATOM     19  C   UNL     1      -3.634  -0.530  -0.570  0.00  0.00    +0.231 C 
ATOM     20  O   UNL     1      -4.004  -1.173   0.390  0.00  0.00    -0.274 OA
ATOM     21  N   UNL     1      -2.342  -0.163  -0.677  0.00  0.00    -0.310 N 
ATOM     22  H   UNL     1      -2.046   0.351  -1.445  0.00  0.00    +0.149 HD
BRANCH  21  23
ATOM     23  C   UNL     1      -1.384  -0.541   0.365  0.00  0.00    +0.152 C 
BRANCH  23  24
ATOM     24  C   UNL     1       0.002  -0.004   0.002  0.00  0.00    +0.228 C 
ATOM     25  C   UNL     1       1.028  -0.476   1.041  0.00  0.00    +0.275 C 
ATOM     26  O   UNL     1       2.308   0.053   0.679  0.00  0.00    -0.485 OA
ATOM     27  C   UNL     1       2.351   1.370   0.338  0.00  0.00    +0.162 A 
ATOM     28  C   UNL     1       3.570   2.031   0.328  0.00  0.00    +0.049 A 
ATOM     29  C   UNL     1       3.630   3.368  -0.019  0.00  0.00    +0.004 A 
ATOM     30  C   UNL     1       2.475   4.049  -0.357  0.00  0.00    +0.004 A 
ATOM     31  C   UNL     1       1.257   3.397  -0.347  0.00  0.00    +0.049 A 
ATOM     32  C   UNL     1       1.190   2.056   0.002  0.00  0.00    +0.163 A 
ATOM     33  O   UNL     1      -0.017   1.427   0.010  0.00  0.00    -0.480 OA
ENDBRANCH  23  24
ENDBRANCH  21  23
ENDBRANCH  18  19
ENDBRANCH  13  18
TORSDOF 4
