REMARK  Name = ZINC41400732
REMARK  12 active torsions:
REMARK  status: ('A' for Active; 'I' for Inactive)
REMARK    1  A    between atoms: C_1  and  C_2
REMARK    2  A    between atoms: C_6  and  C_8
REMARK    3  A    between atoms: C_8  and  C_10
REMARK    4  A    between atoms: C_8  and  N_27
REMARK    5  A    between atoms: C_10  and  C_11
REMARK    6  A    between atoms: N_13  and  C_14
REMARK    7  A    between atoms: C_14  and  C_15
REMARK    8  A    between atoms: C_15  and  C_17
REMARK    9  A    between atoms: C_15  and  N_20
REMARK   10  A    between atoms: C_17  and  C_18
REMARK   11  A    between atoms: C_17  and  C_19
REMARK   12  A    between atoms: C_23  and  C_26
REMARK                            x       y       z     vdW  Elec       q    Type
REMARK                         _______ _______ _______ _____ _____    ______ ____
ROOT
ATOM      1  C   UNL     1      -1.671  -3.575   4.709  0.00  0.00    +0.215 C 
ATOM      2  O   UNL     1      -0.732  -3.867   5.419  0.00  0.00    -0.276 OA
ATOM      3  N   UNL     1      -2.931  -3.794   5.135  0.00  0.00    -0.317 N 
ATOM      4  H   UNL     1      -3.682  -3.560   4.567  0.00  0.00    +0.149 HD
ENDROOT
BRANCH   1   5
ATOM      5  C   UNL     1      -1.429  -2.967   3.352  0.00  0.00    +0.122 C 
BRANCH   5   6
ATOM      6  C   UNL     1       0.076  -2.826   3.117  0.00  0.00    +0.113 C 
BRANCH   6  12
ATOM      7  C   UNL     1       0.518  -2.919  -1.867  0.00  0.00    +0.044 C 
ATOM      8  C   UNL     1       0.529  -2.152  -0.570  0.00  0.00    -0.050 A 
ATOM      9  C   UNL     1       0.759  -0.789  -0.575  0.00  0.00    +0.003 A 
ATOM     10  C   UNL     1       0.769  -0.085   0.615  0.00  0.00    +0.001 A 
ATOM     11  C   UNL     1       0.548  -0.745   1.810  0.00  0.00    +0.005 A 
ATOM     12  C   UNL     1       0.317  -2.108   1.814  0.00  0.00    -0.026 A 
ATOM     13  C   UNL     1       0.303  -2.811   0.624  0.00  0.00    +0.008 A 
ENDBRANCH   6  12
BRANCH   6  14
ATOM     14  N   UNL     1       0.688  -4.157   3.061  0.00  0.00    -0.292 N 
ATOM     15  C   UNL     1       1.970  -4.325   3.440  0.00  0.00    +0.298 C 
ATOM     16  O   UNL     1       2.591  -3.394   3.914  0.00  0.00    -0.253 OA
ATOM     17  N   UNL     1       2.564  -5.527   3.293  0.00  0.00    -0.313 N 
ATOM     18  H   UNL     1       0.170  -4.916   2.750  0.00  0.00    +0.151 HD
ATOM     19  H   UNL     1       2.068  -6.269   2.915  0.00  0.00    +0.146 HD
ATOM     20  H   UNL     1       3.487  -5.648   3.566  0.00  0.00    +0.146 HD
ENDBRANCH   6  14
ENDBRANCH   5   6
ENDBRANCH   1   5
BRANCH   3  21
ATOM     21  C   UNL     1      -3.166  -4.385   6.455  0.00  0.00    +0.089 C 
BRANCH  21  22
ATOM     22  C   UNL     1      -4.662  -4.648   6.636  0.00  0.00    -0.049 C 
BRANCH  22  23
ATOM     23  N   UNL     1      -5.416  -3.428   6.319  0.00  0.00    +0.383 N 
ATOM     24  C   UNL     1      -4.908  -2.316   7.130  0.00  0.00    -0.078 C 
ATOM     25  C   UNL     1      -5.635  -1.025   6.746  0.00  0.00    -0.016 C 
ATOM     26  C   UNL     1      -7.136  -1.197   6.997  0.00  0.00    -0.018 C 
ATOM     27  C   UNL     1      -7.640  -2.406   6.203  0.00  0.00    -0.016 C 
ATOM     28  C   UNL     1      -6.839  -3.645   6.607  0.00  0.00    -0.078 C 
ATOM     29  C   UNL     1      -7.878   0.061   6.541  0.00  0.00    +0.007 C 
ATOM     30  H   UNL     1      -5.302  -3.208   5.341  0.00  0.00    -0.081 HD
ENDBRANCH  22  23
BRANCH  22  31
ATOM     31  C   UNL     1      -5.099  -5.776   5.698  0.00  0.00    -0.029 C 
ATOM     32  C   UNL     1      -4.738  -5.409   4.257  0.00  0.00    +0.005 C 
ATOM     33  C   UNL     1      -4.383  -7.070   6.089  0.00  0.00    +0.005 C 
ENDBRANCH  22  31
ENDBRANCH  21  22
ENDBRANCH   3  21
TORSDOF 8
