REMARK  Name = ZINC64347906
REMARK  5 active torsions:
REMARK  status: ('A' for Active; 'I' for Inactive)
REMARK    1  A    between atoms: C_1  and  S_2
REMARK    2  A    between atoms: S_2  and  C_5
REMARK    3  A    between atoms: C_7  and  N_10
REMARK    4  A    between atoms: C_11  and  C_13
REMARK    5  A    between atoms: C_13  and  N_14
REMARK                            x       y       z     vdW  Elec       q    Type
REMARK                         _______ _______ _______ _____ _____    ______ ____
ROOT
ATOM      1  N   UNL     1       0.789  -1.766  -7.475  0.00  0.00    -0.330 N 
ATOM      2  C   UNL     1       1.534  -0.747  -8.039  0.00  0.00    +0.054 A 
ATOM      3  C   UNL     1       0.931   0.425  -8.481  0.00  0.00    +0.026 A 
ATOM      4  C   UNL     1       1.703   1.427  -9.031  0.00  0.00    +0.002 A 
ATOM      5  C   UNL     1       3.077   1.280  -9.150  0.00  0.00    +0.001 A 
ATOM      6  C   UNL     1       3.694   0.129  -8.724  0.00  0.00    +0.014 A 
ATOM      7  C   UNL     1       2.929  -0.893  -8.168  0.00  0.00    +0.046 A 
ATOM      8  C   UNL     1       3.540  -2.157  -7.703  0.00  0.00    +0.197 A 
ATOM      9  O   UNL     1       4.714  -2.235  -7.392  0.00  0.00    -0.287 OA
ATOM     10  C   UNL     1       2.628  -3.319  -7.640  0.00  0.00    +0.046 A 
ATOM     11  C   UNL     1       1.249  -3.070  -7.526  0.00  0.00    +0.054 A 
ATOM     12  C   UNL     1       0.370  -4.145  -7.470  0.00  0.00    +0.026 A 
ATOM     13  C   UNL     1       0.861  -5.433  -7.514  0.00  0.00    +0.002 A 
ATOM     14  C   UNL     1       2.224  -5.670  -7.616  0.00  0.00    +0.001 A 
ATOM     15  C   UNL     1       3.105  -4.627  -7.686  0.00  0.00    +0.014 A 
ENDROOT
BRANCH   1  16
ATOM     16  C   UNL     1      -0.486  -1.465  -6.819  0.00  0.00    +0.223 C 
BRANCH  16  18
ATOM     17  N   UNL     1       0.968  -1.210  -4.882  0.00  0.00    -0.174 NA
ATOM     18  C   UNL     1      -0.242  -1.169  -5.361  0.00  0.00    +0.269 C 
ATOM     19  O   UNL     1      -1.276  -0.864  -4.554  0.00  0.00    -0.269 OA
BRANCH  17  22
ATOM     20  C   UNL     1       0.845  -0.437  -1.483  0.00  0.00    +0.290 A 
ATOM     21  N   UNL     1       0.270  -0.631  -2.668  0.00  0.00    -0.174 NA
ATOM     22  C   UNL     1       1.188  -0.943  -3.563  0.00  0.00    +0.251 A 
ATOM     23  N   UNL     1       2.389  -0.949  -2.937  0.00  0.00    -0.241 N 
ATOM     24  N   UNL     1       2.136  -0.613  -1.597  0.00  0.00    -0.132 NA
ATOM     25  H   UNL     1       3.252  -1.142  -3.335  0.00  0.00    +0.192 HD
BRANCH  20  27
ATOM     26  C   UNL     1      -0.022   1.810   0.012  0.00  0.00    +0.204 C 
ATOM     27  S   UNL     1       0.002  -0.004   0.002  0.00  0.00    +0.030 S 
ATOM     28  O   UNL     1       0.835  -0.488   1.046  0.00  0.00    -0.167 OA
ATOM     29  O   UNL     1      -1.315  -0.510  -0.168  0.00  0.00    -0.167 OA
ENDBRANCH  20  27
ENDBRANCH  17  22
ENDBRANCH  16  18
ENDBRANCH   1  16
TORSDOF 4
