REMARK  Name = ZINC06445523
REMARK  9 active torsions:
REMARK  status: ('A' for Active; 'I' for Inactive)
REMARK    1  A    between atoms: C_5  and  C_7
REMARK    2  A    between atoms: C_7  and  N_8
REMARK    3  A    between atoms: N_8  and  C_9
REMARK    4  A    between atoms: C_9  and  C_11
REMARK    5  A    between atoms: C_9  and  C_17
REMARK    6  A    between atoms: N_19  and  C_20
REMARK    7  A    between atoms: C_25  and  C_27
REMARK    8  A    between atoms: C_28  and  N_35
REMARK    9  A    between atoms: C_29  and  C_32
REMARK                            x       y       z     vdW  Elec       q    Type
REMARK                         _______ _______ _______ _____ _____    ______ ____
ROOT
ATOM      1  N   UNL     1      -2.842  -2.074  -0.838  0.00  0.00    -0.277 N 
ATOM      2  C   UNL     1      -2.106  -2.264   0.276  0.00  0.00    +0.258 C 
ATOM      3  O   UNL     1      -1.000  -2.765   0.196  0.00  0.00    -0.269 OA
ENDROOT
BRANCH   2   4
ATOM      4  C   UNL     1      -2.638  -1.868   1.581  0.00  0.00    +0.115 A 
ATOM      5  C   UNL     1      -2.591  -2.548   2.799  0.00  0.00    +0.076 A 
ATOM      6  C   UNL     1      -3.210  -1.841   3.830  0.00  0.00    +0.155 A 
ATOM      7  N   UNL     1      -3.759  -0.675   3.571  0.00  0.00    -0.203 NA
ATOM      8  S   UNL     1      -3.526  -0.394   2.038  0.00  0.00    +0.019 S 
BRANCH   6   9
ATOM      9  C   UNL     1      -3.256  -2.399   5.194  0.00  0.00    +0.262 C 
ATOM     10  O   UNL     1      -2.747  -3.479   5.426  0.00  0.00    -0.269 OA
ATOM     11  N   UNL     1      -3.862  -1.713   6.183  0.00  0.00    -0.324 N 
ATOM     12  H   UNL     1      -4.268  -0.852   5.998  0.00  0.00    +0.145 HD
ATOM     13  H   UNL     1      -3.892  -2.080   7.080  0.00  0.00    +0.145 HD
ENDBRANCH   6   9
BRANCH   5  14
ATOM     14  N   UNL     1      -1.989  -3.788   2.967  0.00  0.00    -0.355 N 
ATOM     15  H   UNL     1      -1.571  -4.231   2.212  0.00  0.00    +0.142 HD
ATOM     16  H   UNL     1      -1.988  -4.212   3.840  0.00  0.00    +0.142 HD
ENDBRANCH   5  14
ENDBRANCH   2   4
BRANCH   1  17
ATOM     17  C   UNL     1      -4.231  -1.623  -0.730  0.00  0.00    +0.145 C 
BRANCH  17  22
ATOM     18  C   UNL     1      -6.566  -3.826  -2.716  0.00  0.00    +0.000 A 
ATOM     19  C   UNL     1      -6.854  -4.822  -1.800  0.00  0.00    +0.001 A 
ATOM     20  C   UNL     1      -6.293  -4.782  -0.538  0.00  0.00    +0.020 A 
ATOM     21  C   UNL     1      -5.443  -3.746  -0.190  0.00  0.00    +0.046 A 
ATOM     22  C   UNL     1      -5.156  -2.751  -1.107  0.00  0.00    -0.012 A 
ATOM     23  C   UNL     1      -5.718  -2.791  -2.369  0.00  0.00    +0.006 A 
ATOM     24 CL   UNL     1      -4.733  -3.700   1.393  0.00  0.00    -0.083 Cl
ENDBRANCH  17  22
ENDBRANCH   1  17
BRANCH   1  25
ATOM     25  C   UNL     1      -2.251  -2.318  -2.156  0.00  0.00    +0.193 C 
BRANCH  25  26
ATOM     26  C   UNL     1      -1.214  -1.264  -2.445  0.00  0.00    -0.015 A 
ATOM     27  C   UNL     1      -0.657  -0.516  -1.419  0.00  0.00    +0.025 A 
ATOM     28  C   UNL     1       0.295   0.439  -1.721  0.00  0.00    +0.111 A 
ATOM     29  N   UNL     1       0.667   0.648  -2.969  0.00  0.00    -0.263 NA
ATOM     30  C   UNL     1       0.157  -0.041  -3.970  0.00  0.00    +0.111 A 
ATOM     31  C   UNL     1      -0.797  -1.016  -3.744  0.00  0.00    +0.025 A 
ENDBRANCH  25  26
BRANCH  25  32
ATOM     32  C   UNL     1      -1.603  -3.679  -2.172  0.00  0.00    +0.238 C 
ATOM     33  O   UNL     1      -1.632  -4.376  -1.180  0.00  0.00    -0.273 OA
ATOM     34  N   UNL     1      -0.992  -4.121  -3.289  0.00  0.00    -0.311 N 
ATOM     35  H   UNL     1      -0.969  -3.563  -4.083  0.00  0.00    +0.149 HD
BRANCH  34  36
ATOM     36  C   UNL     1      -0.362  -5.444  -3.305  0.00  0.00    +0.073 C 
ATOM     37  C   UNL     1       1.095  -5.341  -2.810  0.00  0.00    +0.022 C 
ATOM     38  C   UNL     1       1.868  -6.353  -3.692  0.00  0.00    +0.002 C 
ATOM     39  C   UNL     1       1.193  -6.186  -5.075  0.00  0.00    +0.002 C 
ATOM     40  C   UNL     1      -0.300  -5.981  -4.745  0.00  0.00    +0.022 C 
ENDBRANCH  34  36
ENDBRANCH  25  32
ENDBRANCH   1  25
TORSDOF 9
