REMARK  Name = ZINC09949457
REMARK  10 active torsions:
REMARK  status: ('A' for Active; 'I' for Inactive)
REMARK    1  A    between atoms: C_1  and  C_2
REMARK    2  A    between atoms: C_2  and  N_3
REMARK    3  A    between atoms: N_3  and  C_4
REMARK    4  A    between atoms: C_4  and  C_5
REMARK    5  A    between atoms: C_14  and  C_16
REMARK    6  A    between atoms: C_16  and  N_17
REMARK    7  A    between atoms: C_20  and  C_24
REMARK    8  A    between atoms: C_20  and  C_30
REMARK    9  A    between atoms: C_33  and  C_37
REMARK   10  A    between atoms: C_34  and  C_36
REMARK                            x       y       z     vdW  Elec       q    Type
REMARK                         _______ _______ _______ _____ _____    ______ ____
ROOT
ATOM      1  N   UNL     1      -0.504   4.264   4.231  0.00  0.00    -0.215 N 
ATOM      2  C   UNL     1       0.383   4.864   5.050  0.00  0.00    +0.256 C 
ATOM      3  O   UNL     1       0.798   4.449   6.111  0.00  0.00    -0.272 OA
ATOM      4  C   UNL     1       0.754   6.166   4.368  0.00  0.00    +0.164 C 
ATOM      5  N   UNL     1      -0.047   6.150   3.132  0.00  0.00    -0.278 N 
ATOM      6  C   UNL     1      -0.747   5.001   3.142  0.00  0.00    +0.310 C 
ATOM      7  O   UNL     1      -1.515   4.670   2.260  0.00  0.00    -0.252 OA
ATOM      8  H   UNL     1      -0.066   6.834   2.445  0.00  0.00    +0.152 HD
ENDROOT
BRANCH   4   9
ATOM      9  C   UNL     1       2.225   6.204   4.046  0.00  0.00    -0.010 A 
ATOM     10  C   UNL     1       3.155   5.917   5.028  0.00  0.00    +0.007 A 
ATOM     11  C   UNL     1       4.505   5.951   4.733  0.00  0.00    +0.004 A 
ATOM     12  C   UNL     1       4.926   6.272   3.455  0.00  0.00    -0.048 A 
ATOM     13  C   UNL     1       3.996   6.558   2.474  0.00  0.00    -0.047 A 
ATOM     14  C   UNL     1       2.645   6.519   2.768  0.00  0.00    +0.010 A 
ATOM     15  C   UNL     1       4.454   6.907   1.081  0.00  0.00    +0.044 C 
ATOM     16  C   UNL     1       6.397   6.309   3.133  0.00  0.00    +0.044 C 
ENDBRANCH   4   9
BRANCH   4  17
ATOM     17  C   UNL     1       0.372   7.340   5.232  0.00  0.00    -0.011 A 
ATOM     18  C   UNL     1      -0.318   8.406   4.684  0.00  0.00    +0.006 A 
ATOM     19  C   UNL     1      -0.673   9.480   5.478  0.00  0.00    +0.000 A 
ATOM     20  C   UNL     1      -0.329   9.495   6.816  0.00  0.00    +0.000 A 
ATOM     21  C   UNL     1       0.365   8.432   7.363  0.00  0.00    +0.000 A 
ATOM     22  C   UNL     1       0.716   7.354   6.571  0.00  0.00    +0.006 A 
ENDBRANCH   4  17
BRANCH   1  23
ATOM     23  C   UNL     1      -1.128   2.967   4.504  0.00  0.00    +0.213 C 
BRANCH  23  25
ATOM     24  N   UNL     1      -0.661   0.581   4.047  0.00  0.00    -0.296 N 
ATOM     25  C   UNL     1      -0.280   1.868   3.918  0.00  0.00    +0.234 C 
ATOM     26  O   UNL     1       0.745   2.141   3.330  0.00  0.00    -0.274 OA
BRANCH  24  28
ATOM     27  C   UNL     1      -1.596   0.043   6.241  0.00  0.00    +0.024 C 
ATOM     28  C   UNL     1      -1.899   0.252   4.756  0.00  0.00    +0.105 C 
ENDBRANCH  24  28
BRANCH  24  29
ATOM     29  C   UNL     1       0.164  -0.487   3.477  0.00  0.00    +0.143 C 
BRANCH  29  30
ATOM     30  C   UNL     1      -0.277  -0.761   2.062  0.00  0.00    -0.026 A 
ATOM     31  C   UNL     1       0.302  -0.071   1.013  0.00  0.00    +0.009 A 
ATOM     32  C   UNL     1      -0.098  -0.319  -0.286  0.00  0.00    +0.050 A 
ATOM     33  C   UNL     1      -1.081  -1.262  -0.541  0.00  0.00    +0.166 A 
ATOM     34  C   UNL     1      -1.664  -1.958   0.515  0.00  0.00    +0.167 A 
ATOM     35  C   UNL     1      -1.254  -1.707   1.815  0.00  0.00    +0.054 A 
ATOM     36  O   UNL     1      -2.593  -2.820   0.010  0.00  0.00    -0.453 OA
ATOM     37  C   UNL     1      -2.285  -2.939  -1.391  0.00  0.00    +0.466 C 
ATOM     38  O   UNL     1      -1.645  -1.689  -1.708  0.00  0.00    -0.453 OA
ENDBRANCH  29  30
ENDBRANCH  24  29
ENDBRANCH  23  25
ENDBRANCH   1  23
TORSDOF 7
