REMARK  Name = ZINC08910658
REMARK  6 active torsions:
REMARK  status: ('A' for Active; 'I' for Inactive)
REMARK    1  A    between atoms: C_1  and  C_2
REMARK    2  A    between atoms: C_5  and  N_9
REMARK    3  A    between atoms: C_6  and  C_8
REMARK    4  A    between atoms: C_10  and  N_19
REMARK    5  A    between atoms: C_20  and  C_22
REMARK    6  A    between atoms: C_22  and  N_23
REMARK                            x       y       z     vdW  Elec       q    Type
REMARK                         _______ _______ _______ _____ _____    ______ ____
ROOT
ATOM      1  N   UNL     1      -0.061  -0.076  -0.266  0.00  0.00    -0.217 N 
ATOM      2  C   UNL     1      -1.130  -0.841   0.066  0.00  0.00    +0.134 A 
ATOM      3  C   UNL     1      -0.673  -2.120   0.288  0.00  0.00    +0.038 A 
ATOM      4  C   UNL     1       0.698  -2.120   0.094  0.00  0.00    +0.091 A 
ATOM      5  N   UNL     1       1.071  -0.893  -0.240  0.00  0.00    -0.168 NA
ATOM      6  C   UNL     1       1.420  -3.451   0.296  0.00  0.00    +0.223 C 
ATOM      7  S   UNL     1       0.154  -4.433   1.200  0.00  0.00    -0.021 S 
ATOM      8  O   UNL     1       0.352  -4.284   2.599  0.00  0.00    -0.174 OA
ATOM      9  O   UNL     1       0.074  -5.734   0.633  0.00  0.00    -0.174 OA
ATOM     10  C   UNL     1      -1.312  -3.450   0.683  0.00  0.00    +0.206 C 
ENDROOT
BRANCH   1  15
ATOM     11  C   UNL     1      -0.165   5.459  -1.517  0.00  0.00    +0.044 C 
ATOM     12  C   UNL     1      -0.137   3.989  -1.185  0.00  0.00    -0.050 A 
ATOM     13  C   UNL     1      -1.048   3.131  -1.774  0.00  0.00    +0.005 A 
ATOM     14  C   UNL     1      -1.022   1.783  -1.476  0.00  0.00    +0.028 A 
ATOM     15  C   UNL     1      -0.087   1.291  -0.575  0.00  0.00    +0.070 A 
ATOM     16  C   UNL     1       0.827   2.154   0.014  0.00  0.00    -0.025 A 
ATOM     17  C   UNL     1       0.799   3.501  -0.292  0.00  0.00    +0.008 A 
ATOM     18  C   UNL     1       1.848   1.623   0.987  0.00  0.00    +0.046 C 
ENDBRANCH   1  15
BRANCH   2  19
ATOM     19  N   UNL     1      -2.453  -0.411   0.162  0.00  0.00    -0.269 N 
ATOM     20  C   UNL     1      -3.461  -1.274  -0.069  0.00  0.00    +0.236 C 
ATOM     21  O   UNL     1      -3.220  -2.438  -0.310  0.00  0.00    -0.274 OA
ATOM     22  H   UNL     1      -2.647   0.510   0.396  0.00  0.00    +0.156 HD
BRANCH  20  23
ATOM     23  C   UNL     1      -4.889  -0.794  -0.028  0.00  0.00    +0.213 C 
BRANCH  23  24
ATOM     24  N   UNL     1      -5.790  -1.915  -0.310  0.00  0.00    -0.225 N 
ATOM     25  C   UNL     1      -6.214  -2.259  -1.540  0.00  0.00    +0.254 C 
ATOM     26  O   UNL     1      -5.916  -1.700  -2.575  0.00  0.00    -0.270 OA
ATOM     27  C   UNL     1      -7.102  -3.435  -1.419  0.00  0.00    +0.049 A 
ATOM     28  C   UNL     1      -7.812  -4.209  -2.323  0.00  0.00    +0.014 A 
ATOM     29  C   UNL     1      -8.576  -5.271  -1.867  0.00  0.00    +0.001 A 
ATOM     30  C   UNL     1      -8.636  -5.563  -0.517  0.00  0.00    +0.001 A 
ATOM     31  C   UNL     1      -7.931  -4.798   0.399  0.00  0.00    +0.014 A 
ATOM     32  C   UNL     1      -7.162  -3.733  -0.043  0.00  0.00    +0.049 A 
ATOM     33  C   UNL     1      -6.305  -2.732   0.626  0.00  0.00    +0.254 C 
ATOM     34  O   UNL     1      -6.101  -2.658   1.821  0.00  0.00    -0.270 OA
ENDBRANCH  23  24
ENDBRANCH  20  23
ENDBRANCH   2  19
TORSDOF 4
