REMARK  Name = ZINC01141094
REMARK  10 active torsions:
REMARK  status: ('A' for Active; 'I' for Inactive)
REMARK    1  A    between atoms: C_1  and  C_2
REMARK    2  A    between atoms: C_3  and  C_31
REMARK    3  A    between atoms: C_4  and  C_20
REMARK    4  A    between atoms: C_10  and  C_15
REMARK    5  A    between atoms: C_22  and  O_29
REMARK    6  A    between atoms: C_23  and  O_27
REMARK    7  A    between atoms: O_27  and  C_28
REMARK    8  A    between atoms: O_29  and  C_30
REMARK    9  A    between atoms: C_31  and  O_33
REMARK   10  A    between atoms: O_33  and  C_34
REMARK                            x       y       z     vdW  Elec       q    Type
REMARK                         _______ _______ _______ _____ _____    ______ ____
ROOT
ATOM      1  C   UNL     1      -6.993  -0.412   3.795  0.00  0.00    +0.061 C 
ATOM      2  C   UNL     1      -6.532   0.173   2.485  0.00  0.00    +0.016 C 
ATOM      3  C   UNL     1      -7.072  -0.262   1.333  0.00  0.00    +0.065 C 
ATOM      4  C   UNL     1      -6.642   0.302   0.011  0.00  0.00    +0.093 C 
ATOM      5  C   UNL     1      -5.319   1.016   0.132  0.00  0.00    +0.024 C 
ATOM      6  C   UNL     1      -4.854   1.406   1.338  0.00  0.00    +0.016 C 
ATOM      7  N   UNL     1      -5.568   1.141   2.476  0.00  0.00    -0.321 N 
ATOM      8  C   UNL     1      -3.544   2.143   1.464  0.00  0.00    +0.060 C 
ATOM      9  C   UNL     1      -2.593   1.692   0.352  0.00  0.00    +0.039 C 
ATOM     10  C   UNL     1      -3.259   1.969  -1.000  0.00  0.00    +0.088 C 
ATOM     11  C   UNL     1      -4.590   1.268  -1.043  0.00  0.00    +0.162 C 
ATOM     12  O   UNL     1      -5.042   0.913  -2.114  0.00  0.00    -0.292 OA
ATOM     13  H   UNL     1      -5.358   1.718   3.389  0.00  0.00    +0.152 HD
ENDROOT
BRANCH   4  14
ATOM     14  C   UNL     1      -7.687   1.273  -0.475  0.00  0.00    -0.018 A 
ATOM     15  C   UNL     1      -7.978   2.402   0.268  0.00  0.00    +0.055 A 
ATOM     16  C   UNL     1      -8.938   3.296  -0.177  0.00  0.00    +0.162 A 
ATOM     17  C   UNL     1      -9.607   3.055  -1.373  0.00  0.00    +0.163 A 
ATOM     18  C   UNL     1      -9.312   1.923  -2.114  0.00  0.00    +0.065 A 
ATOM     19  C   UNL     1      -8.348   1.036  -1.666  0.00  0.00    +0.026 A 
ATOM     20 BR   UNL     1      -7.940  -0.505  -2.682  0.00  0.00    -0.050 Br
BRANCH  17  21
ATOM     21  O   UNL     1     -10.551   3.930  -1.814  0.00  0.00    -0.491 OA
ATOM     22  C   UNL     1     -11.197   3.619  -3.050  0.00  0.00    +0.277 C 
ENDBRANCH  17  21
BRANCH  16  23
ATOM     23  O   UNL     1      -9.225   4.407   0.553  0.00  0.00    -0.491 OA
ATOM     24  C   UNL     1      -8.499   4.588   1.771  0.00  0.00    +0.277 C 
ENDBRANCH  16  23
ENDBRANCH   4  14
BRANCH   9  25
ATOM     25  C   UNL     1      -1.302   2.463   0.448  0.00  0.00    -0.006 A 
ATOM     26  C   UNL     1      -0.040   1.997   0.617  0.00  0.00    +0.011 A 
ATOM     27  C   UNL     1       1.006   2.899   0.670  0.00  0.00    +0.008 A 
ATOM     28  C   UNL     1       0.739   4.223   0.557  0.00  0.00    +0.045 A 
ATOM     29  S   UNL     1      -1.036   4.227   0.368  0.00  0.00    -0.101 S 
ENDBRANCH   9  25
BRANCH   3  30
ATOM     30  C   UNL     1      -8.063  -1.270   1.368  0.00  0.00    +0.337 C 
ATOM     31  O   UNL     1      -8.334  -1.821   2.419  0.00  0.00    -0.245 OA
BRANCH  30  32
ATOM     32  O   UNL     1      -8.710  -1.620   0.237  0.00  0.00    -0.465 OA
ATOM     33  C   UNL     1      -9.700  -2.646   0.346  0.00  0.00    +0.280 C 
ENDBRANCH  30  32
ENDBRANCH   3  30
TORSDOF 6
