REMARK  Name = ZINC39964783
REMARK  10 active torsions:
REMARK  status: ('A' for Active; 'I' for Inactive)
REMARK    1  A    between atoms: C_1  and  C_2
REMARK    2  A    between atoms: C_7  and  C_12
REMARK    3  A    between atoms: C_12  and  C_34
REMARK    4  A    between atoms: C_13  and  C_14
REMARK    5  A    between atoms: C_16  and  C_33
REMARK    6  A    between atoms: N_18  and  C_22
REMARK    7  A    between atoms: C_19  and  C_21
REMARK    8  A    between atoms: C_25  and  N_30
REMARK    9  A    between atoms: C_27  and  O_28
REMARK   10  A    between atoms: O_28  and  C_29
REMARK                            x       y       z     vdW  Elec       q    Type
REMARK                         _______ _______ _______ _____ _____    ______ ____
ROOT
ATOM      1  C   UNL     1      -0.055  -6.893   2.857  0.00  0.00    -0.028 C 
ATOM      2  C   UNL     1      -0.260  -7.947   3.640  0.00  0.00    +0.000 C 
ATOM      3  C   UNL     1      -1.732  -8.255   3.703  0.00  0.00    +0.094 C 
ATOM      4  N   UNL     1      -2.422  -7.267   2.863  0.00  0.00    -0.314 N 
ATOM      5  C   UNL     1      -1.372  -6.392   2.325  0.00  0.00    +0.101 C 
ATOM      6  C   UNL     1      -1.376  -6.460   0.797  0.00  0.00    +0.033 C 
ATOM      7  C   UNL     1      -1.991  -9.666   3.170  0.00  0.00    +0.032 C 
ENDROOT
BRANCH   4   8
ATOM      8  C   UNL     1      -3.799  -7.174   2.629  0.00  0.00    +0.073 A 
ATOM      9  C   UNL     1      -4.594  -6.396   3.458  0.00  0.00    +0.029 A 
ATOM     10  C   UNL     1      -5.954  -6.305   3.224  0.00  0.00    +0.035 A 
ATOM     11  C   UNL     1      -6.524  -6.989   2.166  0.00  0.00    +0.130 A 
ATOM     12  C   UNL     1      -5.737  -7.767   1.337  0.00  0.00    +0.080 A 
ATOM     13  C   UNL     1      -4.373  -7.858   1.560  0.00  0.00    +0.143 A 
BRANCH  11  14
ATOM     14  N   UNL     1      -7.980  -6.889   1.922  0.00  0.00    +0.057 N 
ATOM     15  O   UNL     1      -8.669  -6.209   2.646  0.00  0.00    -0.126 OA
ATOM     16  O   UNL     1      -8.480  -7.486   0.997  0.00  0.00    -0.126 OA
ENDBRANCH  11  14
BRANCH  13  17
ATOM     17  O   UNL     1      -3.598  -8.617   0.741  0.00  0.00    -0.493 OA
ATOM     18  C   UNL     1      -4.255  -9.290  -0.335  0.00  0.00    +0.277 C 
ENDBRANCH  13  17
ENDBRANCH   4   8
BRANCH   1  20
ATOM     19  C   UNL     1       2.050  -5.890   3.569  0.00  0.00    +0.072 C 
ATOM     20  C   UNL     1       1.252  -6.304   2.561  0.00  0.00    +0.023 C 
BRANCH  19  27
ATOM     21  C   UNL     1       5.120  -5.993   9.847  0.00  0.00    +0.044 C 
ATOM     22  C   UNL     1       4.210  -5.586   8.717  0.00  0.00    -0.048 A 
ATOM     23  C   UNL     1       3.846  -4.233   8.598  0.00  0.00    +0.005 A 
ATOM     24  C   UNL     1       3.036  -3.782   7.619  0.00  0.00    +0.027 A 
ATOM     25  C   UNL     1       2.503  -4.726   6.627  0.00  0.00    +0.060 A 
ATOM     26  N   UNL     1       1.719  -4.579   5.598  0.00  0.00    -0.359 N 
ATOM     27  C   UNL     1       1.542  -5.903   4.987  0.00  0.00    +0.216 C 
ATOM     28  N   UNL     1       2.328  -6.841   5.798  0.00  0.00    -0.359 N 
ATOM     29  C   UNL     1       2.888  -6.158   6.753  0.00  0.00    +0.061 A 
ATOM     30  C   UNL     1       3.781  -6.532   7.859  0.00  0.00    +0.030 A 
ATOM     31  H   UNL     1       1.323  -3.748   5.292  0.00  0.00    +0.162 HD
ATOM     32  H   UNL     1       2.413  -7.796   5.649  0.00  0.00    +0.162 HD
ENDBRANCH  19  27
BRANCH  19  33
ATOM     33  C   UNL     1       3.381  -5.439   3.290  0.00  0.00    +0.099 C 
ATOM     34  N   UNL     1       4.436  -5.081   3.068  0.00  0.00    -0.191 NA
ENDBRANCH  19  33
ENDBRANCH   1  20
TORSDOF 6
