REMARK  Name = ZINC58401641
REMARK  3 active torsions:
REMARK  status: ('A' for Active; 'I' for Inactive)
REMARK    1  A    between atoms: C_1  and  C_2
REMARK    2  A    between atoms: N_11  and  C_15
REMARK    3  A    between atoms: C_15  and  C_16
REMARK                            x       y       z     vdW  Elec       q    Type
REMARK                         _______ _______ _______ _____ _____    ______ ____
ROOT
ATOM      1  C   UNL     1       0.900   1.504   4.347  0.00  0.00    +0.214 C 
ENDROOT
BRANCH   1  11
ATOM      2  C   UNL     1      -0.028   1.523   0.012  0.00  0.00    +0.010 C 
ATOM      3  C   UNL     1      -0.007  -0.007   0.004  0.00  0.00    +0.018 C 
ATOM      4  C   UNL     1      -1.443  -0.537   0.016  0.00  0.00    +0.006 C 
ATOM      5  C   UNL     1      -1.421  -2.067   0.029  0.00  0.00    +0.000 C 
ATOM      6  C   UNL     1      -0.696  -2.556   1.284  0.00  0.00    +0.003 C 
ATOM      7  C   UNL     1       0.743  -2.035   1.278  0.00  0.00    +0.035 C 
ATOM      8  C   UNL     1       0.734  -0.511   1.238  0.00  0.00    +0.115 C 
ATOM      9  C   UNL     1       0.106   0.047   2.495  0.00  0.00    +0.247 C 
ATOM     10  O   UNL     1      -1.028  -0.126   2.887  0.00  0.00    -0.273 OA
ATOM     11  N   UNL     1       1.073   0.777   3.088  0.00  0.00    -0.215 N 
ATOM     12  C   UNL     1       2.211   0.754   2.382  0.00  0.00    +0.310 C 
ATOM     13  O   UNL     1       3.224   1.337   2.714  0.00  0.00    -0.252 OA
ATOM     14  N   UNL     1       2.106   0.012   1.263  0.00  0.00    -0.285 N 
ATOM     15  H   UNL     1       2.800  -0.146   0.604  0.00  0.00    +0.151 HD
ENDBRANCH   1  11
BRANCH   1  16
ATOM     16  C   UNL     1       1.265   0.606   5.501  0.00  0.00    +0.236 C 
ATOM     17  O   UNL     1       1.633  -0.530   5.291  0.00  0.00    -0.274 OA
ATOM     18  N   UNL     1       1.182   1.065   6.765  0.00  0.00    -0.269 N 
ATOM     19  C   UNL     1       1.416   0.206   7.834  0.00  0.00    +0.126 A 
ATOM     20  C   UNL     1       1.221   0.671   9.142  0.00  0.00    +0.044 A 
ATOM     21  C   UNL     1       1.446  -0.159  10.199  0.00  0.00    +0.013 A 
ATOM     22  C   UNL     1       1.872  -1.476   9.934  0.00  0.00    +0.001 A 
ATOM     23  C   UNL     1       2.122  -2.384  10.975  0.00  0.00    +0.010 A 
ATOM     24  C   UNL     1       2.533  -3.649  10.682  0.00  0.00    +0.001 A 
ATOM     25  C   UNL     1       2.709  -4.054   9.361  0.00  0.00    +0.002 A 
ATOM     26  C   UNL     1       2.477  -3.199   8.327  0.00  0.00    +0.028 A 
ATOM     27  C   UNL     1       2.051  -1.886   8.590  0.00  0.00    +0.073 A 
ATOM     28  N   UNL     1       1.810  -1.027   7.593  0.00  0.00    -0.232 NA
ATOM     29  H   UNL     1       0.959   1.995   6.930  0.00  0.00    +0.156 HD
ENDBRANCH   1  16
TORSDOF 2
