REMARK  Name = ZINC05382614
REMARK  3 active torsions:
REMARK  status: ('A' for Active; 'I' for Inactive)
REMARK    1  A    between atoms: C_7  and  N_12
REMARK    2  A    between atoms: C_8  and  C_9
REMARK    3  A    between atoms: C_13  and  C_15
REMARK                            x       y       z     vdW  Elec       q    Type
REMARK                         _______ _______ _______ _____ _____    ______ ____
ROOT
ATOM      1  C   UNL     1      -0.019   1.523   0.010  0.00  0.00    +0.001 C 
ATOM      2  C   UNL     1       0.002  -0.004   0.002  0.00  0.00    +0.005 C 
ATOM      3  C   UNL     1       0.683  -0.535   1.259  0.00  0.00    +0.037 C 
ATOM      4  C   UNL     1       2.179  -0.684   1.016  0.00  0.00    -0.023 A 
ATOM      5  C   UNL     1       2.846   0.061   0.110  0.00  0.00    -0.004 A 
ATOM      6  S   UNL     1       4.530  -0.479   0.225  0.00  0.00    -0.077 S 
ATOM      7  C   UNL     1       4.353  -1.687   1.453  0.00  0.00    +0.085 A 
ATOM      8  C   UNL     1       2.999  -1.642   1.746  0.00  0.00    +0.068 A 
ATOM      9  C   UNL     1       2.288   1.105  -0.807  0.00  0.00    +0.043 C 
ATOM     10  C   UNL     1       1.406   2.068  -0.000  0.00  0.00    +0.005 C 
ENDROOT
BRANCH   8  11
ATOM     11  C   UNL     1       2.412  -2.527   2.757  0.00  0.00    +0.244 C 
ATOM     12  O   UNL     1       1.983  -3.619   2.434  0.00  0.00    -0.270 OA
ATOM     13  N   UNL     1       2.347  -2.131   4.044  0.00  0.00    -0.325 N 
ATOM     14  H   UNL     1       2.689  -1.260   4.301  0.00  0.00    +0.145 HD
ATOM     15  H   UNL     1       1.959  -2.716   4.713  0.00  0.00    +0.145 HD
ENDBRANCH   8  11
BRANCH   7  16
ATOM     16  N   UNL     1       5.328  -2.501   2.008  0.00  0.00    -0.275 N 
ATOM     17  C   UNL     1       6.606  -2.401   1.592  0.00  0.00    +0.254 C 
ATOM     18  O   UNL     1       6.904  -1.596   0.730  0.00  0.00    -0.270 OA
ATOM     19  H   UNL     1       5.090  -3.142   2.696  0.00  0.00    +0.156 HD
BRANCH  17  20
ATOM     20  C   UNL     1       7.643  -3.266   2.182  0.00  0.00    +0.113 A 
ATOM     21  C   UNL     1       7.921  -4.516   1.616  0.00  0.00    +0.176 A 
ATOM     22  C   UNL     1       8.899  -5.320   2.172  0.00  0.00    +0.197 A 
ATOM     23  C   UNL     1       9.595  -4.897   3.295  0.00  0.00    +0.199 A 
ATOM     24  C   UNL     1       9.320  -3.662   3.864  0.00  0.00    +0.197 A 
ATOM     25  C   UNL     1       8.349  -2.845   3.315  0.00  0.00    +0.176 A 
ATOM     26  F   UNL     1       8.082  -1.643   3.871  0.00  0.00    -0.201 F 
ATOM     27  F   UNL     1      10.003  -3.257   4.957  0.00  0.00    -0.199 F 
ATOM     28  F   UNL     1      10.545  -5.690   3.836  0.00  0.00    -0.199 F 
ATOM     29  F   UNL     1       9.173  -6.524   1.623  0.00  0.00    -0.199 F 
ATOM     30  F   UNL     1       7.240  -4.932   0.526  0.00  0.00    -0.201 F 
ENDBRANCH  17  20
ENDBRANCH   7  16
TORSDOF 3
