REMARK  Name = ZINC05286201
REMARK  4 active torsions:
REMARK  status: ('A' for Active; 'I' for Inactive)
REMARK    1  A    between atoms: C_6  and  N_7
REMARK    2  A    between atoms: N_7  and  N_8
REMARK    3  A    between atoms: C_9  and  C_10
REMARK    4  A    between atoms: C_9  and  C_12
REMARK                            x       y       z     vdW  Elec       q    Type
REMARK                         _______ _______ _______ _____ _____    ______ ____
ROOT
ATOM      1  N   UNL     1      -1.174  -2.012   0.008  0.00  0.00    -0.177 NA
ATOM      2  C   UNL     1      -2.302  -2.685   0.110  0.00  0.00    +0.151 C 
ENDROOT
BRANCH   2   3
ATOM      3  C   UNL     1      -3.594  -1.966   0.128  0.00  0.00    +0.160 A 
ATOM      4  C   UNL     1      -4.225  -1.622  -1.092  0.00  0.00    +0.299 A 
ATOM      5  O   UNL     1      -3.641  -1.954  -2.269  0.00  0.00    -0.263 OA
ATOM      6  N   UNL     1      -5.375  -0.983  -1.090  0.00  0.00    -0.206 NA
ATOM      7  C   UNL     1      -5.953  -0.654   0.074  0.00  0.00    +0.093 A 
ATOM      8  C   UNL     1      -7.181   0.027   0.101  0.00  0.00    +0.031 A 
ATOM      9  C   UNL     1      -7.749   0.350   1.296  0.00  0.00    +0.022 A 
ATOM     10  C   UNL     1      -7.130   0.013   2.498  0.00  0.00    +0.043 A 
ATOM     11  C   UNL     1      -5.938  -0.648   2.510  0.00  0.00    +0.050 A 
ATOM     12  C   UNL     1      -5.323  -0.997   1.296  0.00  0.00    +0.092 A 
ATOM     13  N   UNL     1      -4.156  -1.653   1.282  0.00  0.00    -0.238 NA
ATOM     14 CL   UNL     1      -7.886   0.442   4.001  0.00  0.00    -0.083 Cl
ENDBRANCH   2   3
BRANCH   1  15
ATOM     15  N   UNL     1      -1.189  -0.722   0.030  0.00  0.00    -0.237 N 
ATOM     16  H   UNL     1      -2.035  -0.247   0.047  0.00  0.00    +0.174 HD
BRANCH  15  22
ATOM     17  C   UNL     1      -0.004   1.379   0.052  0.00  0.00    +0.026 A 
ATOM     18  C   UNL     1       1.186   2.080   0.051  0.00  0.00    +0.017 A 
ATOM     19  C   UNL     1       2.391   1.401   0.027  0.00  0.00    +0.018 A 
ATOM     20  C   UNL     1       2.409   0.017   0.003  0.00  0.00    +0.017 A 
ATOM     21  C   UNL     1       1.223  -0.690   0.004  0.00  0.00    +0.026 A 
ATOM     22  C   UNL     1       0.011  -0.011   0.029  0.00  0.00    +0.048 A 
ATOM     23 BR   UNL     1       4.018   2.365   0.025  0.00  0.00    -0.050 Br
ENDBRANCH  15  22
ENDBRANCH   1  15
BRANCH   2  24
ATOM     24  C   UNL     1      -2.276  -4.143   0.205  0.00  0.00    +0.282 C 
ATOM     25  O   UNL     1      -1.215  -4.728   0.283  0.00  0.00    -0.294 OA
ENDBRANCH   2  24
TORSDOF 4
