REMARK  Name = ZINC22893206
REMARK  3 active torsions:
REMARK  status: ('A' for Active; 'I' for Inactive)
REMARK    1  A    between atoms: C_10  and  N_11
REMARK    2  A    between atoms: N_17  and  C_20
REMARK    3  A    between atoms: C_20  and  C_21
REMARK                            x       y       z     vdW  Elec       q    Type
REMARK                         _______ _______ _______ _____ _____    ______ ____
ROOT
ATOM      1  N   UNL     1       4.871   0.098  -0.038  0.00  0.00    -0.269 N 
ATOM      2  C   UNL     1       6.047  -0.555   0.043  0.00  0.00    +0.307 C 
ATOM      3  O   UNL     1       6.069  -1.771   0.033  0.00  0.00    -0.252 OA
ATOM      4  N   UNL     1       7.198   0.139   0.137  0.00  0.00    -0.283 N 
ATOM      5  C   UNL     1       7.189   1.604   0.262  0.00  0.00    +0.124 C 
ATOM      6  C   UNL     1       8.129   2.189  -0.796  0.00  0.00    +0.104 C 
ATOM      7  N   UNL     1       9.453   1.564  -0.670  0.00  0.00    -0.294 NA
ATOM      8  C   UNL     1       9.388   0.120  -0.935  0.00  0.00    +0.104 C 
ATOM      9  C   UNL     1       8.498  -0.550   0.124  0.00  0.00    +0.124 C 
ATOM     10  H   UNL     1       4.856   1.068  -0.062  0.00  0.00    +0.156 HD
ENDROOT
BRANCH   1  20
ATOM     11  C   UNL     1       0.064   1.116   1.119  0.00  0.00    +0.001 A 
ATOM     12  C   UNL     1       1.247   1.851   1.177  0.00  0.00    +0.001 A 
ATOM     13  C   UNL     1       2.432   1.304   0.788  0.00  0.00    +0.010 A 
ATOM     14  C   UNL     1       2.466  -0.020   0.322  0.00  0.00    +0.003 A 
ATOM     15  C   UNL     1       1.264  -0.768   0.263  0.00  0.00    -0.016 A 
ATOM     16  C   UNL     1       0.060  -0.170   0.672  0.00  0.00    +0.008 A 
ATOM     17  C   UNL     1       1.297  -2.093  -0.203  0.00  0.00    +0.008 A 
ATOM     18  C   UNL     1       2.478  -2.648  -0.592  0.00  0.00    +0.002 A 
ATOM     19  C   UNL     1       3.665  -1.923  -0.538  0.00  0.00    +0.024 A 
ATOM     20  C   UNL     1       3.675  -0.621  -0.088  0.00  0.00    +0.042 A 
ENDBRANCH   1  20
BRANCH   7  21
ATOM     21  C   UNL     1      10.430   2.217  -1.551  0.00  0.00    +0.138 C 
BRANCH  21  22
ATOM     22  C   UNL     1      11.814   1.722  -1.220  0.00  0.00    +0.037 A 
ATOM     23  C   UNL     1      12.539   0.996  -2.142  0.00  0.00    +0.093 A 
ATOM     24  C   UNL     1      13.819   0.546  -1.818  0.00  0.00    +0.259 A 
ATOM     25  O   UNL     1      14.465  -0.096  -2.631  0.00  0.00    -0.267 OA
ATOM     26  N   UNL     1      14.349   0.826  -0.590  0.00  0.00    -0.264 N 
ATOM     27  C   UNL     1      15.588   0.455  -0.126  0.00  0.00    +0.104 A 
ATOM     28  C   UNL     1      15.993   0.791   1.099  0.00  0.00    +0.067 A 
ATOM     29  S   UNL     1      14.584   1.700   1.713  0.00  0.00    -0.059 S 
ATOM     30  C   UNL     1      13.562   1.552   0.264  0.00  0.00    +0.158 A 
ATOM     31  N   UNL     1      12.361   1.982  -0.035  0.00  0.00    -0.338 N 
ATOM     32  H   UNL     1      11.862   2.495   0.619  0.00  0.00    +0.168 HD
ENDBRANCH  21  22
ENDBRANCH   7  21
TORSDOF 3
