REMARK  Name = ZINC43408431
REMARK  3 active torsions:
REMARK  status: ('A' for Active; 'I' for Inactive)
REMARK    1  A    between atoms: C_6  and  C_7
REMARK    2  A    between atoms: C_7  and  N_9
REMARK    3  A    between atoms: C_14  and  C_16
REMARK                            x       y       z     vdW  Elec       q    Type
REMARK                         _______ _______ _______ _____ _____    ______ ____
ROOT
ATOM      1  C   UNL     1      -0.010   1.401   0.092  0.00  0.00    +0.019 A 
ATOM      2  C   UNL     1       1.199   2.073   0.032  0.00  0.00    -0.025 A 
ATOM      3  C   UNL     1       2.378   1.355  -0.066  0.00  0.00    +0.047 A 
ATOM      4  N   UNL     1       2.361   0.032  -0.101  0.00  0.00    -0.236 NA
ATOM      5  C   UNL     1       1.236  -0.659  -0.047  0.00  0.00    +0.132 A 
ATOM      6  C   UNL     1      -0.000   0.002   0.053  0.00  0.00    +0.043 A 
ATOM      7  N   UNL     1       1.276  -2.042  -0.088  0.00  0.00    -0.303 N 
ATOM      8  C   UNL     1       1.191  -2.867  -1.307  0.00  0.00    +0.107 C 
ATOM      9  C   UNL     1       1.882  -4.201  -0.931  0.00  0.00    +0.021 C 
ATOM     10  C   UNL     1       1.435  -4.379   0.544  0.00  0.00    +0.033 C 
ATOM     11  C   UNL     1       1.416  -2.930   1.075  0.00  0.00    +0.160 C 
ATOM     12  C   UNL     1       3.552   2.313  -0.115  0.00  0.00    +0.056 C 
ATOM     13  C   UNL     1       2.942   3.683  -0.480  0.00  0.00    +0.011 C 
ATOM     14  C   UNL     1       1.499   3.556   0.053  0.00  0.00    +0.037 C 
ENDROOT
BRANCH  11  15
ATOM     15  C   UNL     1       2.703  -2.629   1.798  0.00  0.00    +0.231 C 
ATOM     16  O   UNL     1       3.439  -1.757   1.387  0.00  0.00    -0.274 OA
ATOM     17  N   UNL     1       3.036  -3.329   2.900  0.00  0.00    -0.328 N 
ATOM     18  H   UNL     1       2.448  -4.026   3.228  0.00  0.00    +0.145 HD
ATOM     19  H   UNL     1       3.865  -3.135   3.366  0.00  0.00    +0.145 HD
ENDBRANCH  11  15
BRANCH   6  20
ATOM     20  C   UNL     1      -1.258  -0.761   0.115  0.00  0.00    +0.080 C 
ATOM     21  S   UNL     1      -1.220  -2.469   0.219  0.00  0.00    -0.035 S 
BRANCH  20  22
ATOM     22  N   UNL     1      -2.441  -0.114   0.088  0.00  0.00    -0.352 N 
ATOM     23  H   UNL     1      -2.463   0.854   0.029  0.00  0.00    +0.143 HD
ATOM     24  H   UNL     1      -3.269  -0.616   0.129  0.00  0.00    +0.143 HD
ENDBRANCH  20  22
ENDBRANCH   6  20
TORSDOF 3
