REMARK  Name = ZINC45468888
REMARK  11 active torsions:
REMARK  status: ('A' for Active; 'I' for Inactive)
REMARK    1  A    between atoms: C_1  and  C_2
REMARK    2  A    between atoms: C_2  and  O_3
REMARK    3  A    between atoms: O_3  and  C_4
REMARK    4  A    between atoms: C_4  and  C_6
REMARK    5  A    between atoms: N_11  and  C_13
REMARK    6  A    between atoms: C_13  and  C_14
REMARK    7  A    between atoms: N_16  and  N_17
REMARK    8  A    between atoms: C_20  and  C_24
REMARK    9  A    between atoms: C_20  and  C_25
REMARK   10  A    between atoms: C_25  and  C_26
REMARK   11  A    between atoms: C_26  and  C_27
REMARK                            x       y       z     vdW  Elec       q    Type
REMARK                         _______ _______ _______ _____ _____    ______ ____
ROOT
ATOM      1  C   UNL     1      -5.410  -6.590  -0.182  0.00  0.00    +0.213 C 
ATOM      2  O   UNL     1      -6.381  -5.864  -0.196  0.00  0.00    -0.276 OA
ATOM      3  N   UNL     1      -5.565  -7.926  -0.274  0.00  0.00    -0.225 N 
ATOM      4  H   UNL     1      -4.788  -8.506  -0.262  0.00  0.00    +0.173 HD
ENDROOT
BRANCH   3   5
ATOM      5  N   UNL     1      -6.849  -8.476  -0.386  0.00  0.00    -0.137 N 
ATOM      6  C   UNL     1      -7.496  -9.099   0.619  0.00  0.00    +0.263 C 
ATOM      7  O   UNL     1      -7.092  -9.283   1.747  0.00  0.00    -0.271 OA
ATOM      8  C   UNL     1      -8.834  -9.521   0.045  0.00  0.00    +0.112 C 
ATOM      9  N   UNL     1      -8.780  -9.042  -1.347  0.00  0.00    -0.284 N 
ATOM     10  C   UNL     1      -7.586  -8.441  -1.502  0.00  0.00    +0.326 C 
ATOM     11  O   UNL     1      -7.218  -7.928  -2.540  0.00  0.00    -0.251 OA
ATOM     12  C   UNL     1      -8.980 -11.044   0.084  0.00  0.00    +0.041 C 
ATOM     13  H   UNL     1      -9.472  -9.138  -2.020  0.00  0.00    +0.151 HD
BRANCH   8  14
ATOM     14  C   UNL     1      -9.981  -8.849   0.802  0.00  0.00    +0.040 C 
BRANCH  14  15
ATOM     15  C   UNL     1     -11.317  -9.293   0.202  0.00  0.00    +0.038 C 
BRANCH  15  16
ATOM     16  C   UNL     1     -12.447  -8.631   0.948  0.00  0.00    -0.047 A 
ATOM     17  C   UNL     1     -12.997  -9.246   2.057  0.00  0.00    +0.003 A 
ATOM     18  C   UNL     1     -14.034  -8.639   2.741  0.00  0.00    +0.000 A 
ATOM     19  C   UNL     1     -14.519  -7.416   2.317  0.00  0.00    +0.000 A 
ATOM     20  C   UNL     1     -13.968  -6.800   1.209  0.00  0.00    +0.000 A 
ATOM     21  C   UNL     1     -12.928  -7.406   0.527  0.00  0.00    +0.003 A 
ENDBRANCH  15  16
ENDBRANCH  14  15
ENDBRANCH   8  14
ENDBRANCH   3   5
BRANCH   1  22
ATOM     22  C   UNL     1      -4.029  -5.999  -0.061  0.00  0.00    +0.020 C 
BRANCH  22  27
ATOM     23  C   UNL     1      -2.881  -2.427   0.017  0.00  0.00    +0.081 C 
ATOM     24  C   UNL     1      -3.623  -1.974   1.277  0.00  0.00    +0.011 C 
ATOM     25  C   UNL     1      -4.999  -2.646   1.317  0.00  0.00    -0.018 C 
ATOM     26  C   UNL     1      -4.820  -4.164   1.263  0.00  0.00    -0.078 C 
ATOM     27  N   UNL     1      -4.128  -4.536   0.023  0.00  0.00    +0.386 N 
ATOM     28  C   UNL     1      -2.781  -3.954   0.010  0.00  0.00    -0.064 C 
ATOM     29  H   UNL     1      -4.650  -4.190  -0.768  0.00  0.00    -0.081 HD
BRANCH  23  30
ATOM     30  C   UNL     1      -1.496  -1.832   0.006  0.00  0.00    +0.308 C 
ATOM     31  O   UNL     1      -0.528  -2.555  -0.007  0.00  0.00    -0.251 OA
BRANCH  30  32
ATOM     32  O   UNL     1      -1.339  -0.499   0.012  0.00  0.00    -0.465 OA
BRANCH  32  34
ATOM     33  C   UNL     1      -0.019   1.526   0.010  0.00  0.00    +0.048 C 
ATOM     34  C   UNL     1       0.002  -0.004   0.002  0.00  0.00    +0.229 C 
ENDBRANCH  32  34
ENDBRANCH  30  32
ENDBRANCH  23  30
ENDBRANCH  22  27
ENDBRANCH   1  22
TORSDOF 9
