REMARK  Name = ZINC60371497
REMARK  4 active torsions:
REMARK  status: ('A' for Active; 'I' for Inactive)
REMARK    1  A    between atoms: C_3  and  N_26
REMARK    2  A    between atoms: C_6  and  C_7
REMARK    3  A    between atoms: N_12  and  C_15
REMARK    4  A    between atoms: C_15  and  C_16
REMARK                            x       y       z     vdW  Elec       q    Type
REMARK                         _______ _______ _______ _____ _____    ______ ____
ROOT
ATOM      1  C   UNL     1      -1.586  -0.925  -0.435  0.00  0.00    +0.267 C 
ATOM      2  O   UNL     1      -2.656  -0.378  -0.253  0.00  0.00    -0.268 OA
ATOM      3  N   UNL     1      -1.508  -2.271  -0.428  0.00  0.00    -0.294 N 
ATOM      4  C   UNL     1      -0.204  -2.951  -0.435  0.00  0.00    +0.123 C 
ATOM      5  C   UNL     1      -0.184  -3.977   0.704  0.00  0.00    +0.104 C 
ATOM      6  N   UNL     1      -1.348  -4.864   0.579  0.00  0.00    -0.294 NA
ATOM      7  C   UNL     1      -2.605  -4.118   0.725  0.00  0.00    +0.104 C 
ATOM      8  C   UNL     1      -2.724  -3.098  -0.406  0.00  0.00    +0.123 C 
ENDROOT
BRANCH   1  14
ATOM      9  C   UNL     1      -0.414   1.276  -0.509  0.00  0.00    +0.038 A 
ATOM     10  C   UNL     1       0.749   1.991  -0.734  0.00  0.00    +0.048 A 
ATOM     11  C   UNL     1       1.893   1.283  -1.103  0.00  0.00    +0.144 A 
ATOM     12  N   UNL     1       1.843  -0.039  -1.228  0.00  0.00    -0.133 NA
ATOM     13  N   UNL     1       0.765  -0.705  -1.019  0.00  0.00    -0.143 NA
ATOM     14  C   UNL     1      -0.371  -0.115  -0.665  0.00  0.00    +0.148 A 
BRANCH  11  15
ATOM     15  N   UNL     1       3.080   1.957  -1.339  0.00  0.00    -0.314 N 
ATOM     16  C   UNL     1       4.324   1.353  -1.837  0.00  0.00    +0.106 C 
ATOM     17  C   UNL     1       5.378   2.477  -1.919  0.00  0.00    +0.020 C 
ATOM     18  C   UNL     1       4.833   3.538  -0.926  0.00  0.00    +0.020 C 
ATOM     19  C   UNL     1       3.302   3.400  -1.138  0.00  0.00    +0.106 C 
ENDBRANCH  11  15
ENDBRANCH   1  14
BRANCH   6  20
ATOM     20  C   UNL     1      -1.275  -5.967   1.547  0.00  0.00    +0.138 C 
BRANCH  20  21
ATOM     21  C   UNL     1      -0.120  -6.868   1.196  0.00  0.00    +0.037 A 
ATOM     22  C   UNL     1       0.939  -7.021   2.066  0.00  0.00    +0.093 A 
ATOM     23  C   UNL     1       2.000  -7.861   1.723  0.00  0.00    +0.259 A 
ATOM     24  O   UNL     1       2.940  -8.001   2.489  0.00  0.00    -0.267 OA
ATOM     25  N   UNL     1       1.985  -8.526   0.530  0.00  0.00    -0.264 N 
ATOM     26  C   UNL     1       2.949  -9.383   0.054  0.00  0.00    +0.104 A 
ATOM     27  C   UNL     1       2.818  -9.974  -1.133  0.00  0.00    +0.067 A 
ATOM     28  S   UNL     1       1.247  -9.333  -1.690  0.00  0.00    -0.059 S 
ATOM     29  C   UNL     1       0.895  -8.316  -0.273  0.00  0.00    +0.158 A 
ATOM     30  N   UNL     1      -0.106  -7.534   0.045  0.00  0.00    -0.338 N 
ATOM     31  H   UNL     1      -0.849  -7.436  -0.572  0.00  0.00    +0.168 HD
ENDBRANCH  20  21
ENDBRANCH   6  20
TORSDOF 4
