REMARK  Name = ZINC08994948
REMARK  2 active torsions:
REMARK  status: ('A' for Active; 'I' for Inactive)
REMARK    1  A    between atoms: C_4  and  C_7
REMARK    2  A    between atoms: C_15  and  C_19
REMARK                            x       y       z     vdW  Elec       q    Type
REMARK                         _______ _______ _______ _____ _____    ______ ____
ROOT
ATOM      1  C   UNL     1       3.706  -0.710  -0.035  0.00  0.00    +0.063 C 
ATOM      2  C   UNL     1       3.865  -1.514   1.260  0.00  0.00    +0.109 C 
ATOM      3  C   UNL     1       4.944  -2.551   1.127  0.00  0.00    +0.219 C 
ATOM      4  O   UNL     1       5.671  -2.767   2.073  0.00  0.00    -0.275 OA
ATOM      5  N   UNL     1       5.130  -3.249  -0.013  0.00  0.00    -0.270 N 
ATOM      6  C   UNL     1       4.421  -2.855  -1.149  0.00  0.00    +0.125 A 
ATOM      7  C   UNL     1       3.737  -1.671  -1.196  0.00  0.00    +0.028 A 
ATOM      8  C   UNL     1       3.135  -1.572  -2.452  0.00  0.00    +0.098 A 
ATOM      9  N   UNL     1       3.459  -2.648  -3.145  0.00  0.00    -0.172 NA
ATOM     10  N   UNL     1       4.276  -3.462  -2.342  0.00  0.00    -0.263 N 
ATOM     11  H   UNL     1       4.667  -4.311  -2.603  0.00  0.00    +0.190 HD
ATOM     12  H   UNL     1       5.739  -4.004  -0.042  0.00  0.00    +0.156 HD
ENDROOT
BRANCH   8  13
ATOM     13  C   UNL     1       2.280  -0.454  -2.924  0.00  0.00    +0.003 A 
ATOM     14  C   UNL     1       2.670   0.865  -2.703  0.00  0.00    +0.011 A 
ATOM     15  C   UNL     1       1.872   1.901  -3.145  0.00  0.00    +0.020 A 
ATOM     16  C   UNL     1       0.686   1.631  -3.806  0.00  0.00    +0.041 A 
ATOM     17  C   UNL     1       0.294   0.322  -4.027  0.00  0.00    +0.020 A 
ATOM     18  C   UNL     1       1.088  -0.721  -3.595  0.00  0.00    +0.011 A 
ATOM     19 CL   UNL     1      -0.314   2.938  -4.358  0.00  0.00    -0.084 Cl
ENDBRANCH   8  13
BRANCH   1  23
ATOM     20  C   UNL     1      -0.023   1.373   0.008  0.00  0.00    +0.000 A 
ATOM     21  C   UNL     1       1.164   2.079   0.062  0.00  0.00    +0.000 A 
ATOM     22  C   UNL     1       2.370   1.405   0.048  0.00  0.00    +0.004 A 
ATOM     23  C   UNL     1       2.390   0.025  -0.019  0.00  0.00    -0.039 A 
ATOM     24  C   UNL     1       1.204  -0.682  -0.072  0.00  0.00    +0.004 A 
ATOM     25  C   UNL     1      -0.003  -0.008  -0.060  0.00  0.00    +0.000 A 
ENDBRANCH   1  23
TORSDOF 2
