REMARK  Name = ZINC08442118
REMARK  6 active torsions:
REMARK  status: ('A' for Active; 'I' for Inactive)
REMARK    1  A    between atoms: C_1  and  C_2
REMARK    2  A    between atoms: C_5  and  S_8
REMARK    3  A    between atoms: S_8  and  C_9
REMARK    4  A    between atoms: C_9  and  C_10
REMARK    5  A    between atoms: C_17  and  N_32
REMARK    6  A    between atoms: C_18  and  C_30
REMARK                            x       y       z     vdW  Elec       q    Type
REMARK                         _______ _______ _______ _____ _____    ______ ____
ROOT
ATOM      1  C   UNL     1       0.097  -6.482   1.870  0.00  0.00    +0.055 A 
ATOM      2  C   UNL     1      -0.975  -7.285   1.942  0.00  0.00    +0.062 A 
ATOM      3  C   UNL     1      -0.518  -8.617   2.063  0.00  0.00    +0.245 A 
ATOM      4  N   UNL     1       0.782  -8.597   2.062  0.00  0.00    -0.135 NA
ATOM      5  N   UNL     1       1.200  -7.263   1.936  0.00  0.00    -0.277 N 
ATOM      6  H   UNL     1       2.119  -6.954   1.904  0.00  0.00    +0.189 HD
ATOM      7  O   UNL     1      -1.379  -9.666   2.159  0.00  0.00    -0.421 OA
ATOM      8  C   UNL     1      -2.677  -9.394   2.399  0.00  0.00    +0.201 C 
ATOM      9  C   UNL     1      -3.230  -8.165   2.303  0.00  0.00    +0.110 C 
ATOM     10  C   UNL     1      -2.440  -6.948   1.908  0.00  0.00    +0.145 C 
ATOM     11  C   UNL     1      -2.851  -6.444   0.562  0.00  0.00    +0.001 A 
ATOM     12  C   UNL     1      -2.822  -7.034  -0.684  0.00  0.00    +0.045 A 
ATOM     13  C   UNL     1      -3.287  -6.273  -1.754  0.00  0.00    +0.124 A 
ATOM     14  C   UNL     1      -3.755  -4.986  -1.570  0.00  0.00    +0.040 A 
ATOM     15  C   UNL     1      -3.786  -4.388  -0.320  0.00  0.00    +0.026 A 
ATOM     16  C   UNL     1      -3.324  -5.141   0.760  0.00  0.00    +0.038 A 
ATOM     17  N   UNL     1      -3.244  -4.799   2.100  0.00  0.00    -0.284 N 
ATOM     18  C   UNL     1      -2.737  -5.801   2.848  0.00  0.00    +0.238 C 
ATOM     19  O   UNL     1      -2.555  -5.785   4.048  0.00  0.00    -0.274 OA
ATOM     20  F   UNL     1      -3.280  -6.804  -2.996  0.00  0.00    -0.205 F 
ATOM     21  H   UNL     1      -3.519  -3.940   2.458  0.00  0.00    +0.155 HD
ENDROOT
BRANCH   8  22
ATOM     22  N   UNL     1      -3.492 -10.436   2.765  0.00  0.00    -0.328 N 
ATOM     23  H   UNL     1      -3.128 -11.332   2.844  0.00  0.00    +0.145 HD
ATOM     24  H   UNL     1      -4.431 -10.277   2.946  0.00  0.00    +0.145 HD
ENDBRANCH   8  22
BRANCH   9  25
ATOM     25  C   UNL     1      -4.625  -8.015   2.589  0.00  0.00    +0.102 C 
ATOM     26  N   UNL     1      -5.732  -7.896   2.816  0.00  0.00    -0.191 NA
ENDBRANCH   9  25
BRANCH   1  27
ATOM     27  C   UNL     1       0.077  -4.981   1.735  0.00  0.00    +0.129 C 
BRANCH  27  28
ATOM     28  S   UNL     1       0.062  -4.533  -0.023  0.00  0.00    -0.119 S 
BRANCH  28  33
ATOM     29  C   UNL     1      -0.018   1.503   0.010  0.00  0.00    +0.044 C 
ATOM     30  C   UNL     1       0.002  -0.004   0.002  0.00  0.00    -0.050 A 
ATOM     31  C   UNL     1       0.006  -0.687  -1.200  0.00  0.00    +0.004 A 
ATOM     32  C   UNL     1       0.024  -2.068  -1.212  0.00  0.00    +0.015 A 
ATOM     33  C   UNL     1       0.039  -2.771  -0.013  0.00  0.00    +0.008 A 
ATOM     34  C   UNL     1       0.036  -2.081   1.193  0.00  0.00    +0.015 A 
ATOM     35  C   UNL     1       0.023  -0.700   1.197  0.00  0.00    +0.004 A 
ENDBRANCH  28  33
ENDBRANCH  27  28
ENDBRANCH   1  27
TORSDOF 5
