REMARK  Name = ZINC18116371
REMARK  5 active torsions:
REMARK  status: ('A' for Active; 'I' for Inactive)
REMARK    1  A    between atoms: C_4  and  C_7
REMARK    2  A    between atoms: C_7  and  C_8
REMARK    3  A    between atoms: C_7  and  N_14
REMARK    4  A    between atoms: N_26  and  C_27
REMARK    5  A    between atoms: N_33  and  C_34
REMARK                            x       y       z     vdW  Elec       q    Type
REMARK                         _______ _______ _______ _____ _____    ______ ____
ROOT
ATOM      1  N   UNL     1      -4.977   8.673  -2.130  0.00  0.00    -0.289 NA
ATOM      2  C   UNL     1      -4.260   8.800  -0.854  0.00  0.00    +0.104 C 
ATOM      3  C   UNL     1      -3.240   7.666  -0.729  0.00  0.00    +0.123 C 
ATOM      4  N   UNL     1      -3.936   6.374  -0.811  0.00  0.00    -0.297 N 
ATOM      5  C   UNL     1      -4.653   6.246  -2.088  0.00  0.00    +0.123 C 
ATOM      6  C   UNL     1      -5.673   7.381  -2.213  0.00  0.00    +0.104 C 
ATOM      7  C   UNL     1      -3.056   5.326  -0.631  0.00  0.00    +0.224 A 
ATOM      8  N   UNL     1      -1.767   5.569  -0.418  0.00  0.00    -0.181 NA
ATOM      9  C   UNL     1      -0.920   4.560  -0.245  0.00  0.00    +0.225 A 
ATOM     10  N   UNL     1      -1.363   3.307  -0.280  0.00  0.00    -0.181 NA
ATOM     11  C   UNL     1      -2.651   3.063  -0.499  0.00  0.00    +0.225 A 
ATOM     12  N   UNL     1      -3.498   4.073  -0.672  0.00  0.00    -0.181 NA
ATOM     13  N   UNL     1      -3.110   1.761  -0.541  0.00  0.00    -0.283 N 
ATOM     14  N   UNL     1       0.420   4.813  -0.023  0.00  0.00    -0.283 N 
ATOM     15  H   UNL     1      -2.436   0.931  -0.283  0.00  0.00    +0.155 HD
ATOM     16  H   UNL     1       0.765   5.844   0.140  0.00  0.00    +0.155 HD
ENDROOT
BRANCH  13  17
ATOM     17  C   UNL     1      -4.433   1.498  -0.910  0.00  0.00    +0.034 A 
ATOM     18  C   UNL     1      -5.455   2.337  -0.485  0.00  0.00    +0.023 A 
ATOM     19  C   UNL     1      -6.761   2.070  -0.847  0.00  0.00    +0.002 A 
ATOM     20  C   UNL     1      -7.051   0.970  -1.633  0.00  0.00    +0.000 A 
ATOM     21  C   UNL     1      -6.037   0.133  -2.058  0.00  0.00    +0.002 A 
ATOM     22  C   UNL     1      -4.729   0.393  -1.699  0.00  0.00    +0.023 A 
ENDBRANCH  13  17
BRANCH  14  23
ATOM     23  C   UNL     1       1.337   3.757  -0.005  0.00  0.00    +0.034 A 
ATOM     24  C   UNL     1       0.982   2.536   0.552  0.00  0.00    +0.023 A 
ATOM     25  C   UNL     1       1.889   1.494   0.564  0.00  0.00    +0.002 A 
ATOM     26  C   UNL     1       3.153   1.669   0.031  0.00  0.00    +0.000 A 
ATOM     27  C   UNL     1       3.511   2.886  -0.520  0.00  0.00    +0.002 A 
ATOM     28  C   UNL     1       2.608   3.930  -0.539  0.00  0.00    +0.023 A 
ENDBRANCH  14  23
BRANCH   1  29
ATOM     29  C   UNL     1      -5.913   9.788  -2.322  0.00  0.00    +0.117 C 
BRANCH  29  33
ATOM     30  C   UNL     1      -3.917  13.477  -1.512  0.00  0.00    +0.000 A 
ATOM     31  C   UNL     1      -5.177  13.244  -0.992  0.00  0.00    +0.000 A 
ATOM     32  C   UNL     1      -5.823  12.050  -1.254  0.00  0.00    +0.005 A 
ATOM     33  C   UNL     1      -5.209  11.090  -2.036  0.00  0.00    -0.026 A 
ATOM     34  C   UNL     1      -3.947  11.320  -2.551  0.00  0.00    +0.005 A 
ATOM     35  C   UNL     1      -3.303  12.516  -2.293  0.00  0.00    +0.000 A 
ENDBRANCH  29  33
BRANCH  29  36
ATOM     36  C   UNL     1      -6.410   9.788  -3.744  0.00  0.00    -0.026 A 
ATOM     37  C   UNL     1      -5.511   9.715  -4.791  0.00  0.00    +0.005 A 
ATOM     38  C   UNL     1      -5.967   9.710  -6.096  0.00  0.00    +0.000 A 
ATOM     39  C   UNL     1      -7.323   9.787  -6.354  0.00  0.00    +0.000 A 
ATOM     40  C   UNL     1      -8.223   9.866  -5.307  0.00  0.00    +0.000 A 
ATOM     41  C   UNL     1      -7.766   9.866  -4.003  0.00  0.00    +0.005 A 
ENDBRANCH  29  36
ENDBRANCH   1  29
TORSDOF 5
