REMARK  Name = ZINC46912829
REMARK  6 active torsions:
REMARK  status: ('A' for Active; 'I' for Inactive)
REMARK    1  A    between atoms: C_1  and  C_2
REMARK    2  A    between atoms: C_2  and  C_4
REMARK    3  A    between atoms: C_2  and  N_23
REMARK    4  A    between atoms: N_6  and  C_7
REMARK    5  A    between atoms: C_11  and  C_13
REMARK    6  A    between atoms: C_24  and  C_26
REMARK                            x       y       z     vdW  Elec       q    Type
REMARK                         _______ _______ _______ _____ _____    ______ ____
ROOT
ATOM      1  C   UNL     1       2.624  -0.712  -2.604  0.00  0.00    +0.034 A 
ATOM      2  C   UNL     1       1.821  -1.263  -3.597  0.00  0.00    +0.023 A 
ATOM      3  C   UNL     1       2.338  -1.500  -4.856  0.00  0.00    +0.002 A 
ATOM      4  C   UNL     1       3.654  -1.191  -5.137  0.00  0.00    +0.012 A 
ATOM      5  C   UNL     1       4.467  -0.638  -4.148  0.00  0.00    +0.021 A 
ATOM      6  C   UNL     1       3.945  -0.394  -2.878  0.00  0.00    +0.035 A 
ENDROOT
BRANCH   5   7
ATOM      7  C   UNL     1       5.878  -0.306  -4.446  0.00  0.00    +0.164 A 
ATOM      8  N   UNL     1       6.654   0.507  -3.761  0.00  0.00    -0.129 NA
ATOM      9  N   UNL     1       7.821   0.552  -4.303  0.00  0.00    -0.134 NA
ATOM     10  C   UNL     1       7.855  -0.223  -5.351  0.00  0.00    +0.134 A 
ATOM     11  N   UNL     1       6.625  -0.787  -5.481  0.00  0.00    -0.311 N 
ATOM     12  C   UNL     1       6.196  -1.709  -6.532  0.00  0.00    +0.125 C 
ATOM     13  C   UNL     1       7.407  -2.497  -7.041  0.00  0.00    +0.022 C 
ATOM     14  C   UNL     1       8.070  -1.738  -8.189  0.00  0.00    +0.002 C 
ATOM     15  C   UNL     1       8.572  -0.378  -7.713  0.00  0.00    +0.008 C 
ATOM     16  C   UNL     1       9.030  -0.475  -6.260  0.00  0.00    +0.076 C 
ENDBRANCH   5   7
BRANCH   1  19
ATOM     17  C   UNL     1       2.495   0.603  -0.626  0.00  0.00    +0.237 C 
ATOM     18  O   UNL     1       3.372   1.320  -1.059  0.00  0.00    -0.273 OA
ATOM     19  N   UNL     1       2.096  -0.474  -1.330  0.00  0.00    -0.284 N 
ATOM     20  H   UNL     1       1.444  -1.085  -0.953  0.00  0.00    +0.155 HD
BRANCH  17  22
ATOM     21  C   UNL     1       2.067  -0.253   1.662  0.00  0.00    +0.038 C 
ATOM     22  C   UNL     1       1.852   0.918   0.700  0.00  0.00    +0.156 C 
BRANCH  22  23
ATOM     23  N   UNL     1       2.456   2.129   1.261  0.00  0.00    -0.304 N 
ATOM     24  C   UNL     1       1.762   2.886   2.134  0.00  0.00    +0.217 C 
ATOM     25  O   UNL     1       0.637   2.565   2.454  0.00  0.00    -0.275 OA
ATOM     26  H   UNL     1       3.355   2.385   1.005  0.00  0.00    +0.149 HD
BRANCH  24  27
ATOM     27  C   UNL     1       2.383   4.132   2.711  0.00  0.00    +0.075 C 
ATOM     28  C   UNL     1       3.628   3.764   3.544  0.00  0.00    +0.013 C 
ATOM     29  C   UNL     1       3.589   4.747   4.740  0.00  0.00    +0.001 C 
ATOM     30  C   UNL     1       2.076   4.839   5.058  0.00  0.00    +0.001 C 
ATOM     31  C   UNL     1       1.396   4.816   3.673  0.00  0.00    +0.013 C 
ENDBRANCH  24  27
ENDBRANCH  22  23
ENDBRANCH  17  22
ENDBRANCH   1  19
TORSDOF 5
