REMARK  Name = ZINC63526138
REMARK  7 active torsions:
REMARK  status: ('A' for Active; 'I' for Inactive)
REMARK    1  A    between atoms: C_1  and  C_2
REMARK    2  A    between atoms: C_4  and  C_15
REMARK    3  A    between atoms: C_8  and  O_14
REMARK    4  A    between atoms: C_18  and  O_21
REMARK    5  A    between atoms: O_21  and  C_22
REMARK    6  A    between atoms: C_22  and  C_23
REMARK    7  A    between atoms: C_22  and  C_24
REMARK                            x       y       z     vdW  Elec       q    Type
REMARK                         _______ _______ _______ _____ _____    ______ ____
ROOT
ATOM      1  C   UNL     1      -0.258   1.265   0.960  0.00  0.00    +0.067 C 
ATOM      2  C   UNL     1      -0.372  -0.237   0.909  0.00  0.00    +0.065 C 
ATOM      3  C   UNL     1      -1.477  -0.905   0.556  0.00  0.00    +0.018 C 
ATOM      4  C   UNL     1      -2.776  -0.316   0.141  0.00  0.00    +0.108 C 
ATOM      5  S   UNL     1      -3.105  -0.594  -1.614  0.00  0.00    -0.139 S 
ATOM      6  C   UNL     1      -3.295  -2.382  -1.779  0.00  0.00    +0.165 C 
ATOM      7  C   UNL     1      -2.041  -3.099  -1.442  0.00  0.00    +0.195 C 
ATOM      8  N   UNL     1      -1.201  -3.081  -0.564  0.00  0.00    -0.221 NA
ATOM      9  C   UNL     1      -1.080  -2.353   0.673  0.00  0.00    +0.276 C 
ATOM     10  N   UNL     1       0.325  -2.288   1.109  0.00  0.00    -0.156 NA
ATOM     11  N   UNL     1       0.628  -1.095   1.209  0.00  0.00    -0.157 NA
ENDROOT
BRANCH   4  12
ATOM     12  C   UNL     1      -2.751   1.167   0.407  0.00  0.00    -0.030 A 
ATOM     13  C   UNL     1      -2.326   2.038  -0.580  0.00  0.00    +0.008 A 
ATOM     14  C   UNL     1      -2.302   3.398  -0.339  0.00  0.00    +0.046 A 
ATOM     15  C   UNL     1      -2.704   3.890   0.894  0.00  0.00    +0.121 A 
ATOM     16  C   UNL     1      -3.130   3.014   1.883  0.00  0.00    +0.046 A 
ATOM     17  C   UNL     1      -3.158   1.655   1.635  0.00  0.00    +0.008 A 
BRANCH  15  18
ATOM     18  O   UNL     1      -2.681   5.227   1.134  0.00  0.00    -0.489 OA
BRANCH  18  19
ATOM     19  C   UNL     1      -2.299   6.074   0.048  0.00  0.00    +0.167 C 
ATOM     20  C   UNL     1      -3.511   6.331  -0.849  0.00  0.00    +0.051 C 
ATOM     21  C   UNL     1      -1.780   7.405   0.598  0.00  0.00    +0.051 C 
ENDBRANCH  18  19
ENDBRANCH  15  18
ENDBRANCH   4  12
BRANCH   7  22
ATOM     22  O   UNL     1      -1.753  -4.035  -2.370  0.00  0.00    -0.495 OA
ATOM     23  H   UNL     1      -0.942  -4.530  -2.191  0.00  0.00    +0.293 HD
ENDBRANCH   7  22
TORSDOF 4
