REMARK  Name = ZINC42306165
REMARK  6 active torsions:
REMARK  status: ('A' for Active; 'I' for Inactive)
REMARK    1  A    between atoms: C_1  and  C_2
REMARK    2  A    between atoms: C_2  and  C_3
REMARK    3  A    between atoms: C_2  and  C_4
REMARK    4  A    between atoms: N_9  and  S_10
REMARK    5  A    between atoms: S_10  and  C_13
REMARK    6  A    between atoms: C_16  and  C_19
REMARK                            x       y       z     vdW  Elec       q    Type
REMARK                         _______ _______ _______ _____ _____    ______ ____
ROOT
ATOM      1  S   UNL     1      -5.975  -1.241   1.636  0.00  0.00    +0.101 S 
ATOM      2  O   UNL     1      -6.529  -0.621   0.484  0.00  0.00    -0.146 OA
ATOM      3  O   UNL     1      -5.771  -2.645   1.722  0.00  0.00    -0.146 OA
ENDROOT
BRANCH   1   9
ATOM      4  C   UNL     1      -1.412  -0.526   0.013  0.00  0.00    +0.027 A 
ATOM      5  C   UNL     1      -1.843  -1.297  -0.985  0.00  0.00    +0.070 A 
ATOM      6  S   UNL     1      -3.529  -1.631  -0.500  0.00  0.00    -0.057 S 
ATOM      7  C   UNL     1      -3.533  -0.701   1.025  0.00  0.00    +0.192 A 
ATOM      8  N   UNL     1      -2.244  -0.212   1.047  0.00  0.00    -0.336 N 
ATOM      9  N   UNL     1      -4.500  -0.532   1.892  0.00  0.00    -0.103 NA
ATOM     10  H   UNL     1      -1.938   0.345   1.779  0.00  0.00    +0.168 HD
BRANCH   4  12
ATOM     11  C   UNL     1      -0.019   1.526   0.010  0.00  0.00    +0.013 C 
ATOM     12  C   UNL     1       0.002  -0.004   0.002  0.00  0.00    +0.030 C 
ATOM     13  C   UNL     1       0.742  -0.511   1.242  0.00  0.00    +0.013 C 
ENDBRANCH   4  12
ENDBRANCH   1   9
BRANCH   1  14
ATOM     14  C   UNL     1      -7.008  -0.798   2.993  0.00  0.00    +0.113 A 
ATOM     15  C   UNL     1      -7.043  -1.597   4.122  0.00  0.00    +0.030 A 
ATOM     16  C   UNL     1      -7.849  -1.256   5.188  0.00  0.00    +0.021 A 
ATOM     17  C   UNL     1      -8.632  -0.102   5.125  0.00  0.00    +0.052 A 
ATOM     18  C   UNL     1      -8.592   0.700   3.983  0.00  0.00    +0.021 A 
ATOM     19  C   UNL     1      -7.777   0.350   2.927  0.00  0.00    +0.030 A 
BRANCH  17  20
ATOM     20  C   UNL     1      -9.472   0.258   6.228  0.00  0.00    +0.099 C 
ATOM     21  N   UNL     1     -10.139   0.543   7.103  0.00  0.00    -0.191 NA
ENDBRANCH  17  20
ENDBRANCH   1  14
TORSDOF 4
