REMARK  Name = ZINC12489602
REMARK  11 active torsions:
REMARK  status: ('A' for Active; 'I' for Inactive)
REMARK    1  A    between atoms: C_1  and  C_2
REMARK    2  A    between atoms: C_2  and  C_4
REMARK    3  A    between atoms: C_7  and  N_10
REMARK    4  A    between atoms: N_10  and  C_11
REMARK    5  A    between atoms: C_11  and  C_13
REMARK    6  A    between atoms: C_11  and  C_19
REMARK    7  A    between atoms: N_21  and  C_22
REMARK    8  A    between atoms: C_22  and  C_23
REMARK    9  A    between atoms: C_29  and  C_31
REMARK   10  A    between atoms: C_31  and  N_32
REMARK   11  A    between atoms: C_33  and  C_35
REMARK                            x       y       z     vdW  Elec       q    Type
REMARK                         _______ _______ _______ _____ _____    ______ ____
ROOT
ATOM      1  N   UNL     1      -0.356  -2.817  -4.881  0.00  0.00    -0.254 N 
ATOM      2  C   UNL     1      -0.404  -2.207  -6.082  0.00  0.00    +0.238 C 
ATOM      3  O   UNL     1      -0.184  -2.841  -7.092  0.00  0.00    -0.274 OA
ENDROOT
BRANCH   1   7
ATOM      4  C   UNL     1      -1.413  -0.725  -1.444  0.00  0.00    +0.017 A 
ATOM      5  C   UNL     1      -0.234  -0.402  -2.127  0.00  0.00    +0.013 A 
ATOM      6  C   UNL     1       0.110  -1.094  -3.259  0.00  0.00    +0.024 A 
ATOM      7  C   UNL     1      -0.710  -2.116  -3.730  0.00  0.00    +0.038 A 
ATOM      8  C   UNL     1      -1.883  -2.440  -3.054  0.00  0.00    +0.024 A 
ATOM      9  C   UNL     1      -2.232  -1.757  -1.917  0.00  0.00    +0.013 A 
BRANCH   4  11
ATOM     10  C   UNL     1      -0.903   1.124   0.278  0.00  0.00    +0.091 C 
ATOM     11  C   UNL     1      -1.786   0.013  -0.230  0.00  0.00    +0.160 C 
ATOM     12  O   UNL     1      -2.805  -0.271   0.363  0.00  0.00    -0.292 OA
ENDBRANCH   4  11
ENDBRANCH   1   7
BRANCH   1  13
ATOM     13  C   UNL     1       0.069  -4.215  -4.785  0.00  0.00    +0.197 C 
BRANCH  13  14
ATOM     14  C   UNL     1      -0.090  -4.693  -3.365  0.00  0.00    -0.018 A 
ATOM     15  C   UNL     1       0.562  -4.036  -2.338  0.00  0.00    +0.006 A 
ATOM     16  C   UNL     1       0.416  -4.474  -1.035  0.00  0.00    +0.000 A 
ATOM     17  C   UNL     1      -0.382  -5.569  -0.759  0.00  0.00    +0.000 A 
ATOM     18  C   UNL     1      -1.034  -6.225  -1.786  0.00  0.00    +0.000 A 
ATOM     19  C   UNL     1      -0.892  -5.784  -3.088  0.00  0.00    +0.006 A 
ENDBRANCH  13  14
BRANCH  13  20
ATOM     20  C   UNL     1       1.515  -4.330  -5.195  0.00  0.00    +0.239 C 
ATOM     21  O   UNL     1       2.130  -3.341  -5.534  0.00  0.00    -0.273 OA
ATOM     22  N   UNL     1       2.124  -5.533  -5.186  0.00  0.00    -0.311 N 
ATOM     23  H   UNL     1       1.632  -6.324  -4.915  0.00  0.00    +0.149 HD
BRANCH  22  24
ATOM     24  C   UNL     1       3.530  -5.644  -5.584  0.00  0.00    +0.135 C 
BRANCH  24  25
ATOM     25  C   UNL     1       3.973  -7.105  -5.484  0.00  0.00    +0.135 C 
ATOM     26  C   UNL     1       5.483  -7.216  -5.785  0.00  0.00    +0.035 C 
ATOM     27  C   UNL     1       5.559  -8.527  -6.615  0.00  0.00    +0.031 C 
ATOM     28  C   UNL     1       4.215  -8.465  -7.385  0.00  0.00    +0.160 C 
ATOM     29  O   UNL     1       3.277  -7.892  -6.458  0.00  0.00    -0.375 OA
ENDBRANCH  24  25
ENDBRANCH  22  24
ENDBRANCH  13  20
ENDBRANCH   1  13
BRANCH   2  30
ATOM     30  C   UNL     1      -0.731  -0.739  -6.170  0.00  0.00    +0.201 C 
BRANCH  30  31
ATOM     31  N   UNL     1      -0.846  -0.347  -7.577  0.00  0.00    -0.302 N 
ATOM     32  C   UNL     1      -1.136   0.929  -7.899  0.00  0.00    +0.251 C 
ATOM     33  O   UNL     1      -1.301   1.756  -7.022  0.00  0.00    -0.270 OA
ATOM     34  H   UNL     1      -0.714  -1.006  -8.276  0.00  0.00    +0.150 HD
BRANCH  32  35
ATOM     35  C   UNL     1      -1.251   1.321  -9.307  0.00  0.00    +0.074 A 
ATOM     36  C   UNL     1      -1.532   2.566  -9.848  0.00  0.00    +0.021 A 
ATOM     37  C   UNL     1      -1.574   2.626 -11.220  0.00  0.00    +0.008 A 
ATOM     38  C   UNL     1      -1.346   1.497 -11.936  0.00  0.00    +0.046 A 
ATOM     39  S   UNL     1      -1.058   0.322 -10.771  0.00  0.00    -0.092 S 
ENDBRANCH  32  35
ENDBRANCH  30  31
ENDBRANCH   2  30
TORSDOF 10
