REMARK  Name = ZINC36548412
REMARK  15 active torsions:
REMARK  status: ('A' for Active; 'I' for Inactive)
REMARK    1  A    between atoms: C_1  and  C_2
REMARK    2  A    between atoms: C_2  and  C_4
REMARK    3  A    between atoms: C_2  and  C_10
REMARK    4  A    between atoms: C_10  and  C_12
REMARK    5  A    between atoms: C_10  and  N_23
REMARK    6  A    between atoms: N_14  and  C_15
REMARK    7  A    between atoms: C_15  and  C_16
REMARK    8  A    between atoms: C_15  and  C_17
REMARK    9  A    between atoms: C_15  and  C_18
REMARK   10  A    between atoms: C_18  and  C_19
REMARK   11  A    between atoms: C_19  and  C_20
REMARK   12  A    between atoms: C_19  and  C_21
REMARK   13  A    between atoms: C_19  and  C_22
REMARK   14  A    between atoms: N_23  and  C_24
REMARK   15  A    between atoms: C_31  and  C_33
REMARK                            x       y       z     vdW  Elec       q    Type
REMARK                         _______ _______ _______ _____ _____    ______ ____
ROOT
ATOM      1  C   UNL     1       0.291  -0.163   0.634  0.00  0.00    +0.174 C 
ENDROOT
BRANCH   1   2
ATOM      2  C   UNL     1       1.550   0.486   0.120  0.00  0.00    +0.235 C 
ATOM      3  O   UNL     1       2.520  -0.193  -0.140  0.00  0.00    -0.274 OA
ATOM      4  N   UNL     1       1.597   1.822  -0.051  0.00  0.00    -0.309 N 
ATOM      5  H   UNL     1       0.843   2.372   0.213  0.00  0.00    +0.149 HD
BRANCH   4   6
ATOM      6  C   UNL     1       2.788   2.444  -0.635  0.00  0.00    +0.030 C 
ATOM      7  C   UNL     1       4.017   2.077   0.199  0.00  0.00    +0.031 C 
ATOM      8  C   UNL     1       2.975   1.941  -2.068  0.00  0.00    +0.031 C 
BRANCH   6   9
ATOM      9  C   UNL     1       2.616   3.964  -0.647  0.00  0.00    +0.031 C 
BRANCH   9  10
ATOM     10  C   UNL     1       2.647   4.493   0.788  0.00  0.00    -0.036 C 
ATOM     11  C   UNL     1       4.090   4.501   1.297  0.00  0.00    +0.010 C 
ATOM     12  C   UNL     1       2.087   5.916   0.820  0.00  0.00    +0.010 C 
ATOM     13  C   UNL     1       1.795   3.590   1.683  0.00  0.00    +0.010 C 
ENDBRANCH   9  10
ENDBRANCH   6   9
ENDBRANCH   4   6
ENDBRANCH   1   2
BRANCH   1  14
ATOM     14  N   UNL     1       0.581  -1.542   1.034  0.00  0.00    -0.256 N 
ATOM     15  C   UNL     1       0.224  -1.979   2.258  0.00  0.00    +0.241 C 
ATOM     16  O   UNL     1      -0.339  -1.230   3.029  0.00  0.00    -0.273 OA
BRANCH  14  17
ATOM     17  C   UNL     1       1.230  -2.407   0.145  0.00  0.00    +0.055 A 
ATOM     18  C   UNL     1       2.608  -2.566   0.210  0.00  0.00    +0.025 A 
ATOM     19  C   UNL     1       3.246  -3.420  -0.669  0.00  0.00    +0.002 A 
ATOM     20  C   UNL     1       2.514  -4.116  -1.613  0.00  0.00    +0.002 A 
ATOM     21  C   UNL     1       1.141  -3.960  -1.682  0.00  0.00    +0.022 A 
ATOM     22  C   UNL     1       0.496  -3.112  -0.801  0.00  0.00    +0.062 A 
ATOM     23 CL   UNL     1      -1.227  -2.923  -0.881  0.00  0.00    -0.082 Cl
ENDBRANCH  14  17
BRANCH  15  24
ATOM     24  C   UNL     1       0.522  -3.398   2.669  0.00  0.00    +0.160 C 
ATOM     25  C   UNL     1      -0.547  -4.356   2.099  0.00  0.00    +0.041 C 
ATOM     26  C   UNL     1      -1.553  -4.439   3.270  0.00  0.00    +0.098 C 
ATOM     27  C   UNL     1      -0.727  -4.110   4.493  0.00  0.00    +0.214 C 
ATOM     28  O   UNL     1      -1.060  -4.335   5.638  0.00  0.00    -0.276 OA
ATOM     29  N   UNL     1       0.433  -3.533   4.128  0.00  0.00    -0.304 N 
ATOM     30  H   UNL     1       1.122  -3.244   4.747  0.00  0.00    +0.149 HD
ENDBRANCH  15  24
ENDBRANCH   1  14
BRANCH   1  32
ATOM     31  C   UNL     1      -2.108  -0.626   0.111  0.00  0.00    +0.015 C 
ATOM     32  C   UNL     1      -0.769  -0.164  -0.469  0.00  0.00    +0.046 C 
BRANCH  32  33
ATOM     33  C   UNL     1      -0.917   1.228  -1.025  0.00  0.00    -0.042 A 
ATOM     34  C   UNL     1      -1.428   2.239  -0.233  0.00  0.00    +0.004 A 
ATOM     35  C   UNL     1      -1.563   3.516  -0.743  0.00  0.00    +0.000 A 
ATOM     36  C   UNL     1      -1.187   3.783  -2.046  0.00  0.00    +0.000 A 
ATOM     37  C   UNL     1      -0.674   2.773  -2.838  0.00  0.00    +0.000 A 
ATOM     38  C   UNL     1      -0.535   1.497  -2.326  0.00  0.00    +0.004 A 
ENDBRANCH  32  33
ENDBRANCH   1  32
TORSDOF 9
