REMARK  Name = ZINC22325258
REMARK  6 active torsions:
REMARK  status: ('A' for Active; 'I' for Inactive)
REMARK    1  A    between atoms: C_1  and  C_2
REMARK    2  A    between atoms: C_5  and  C_36
REMARK    3  A    between atoms: N_8  and  C_10
REMARK    4  A    between atoms: C_10  and  C_11
REMARK    5  A    between atoms: N_16  and  C_17
REMARK    6  A    between atoms: C_17  and  C_19
REMARK                            x       y       z     vdW  Elec       q    Type
REMARK                         _______ _______ _______ _____ _____    ______ ____
ROOT
ATOM      1  C   UNL     1       0.809   3.692   6.406  0.00  0.00    +0.269 C 
ATOM      2  O   UNL     1       0.308   2.824   7.099  0.00  0.00    -0.268 OA
ENDROOT
BRANCH   1   3
ATOM      3  C   UNL     1       0.701   5.116   6.808  0.00  0.00    +0.041 A 
ATOM      4  C   UNL     1       1.288   6.107   6.011  0.00  0.00    +0.014 A 
ATOM      5  C   UNL     1       1.199   7.424   6.366  0.00  0.00    +0.016 A 
ATOM      6  C   UNL     1       0.525   7.786   7.530  0.00  0.00    +0.065 A 
ATOM      7  C   UNL     1      -0.054   6.793   8.352  0.00  0.00    +0.079 A 
ATOM      8  C   UNL     1       0.028   5.455   7.974  0.00  0.00    +0.041 A 
ATOM      9  N   UNL     1      -0.638   7.184   9.502  0.00  0.00    -0.233 NA
ATOM     10  C   UNL     1      -0.748   8.445   9.883  0.00  0.00    +0.113 A 
ATOM     11  N   UNL     1      -0.359   9.450   9.082  0.00  0.00    -0.296 N 
ATOM     12  C   UNL     1       0.384   9.181   7.962  0.00  0.00    +0.262 A 
ATOM     13  O   UNL     1       0.903  10.098   7.354  0.00  0.00    -0.267 OA
ATOM     14  C   UNL     1      -0.702  10.855   9.228  0.00  0.00    +0.126 C 
ATOM     15  C   UNL     1      -1.130  11.259  10.660  0.00  0.00    +0.022 C 
ATOM     16  C   UNL     1      -2.679  11.376  10.550  0.00  0.00    +0.002 C 
ATOM     17  C   UNL     1      -3.218   9.950  10.329  0.00  0.00    +0.000 C 
ATOM     18  C   UNL     1      -2.765   8.916  11.336  0.00  0.00    +0.008 C 
ATOM     19  C   UNL     1      -1.288   8.582  11.283  0.00  0.00    +0.074 C 
ENDBRANCH   1   3
BRANCH   1  25
ATOM     20  C   UNL     1       2.146   0.211   3.650  0.00  0.00    +0.008 A 
ATOM     21  C   UNL     1       1.517  -0.522   4.575  0.00  0.00    +0.067 A 
ATOM     22  S   UNL     1       0.947   0.727   5.713  0.00  0.00    -0.061 S 
ATOM     23  C   UNL     1       1.552   2.083   4.925  0.00  0.00    +0.163 A 
ATOM     24  N   UNL     1       2.170   1.558   3.832  0.00  0.00    -0.341 N 
ATOM     25  N   UNL     1       1.455   3.362   5.286  0.00  0.00    -0.152 NA
ATOM     26  H   UNL     1       2.616   2.135   3.193  0.00  0.00    +0.167 HD
BRANCH  20  27
ATOM     27  C   UNL     1       2.808  -0.431   2.458  0.00  0.00    -0.024 C 
BRANCH  27  33
ATOM     28  C   UNL     1      -0.019   1.526   0.010  0.00  0.00    +0.005 C 
ATOM     29  C   UNL     1       0.002  -0.004   0.002  0.00  0.00    -0.031 C 
ATOM     30  C   UNL     1       0.721  -0.499  -1.257  0.00  0.00    +0.003 C 
ATOM     31  C   UNL     1       2.177  -0.027  -1.220  0.00  0.00    -0.031 C 
ATOM     32  C   UNL     1       2.839  -0.534   0.063  0.00  0.00    -0.075 C 
ATOM     33  N   UNL     1       2.123  -0.005   1.230  0.00  0.00    +0.384 N 
ATOM     34  C   UNL     1       0.744  -0.512   1.240  0.00  0.00    -0.075 C 
ATOM     35  C   UNL     1       2.924  -0.581  -2.434  0.00  0.00    +0.005 C 
ATOM     36  H   UNL     1       2.109   1.003   1.187  0.00  0.00    -0.081 HD
ENDBRANCH  27  33
ENDBRANCH  20  27
ENDBRANCH   1  25
TORSDOF 4
