REMARK  Name = ZINC46794483
REMARK  8 active torsions:
REMARK  status: ('A' for Active; 'I' for Inactive)
REMARK    1  A    between atoms: C_1  and  C_2
REMARK    2  A    between atoms: N_8  and  C_9
REMARK    3  A    between atoms: C_9  and  C_10
REMARK    4  A    between atoms: C_15  and  C_16
REMARK    5  A    between atoms: C_16  and  N_17
REMARK    6  A    between atoms: C_18  and  C_20
REMARK    7  A    between atoms: C_23  and  S_26
REMARK    8  A    between atoms: S_26  and  N_29
REMARK                            x       y       z     vdW  Elec       q    Type
REMARK                         _______ _______ _______ _____ _____    ______ ____
ROOT
ATOM      1  N   UNL     1       1.666   2.705   3.445  0.00  0.00    -0.307 N 
ATOM      2  C   UNL     1       1.893   3.872   2.810  0.00  0.00    +0.244 C 
ATOM      3  O   UNL     1       2.751   3.939   1.951  0.00  0.00    -0.270 OA
ATOM      4  H   UNL     1       0.982   2.651   4.130  0.00  0.00    +0.149 HD
ENDROOT
BRANCH   2   5
ATOM      5  C   UNL     1       1.098   5.069   3.156  0.00  0.00    +0.037 A 
ATOM      6  C   UNL     1       0.116   4.996   4.146  0.00  0.00    +0.015 A 
ATOM      7  C   UNL     1      -0.622   6.117   4.465  0.00  0.00    +0.029 A 
ATOM      8  C   UNL     1      -0.390   7.312   3.806  0.00  0.00    +0.106 A 
ATOM      9  C   UNL     1       0.582   7.391   2.825  0.00  0.00    +0.029 A 
ATOM     10  C   UNL     1       1.331   6.279   2.500  0.00  0.00    +0.015 A 
BRANCH   8  11
ATOM     11  S   UNL     1      -1.337   8.739   4.220  0.00  0.00    +0.061 S 
ATOM     12  O   UNL     1      -1.305   9.591   3.083  0.00  0.00    -0.153 OA
ATOM     13  O   UNL     1      -2.554   8.270   4.785  0.00  0.00    -0.153 OA
BRANCH  11  14
ATOM     14  N   UNL     1      -0.528   9.531   5.428  0.00  0.00    -0.166 NA
ATOM     15  C   UNL     1      -0.780   9.225   6.847  0.00  0.00    +0.128 C 
ATOM     16  C   UNL     1       0.523   8.711   7.463  0.00  0.00    +0.121 C 
ATOM     17  N   UNL     1       1.642   9.566   7.092  0.00  0.00    -0.313 N 
ATOM     18  C   UNL     1       1.659  10.373   6.030  0.00  0.00    +0.229 C 
ATOM     19  O   UNL     1       2.680  10.978   5.780  0.00  0.00    -0.274 OA
ATOM     20  C   UNL     1       0.475  10.563   5.129  0.00  0.00    +0.205 C 
ATOM     21  H   UNL     1       2.430   9.548   7.658  0.00  0.00    +0.149 HD
ENDBRANCH  11  14
ENDBRANCH   8  11
ENDBRANCH   2   5
BRANCH   1  22
ATOM     22  C   UNL     1       2.454   1.518   3.102  0.00  0.00    +0.140 C 
BRANCH  22  28
ATOM     23  C   UNL     1       0.865  -0.347   3.613  0.00  0.00    -0.059 A 
ATOM     24  C   UNL     1       0.458  -1.417   4.388  0.00  0.00    +0.002 A 
ATOM     25  C   UNL     1       1.190  -1.781   5.503  0.00  0.00    +0.000 A 
ATOM     26  C   UNL     1       2.329  -1.075   5.843  0.00  0.00    +0.000 A 
ATOM     27  C   UNL     1       2.736  -0.005   5.067  0.00  0.00    +0.005 A 
ATOM     28  C   UNL     1       2.007   0.356   3.950  0.00  0.00    -0.029 A 
BRANCH  23  29
ATOM     29  C   UNL     1       0.067   0.050   2.397  0.00  0.00    -0.042 C 
BRANCH  29  36
ATOM     30  C   UNL     1      -0.019   1.526   0.010  0.00  0.00    -0.013 C 
ATOM     31  C   UNL     1       0.002  -0.004   0.002  0.00  0.00    -0.071 C 
ATOM     32  C   UNL     1       0.717  -0.497  -1.258  0.00  0.00    -0.016 C 
ATOM     33  C   UNL     1       0.735  -2.028  -1.262  0.00  0.00    -0.003 C 
ATOM     34  C   UNL     1       1.410  -2.524   0.020  0.00  0.00    -0.019 C 
ATOM     35  C   UNL     1       0.669  -1.956   1.232  0.00  0.00    -0.078 C 
ATOM     36  N   UNL     1       0.711  -0.490   1.192  0.00  0.00    +0.384 N 
ATOM     37  H   UNL     1       1.671  -0.182   1.159  0.00  0.00    -0.081 HD
ENDBRANCH  29  36
ENDBRANCH  23  29
ENDBRANCH  22  28
ENDBRANCH   1  22
TORSDOF 7
