REMARK  Name = ZINC04738372
REMARK  5 active torsions:
REMARK  status: ('A' for Active; 'I' for Inactive)
REMARK    1  A    between atoms: C_1  and  C_2
REMARK    2  A    between atoms: C_3  and  N_7
REMARK    3  A    between atoms: N_7  and  N_8
REMARK    4  A    between atoms: C_9  and  C_10
REMARK    5  A    between atoms: C_9  and  C_11
REMARK                            x       y       z     vdW  Elec       q    Type
REMARK                         _______ _______ _______ _____ _____    ______ ____
ROOT
ATOM      1  N   UNL     1       2.032   2.487   3.924  0.00  0.00    -0.186 NA
ATOM      2  C   UNL     1       3.065   1.766   4.239  0.00  0.00    +0.063 C 
ATOM      3  C   UNL     1       3.320   1.403   5.679  0.00  0.00    +0.068 C 
ENDROOT
BRANCH   2   4
ATOM      4  C   UNL     1       3.989   1.302   3.187  0.00  0.00    +0.001 A 
ATOM      5  C   UNL     1       4.283   2.128   2.099  0.00  0.00    +0.013 A 
ATOM      6  C   UNL     1       5.147   1.692   1.117  0.00  0.00    +0.050 A 
ATOM      7  C   UNL     1       5.727   0.434   1.205  0.00  0.00    +0.166 A 
ATOM      8  C   UNL     1       5.438  -0.395   2.288  0.00  0.00    +0.167 A 
ATOM      9  C   UNL     1       4.577   0.038   3.279  0.00  0.00    +0.059 A 
ATOM     10  O   UNL     1       6.128  -1.563   2.139  0.00  0.00    -0.453 OA
ATOM     11  C   UNL     1       7.156  -1.282   1.170  0.00  0.00    +0.466 C 
ATOM     12  O   UNL     1       6.598  -0.217   0.379  0.00  0.00    -0.453 OA
ENDBRANCH   2   4
BRANCH   1  13
ATOM     13  N   UNL     1       1.697   2.680   2.577  0.00  0.00    -0.228 N 
ATOM     14  H   UNL     1       2.183   2.206   1.884  0.00  0.00    +0.175 HD
BRANCH  13  17
ATOM     15  C   UNL     1       0.763   3.283  -0.259  0.00  0.00    +0.070 C 
ATOM     16  C   UNL     1       0.182   3.881   0.997  0.00  0.00    +0.092 A 
ATOM     17  C   UNL     1       0.667   3.550   2.235  0.00  0.00    +0.128 A 
ATOM     18  S   UNL     1      -0.351   4.511   3.259  0.00  0.00    +0.053 S 
ATOM     19  N   UNL     1      -1.297   5.244   2.035  0.00  0.00    -0.108 NA
ATOM     20  N   UNL     1      -0.804   4.743   0.951  0.00  0.00    -0.144 NA
ENDBRANCH  13  17
ENDBRANCH   1  13
TORSDOF 3
