REMARK  Name = ZINC44252683
REMARK  2 active torsions:
REMARK  status: ('A' for Active; 'I' for Inactive)
REMARK    1  A    between atoms: C_6  and  C_7
REMARK    2  A    between atoms: C_10  and  C_11
REMARK                            x       y       z     vdW  Elec       q    Type
REMARK                         _______ _______ _______ _____ _____    ______ ____
ROOT
ATOM      1  C   UNL     1      -1.264  -0.761   0.011  0.00  0.00    +0.232 C 
ATOM      2  N   UNL     1      -2.448  -0.212   0.021  0.00  0.00    -0.205 NA
ATOM      3  C   UNL     1      -3.395  -1.195   0.027  0.00  0.00    +0.154 C 
ATOM      4  C   UNL     1      -4.766  -1.035   0.037  0.00  0.00    +0.065 C 
ATOM      5  C   UNL     1      -2.646  -2.463   0.019  0.00  0.00    +0.364 C 
ATOM      6  O   UNL     1      -3.103  -3.591   0.021  0.00  0.00    -0.243 OA
ATOM      7  O   UNL     1      -1.344  -2.106   0.004  0.00  0.00    -0.402 OA
ENDROOT
BRANCH   1  13
ATOM      8  C   UNL     1      -0.017   1.393   0.010  0.00  0.00    +0.017 A 
ATOM      9  C   UNL     1       1.168   2.098   0.002  0.00  0.00    +0.050 A 
ATOM     10  C   UNL     1       2.381   1.425  -0.013  0.00  0.00    +0.166 A 
ATOM     11  C   UNL     1       2.407   0.030  -0.021  0.00  0.00    +0.167 A 
ATOM     12  C   UNL     1       1.224  -0.682  -0.013  0.00  0.00    +0.062 A 
ATOM     13  C   UNL     1       0.002  -0.004   0.002  0.00  0.00    +0.041 A 
ATOM     14  O   UNL     1       3.709  -0.381  -0.036  0.00  0.00    -0.453 OA
ATOM     15  C   UNL     1       4.470   0.769  -0.450  0.00  0.00    +0.466 C 
ATOM     16  O   UNL     1       3.666   1.884  -0.023  0.00  0.00    -0.453 OA
ENDBRANCH   1  13
BRANCH   4  17
ATOM     17  C   UNL     1      -5.346   0.309   0.044  0.00  0.00    +0.097 A 
ATOM     18  C   UNL     1      -6.716   0.543   0.061  0.00  0.00    +0.096 A 
ATOM     19  S   UNL     1      -6.781   2.221   0.062  0.00  0.00    +0.029 S 
ATOM     20  N   UNL     1      -5.200   2.558   0.043  0.00  0.00    -0.110 NA
ATOM     21  N   UNL     1      -4.608   1.416   0.042  0.00  0.00    -0.142 NA
ENDBRANCH   4  17
TORSDOF 2
