REMARK  Name = ZINC08124054
REMARK  7 active torsions:
REMARK  status: ('A' for Active; 'I' for Inactive)
REMARK    1  A    between atoms: C_1  and  C_2
REMARK    2  A    between atoms: C_4  and  S_23
REMARK    3  A    between atoms: C_6  and  N_9
REMARK    4  A    between atoms: C_7  and  C_8
REMARK    5  A    between atoms: C_10  and  C_12
REMARK    6  A    between atoms: C_19  and  C_22
REMARK    7  A    between atoms: S_23  and  N_26
REMARK                            x       y       z     vdW  Elec       q    Type
REMARK                         _______ _______ _______ _____ _____    ______ ____
ROOT
ATOM      1  C   UNL     1       1.207   1.235  -0.172  0.00  0.00    +0.044 C 
ATOM      2  C   UNL     1       0.578  -0.131  -0.085  0.00  0.00    -0.044 A 
ATOM      3  C   UNL     1      -0.027  -0.686  -1.198  0.00  0.00    +0.032 A 
ATOM      4  C   UNL     1      -0.605  -1.940  -1.122  0.00  0.00    +0.107 A 
ATOM      5  C   UNL     1      -0.580  -2.642   0.067  0.00  0.00    +0.052 A 
ATOM      6  C   UNL     1       0.026  -2.088   1.187  0.00  0.00    +0.039 A 
ATOM      7  C   UNL     1       0.610  -0.831   1.106  0.00  0.00    -0.026 A 
ATOM      8  C   UNL     1       1.274  -0.228   2.317  0.00  0.00    +0.046 C 
ENDROOT
BRANCH   6   9
ATOM      9  N   UNL     1       0.052  -2.797   2.392  0.00  0.00    -0.281 N 
ATOM     10  C   UNL     1      -0.031  -4.142   2.385  0.00  0.00    +0.255 C 
ATOM     11  O   UNL     1      -0.028  -4.747   1.328  0.00  0.00    -0.269 OA
ATOM     12  H   UNL     1       0.130  -2.321   3.233  0.00  0.00    +0.155 HD
BRANCH  10  13
ATOM     13  C   UNL     1      -0.126  -4.877   3.649  0.00  0.00    +0.075 A 
ATOM     14  C   UNL     1      -0.213  -6.241   3.860  0.00  0.00    +0.024 A 
ATOM     15  C   UNL     1      -0.291  -6.667   5.178  0.00  0.00    -0.036 A 
ATOM     16  C   UNL     1      -0.274  -5.697   6.137  0.00  0.00    -0.006 A 
ATOM     17  S   UNL     1      -0.150  -4.248   5.317  0.00  0.00    -0.088 S 
ATOM     18  C   UNL     1      -0.344  -5.902   7.622  0.00  0.00    +0.043 C 
ATOM     19  C   UNL     1      -0.060  -7.380   7.922  0.00  0.00    +0.009 C 
ATOM     20  C   UNL     1      -0.916  -8.245   6.992  0.00  0.00    -0.009 C 
ATOM     21  C   UNL     1      -0.393  -8.141   5.560  0.00  0.00    +0.039 C 
ATOM     22  C   UNL     1      -0.851  -9.703   7.452  0.00  0.00    +0.008 C 
ENDBRANCH  10  13
ENDBRANCH   6   9
BRANCH   4  23
ATOM     23  S   UNL     1      -1.374  -2.641  -2.544  0.00  0.00    +0.056 S 
ATOM     24  O   UNL     1      -2.318  -3.591  -2.067  0.00  0.00    -0.153 OA
ATOM     25  O   UNL     1      -1.743  -1.556  -3.383  0.00  0.00    -0.153 OA
BRANCH  23  26
ATOM     26  N   UNL     1      -0.212  -3.496  -3.358  0.00  0.00    -0.204 NA
ATOM     27  H   UNL     1       0.694  -3.530  -3.014  0.00  0.00    +0.144 HD
ATOM     28  H   UNL     1      -0.439  -3.962  -4.178  0.00  0.00    +0.144 HD
ENDBRANCH  23  26
ENDBRANCH   4  23
TORSDOF 4
