REMARK  Name = ZINC19638749
REMARK  9 active torsions:
REMARK  status: ('A' for Active; 'I' for Inactive)
REMARK    1  A    between atoms: C_1  and  C_2
REMARK    2  A    between atoms: C_3  and  C_7
REMARK    3  A    between atoms: C_7  and  N_8
REMARK    4  A    between atoms: N_8  and  C_9
REMARK    5  A    between atoms: C_10  and  C_12
REMARK    6  A    between atoms: C_12  and  C_13
REMARK    7  A    between atoms: N_20  and  C_21
REMARK    8  A    between atoms: C_21  and  C_22
REMARK    9  A    between atoms: C_25  and  C_28
REMARK                            x       y       z     vdW  Elec       q    Type
REMARK                         _______ _______ _______ _____ _____    ______ ____
ROOT
ATOM      1  C   UNL     1      -0.449  12.248   0.821  0.00  0.00    +0.028 C 
ATOM      2  C   UNL     1      -0.121  13.043   2.053  0.00  0.00    +0.200 C 
ATOM      3  O   UNL     1      -0.564  14.167   2.155  0.00  0.00    -0.278 OA
ATOM      4  N   UNL     1       0.639  12.562   3.043  0.00  0.00    -0.318 N 
ATOM      5  C   UNL     1       1.190  11.210   3.035  0.00  0.00    +0.085 C 
ATOM      6  C   UNL     1       1.165  10.641   1.615  0.00  0.00    -0.058 C 
ATOM      7  N   UNL     1      -0.186  10.822   1.058  0.00  0.00    +0.391 N 
ATOM      8  H   UNL     1       0.843  13.234   3.889  0.00  0.00    +0.149 HD
ATOM      9  H   UNL     1      -0.919  10.450   1.789  0.00  0.00    -0.080 HD
ENDROOT
BRANCH   1  10
ATOM     10  C   UNL     1      -1.926  12.440   0.471  0.00  0.00    +0.090 C 
BRANCH  10  13
ATOM     11  N   UNL     1      -4.123  11.906   1.474  0.00  0.00    -0.299 N 
ATOM     12  C   UNL     1      -4.755  12.486   0.286  0.00  0.00    +0.132 C 
ATOM     13  C   UNL     1      -2.781  11.924   1.599  0.00  0.00    +0.215 C 
ATOM     14  O   UNL     1      -2.262  11.524   2.619  0.00  0.00    -0.276 OA
BRANCH  11  15
ATOM     15  C   UNL     1      -4.949  11.307   2.525  0.00  0.00    +0.168 C 
BRANCH  15  18
ATOM     16  C   UNL     1      -3.576  12.023   5.269  0.00  0.00    +0.071 C 
ATOM     17  C   UNL     1      -4.796  12.702   4.702  0.00  0.00    +0.106 A 
ATOM     18  C   UNL     1      -5.410  12.382   3.475  0.00  0.00    +0.124 A 
ATOM     19  N   UNL     1      -6.439  13.155   3.293  0.00  0.00    -0.052 NA
ATOM     20  O   UNL     1      -6.523  14.021   4.414  0.00  0.00    -0.242 OA
ATOM     21  N   UNL     1      -5.443  13.677   5.267  0.00  0.00    -0.054 NA
ENDBRANCH  15  18
ENDBRANCH  11  15
ENDBRANCH  10  13
ENDBRANCH   1  10
BRANCH   7  22
ATOM     22  C   UNL     1      -0.355  10.043  -0.176  0.00  0.00    -0.042 C 
BRANCH  22  23
ATOM     23  C   UNL     1      -0.475   8.581   0.166  0.00  0.00    -0.064 A 
ATOM     24  C   UNL     1      -1.720   8.030   0.411  0.00  0.00    +0.002 A 
ATOM     25  C   UNL     1      -1.836   6.691   0.725  0.00  0.00    +0.009 A 
ATOM     26  C   UNL     1      -0.695   5.894   0.795  0.00  0.00    -0.018 A 
ATOM     27  C   UNL     1       0.557   6.454   0.553  0.00  0.00    +0.009 A 
ATOM     28  C   UNL     1       0.661   7.793   0.235  0.00  0.00    +0.002 A 
BRANCH  26  29
ATOM     29  C   UNL     1      -0.814   4.453   1.133  0.00  0.00    -0.018 A 
ATOM     30  C   UNL     1       0.327   3.656   1.203  0.00  0.00    +0.008 A 
ATOM     31  C   UNL     1       0.211   2.317   1.517  0.00  0.00    +0.001 A 
ATOM     32  C   UNL     1      -1.034   1.766   1.762  0.00  0.00    +0.000 A 
ATOM     33  C   UNL     1      -2.170   2.552   1.688  0.00  0.00    +0.001 A 
ATOM     34  C   UNL     1      -2.066   3.894   1.380  0.00  0.00    +0.008 A 
ENDBRANCH  26  29
ENDBRANCH  22  23
ENDBRANCH   7  22
TORSDOF 7
