REMARK  Name = ZINC36597610
REMARK  10 active torsions:
REMARK  status: ('A' for Active; 'I' for Inactive)
REMARK    1  A    between atoms: C_1  and  C_2
REMARK    2  A    between atoms: C_5  and  C_7
REMARK    3  A    between atoms: C_7  and  N_8
REMARK    4  A    between atoms: N_8  and  C_9
REMARK    5  A    between atoms: C_9  and  C_11
REMARK    6  A    between atoms: C_9  and  C_18
REMARK    7  A    between atoms: N_20  and  C_21
REMARK    8  A    between atoms: C_27  and  C_29
REMARK    9  A    between atoms: C_30  and  O_36
REMARK   10  A    between atoms: C_34  and  O_35
REMARK                            x       y       z     vdW  Elec       q    Type
REMARK                         _______ _______ _______ _____ _____    ______ ____
ROOT
ATOM      1  N   UNL     1       1.948  -3.591  -1.402  0.00  0.00    -0.274 N 
ATOM      2  C   UNL     1       1.037  -4.464  -1.876  0.00  0.00    +0.255 C 
ATOM      3  O   UNL     1       1.171  -4.939  -2.988  0.00  0.00    -0.270 OA
ENDROOT
BRANCH   2   4
ATOM      4  C   UNL     1      -0.120  -4.843  -1.048  0.00  0.00    +0.119 A 
ATOM      5  C   UNL     1      -1.313  -4.110  -1.123  0.00  0.00    +0.133 A 
ATOM      6  C   UNL     1      -2.396  -4.475  -0.340  0.00  0.00    +0.046 A 
ATOM      7  C   UNL     1      -2.303  -5.558   0.514  0.00  0.00    +0.007 A 
ATOM      8  C   UNL     1      -1.131  -6.287   0.597  0.00  0.00    +0.046 A 
ATOM      9  C   UNL     1      -0.038  -5.943  -0.181  0.00  0.00    +0.133 A 
BRANCH   9  10
ATOM     10  O   UNL     1       1.108  -6.664  -0.103  0.00  0.00    -0.506 OA
ATOM     11  H   UNL     1       1.729  -6.344   0.566  0.00  0.00    +0.292 HD
ENDBRANCH   9  10
BRANCH   5  12
ATOM     12  O   UNL     1      -1.407  -3.046  -1.960  0.00  0.00    -0.506 OA
ATOM     13  H   UNL     1      -1.720  -3.271  -2.847  0.00  0.00    +0.292 HD
ENDBRANCH   5  12
ENDBRANCH   2   4
BRANCH   1  14
ATOM     14  C   UNL     1       1.860  -3.120  -0.018  0.00  0.00    +0.183 C 
BRANCH  14  19
ATOM     15  C   UNL     1       0.509   1.739  -0.074  0.00  0.00    +0.086 C 
ATOM     16  C   UNL     1       0.424   0.237   0.012  0.00  0.00    +0.102 A 
ATOM     17  C   UNL     1      -0.700  -0.477   0.201  0.00  0.00    +0.045 A 
ATOM     18  C   UNL     1      -0.321  -1.840   0.217  0.00  0.00    +0.046 A 
ATOM     19  C   UNL     1       1.012  -1.876   0.036  0.00  0.00    +0.122 A 
ATOM     20  O   UNL     1       1.457  -0.615  -0.093  0.00  0.00    -0.463 OA
ENDBRANCH  14  19
ENDBRANCH   1  14
BRANCH   1  21
ATOM     21  C   UNL     1       3.026  -3.114  -2.272  0.00  0.00    +0.193 C 
BRANCH  21  22
ATOM     22  C   UNL     1       3.912  -4.271  -2.655  0.00  0.00    -0.018 A 
ATOM     23  C   UNL     1       4.486  -5.057  -1.673  0.00  0.00    +0.007 A 
ATOM     24  C   UNL     1       5.298  -6.119  -2.024  0.00  0.00    +0.020 A 
ATOM     25  C   UNL     1       5.538  -6.394  -3.359  0.00  0.00    +0.041 A 
ATOM     26  C   UNL     1       4.963  -5.607  -4.341  0.00  0.00    +0.020 A 
ATOM     27  C   UNL     1       4.146  -4.550  -3.989  0.00  0.00    +0.007 A 
ATOM     28 CL   UNL     1       6.559  -7.727  -3.800  0.00  0.00    -0.084 Cl
ENDBRANCH  21  22
BRANCH  21  29
ATOM     29  C   UNL     1       2.435  -2.501  -3.515  0.00  0.00    +0.238 C 
ATOM     30  O   UNL     1       1.231  -2.466  -3.660  0.00  0.00    -0.273 OA
ATOM     31  N   UNL     1       3.243  -1.991  -4.465  0.00  0.00    -0.311 N 
ATOM     32  H   UNL     1       4.206  -2.019  -4.349  0.00  0.00    +0.149 HD
BRANCH  31  33
ATOM     33  C   UNL     1       2.668  -1.395  -5.673  0.00  0.00    +0.073 C 
ATOM     34  C   UNL     1       2.394  -2.493  -6.703  0.00  0.00    +0.022 C 
ATOM     35  C   UNL     1       1.794  -1.870  -7.965  0.00  0.00    +0.002 C 
ATOM     36  C   UNL     1       2.778  -0.856  -8.551  0.00  0.00    +0.000 C 
ATOM     37  C   UNL     1       3.052   0.242  -7.521  0.00  0.00    +0.002 C 
ATOM     38  C   UNL     1       3.652  -0.380  -6.259  0.00  0.00    +0.022 C 
ENDBRANCH  31  33
ENDBRANCH  21  29
ENDBRANCH   1  21
TORSDOF 9
