REMARK  Name = ZINC38595952
REMARK  9 active torsions:
REMARK  status: ('A' for Active; 'I' for Inactive)
REMARK    1  A    between atoms: C_1  and  C_2
REMARK    2  A    between atoms: C_2  and  C_4
REMARK    3  A    between atoms: C_2  and  N_24
REMARK    4  A    between atoms: C_4  and  C_6
REMARK    5  A    between atoms: C_4  and  N_11
REMARK    6  A    between atoms: N_14  and  C_17
REMARK    7  A    between atoms: C_17  and  C_18
REMARK    8  A    between atoms: C_25  and  C_27
REMARK    9  A    between atoms: C_30  and  N_34
REMARK                            x       y       z     vdW  Elec       q    Type
REMARK                         _______ _______ _______ _____ _____    ______ ____
ROOT
ATOM      1  C   UNL     1      -1.433  -0.534   0.013  0.00  0.00    +0.113 C 
ENDROOT
BRANCH   1   2
ATOM      2  N   UNL     1      -2.350   0.073  -0.962  0.00  0.00    -0.297 NA
ATOM      3  C   UNL     1      -2.189  -0.539  -2.288  0.00  0.00    +0.066 C 
ATOM      4  C   UNL     1      -3.116   0.159  -3.285  0.00  0.00    -0.063 C 
ATOM      5  N   UNL     1      -4.508   0.029  -2.833  0.00  0.00    +0.384 N 
ATOM      6  C   UNL     1      -4.659   0.666  -1.518  0.00  0.00    -0.063 C 
ATOM      7  C   UNL     1      -3.744  -0.028  -0.507  0.00  0.00    +0.066 C 
ATOM      8  H   UNL     1      -4.748  -0.949  -2.763  0.00  0.00    -0.081 HD
BRANCH   5   9
ATOM      9  C   UNL     1      -5.399   0.683  -3.800  0.00  0.00    -0.043 C 
BRANCH   9  10
ATOM     10  C   UNL     1      -6.833   0.445  -3.402  0.00  0.00    -0.064 A 
ATOM     11  C   UNL     1      -7.506  -0.666  -3.875  0.00  0.00    +0.002 A 
ATOM     12  C   UNL     1      -8.822  -0.884  -3.510  0.00  0.00    +0.000 A 
ATOM     13  C   UNL     1      -9.464   0.007  -2.671  0.00  0.00    +0.000 A 
ATOM     14  C   UNL     1      -8.790   1.118  -2.197  0.00  0.00    +0.000 A 
ATOM     15  C   UNL     1      -7.474   1.334  -2.559  0.00  0.00    +0.002 A 
ENDBRANCH   9  10
ENDBRANCH   5   9
ENDBRANCH   1   2
BRANCH   1  16
ATOM     16  C   UNL     1      -1.851  -1.957   0.278  0.00  0.00    +0.009 A 
ATOM     17  C   UNL     1      -2.037  -2.585   1.465  0.00  0.00    +0.013 A 
ATOM     18  C   UNL     1      -2.427  -3.911   1.468  0.00  0.00    +0.008 A 
ATOM     19  C   UNL     1      -2.612  -4.544   0.283  0.00  0.00    +0.045 A 
ATOM     20  S   UNL     1      -2.238  -3.251  -0.889  0.00  0.00    -0.100 S 
ENDBRANCH   1  16
BRANCH   1  22
ATOM     21  C   UNL     1       0.415   0.929  -0.816  0.00  0.00    +0.030 C 
ATOM     22  C   UNL     1      -0.010  -0.516  -0.547  0.00  0.00    +0.092 C 
BRANCH  22  23
ATOM     23  N   UNL     1       0.905  -1.121   0.425  0.00  0.00    -0.307 N 
ATOM     24  C   UNL     1       2.061  -1.674   0.009  0.00  0.00    +0.246 C 
ATOM     25  O   UNL     1       2.345  -1.672  -1.173  0.00  0.00    -0.270 OA
ATOM     26  H   UNL     1       0.678  -1.123   1.368  0.00  0.00    +0.149 HD
BRANCH  24  27
ATOM     27  C   UNL     1       2.983  -2.284   0.989  0.00  0.00    +0.055 A 
ATOM     28  C   UNL     1       2.658  -2.294   2.347  0.00  0.00    +0.017 A 
ATOM     29  C   UNL     1       3.522  -2.865   3.256  0.00  0.00    +0.033 A 
ATOM     30  C   UNL     1       4.712  -3.428   2.827  0.00  0.00    +0.128 A 
ATOM     31  C   UNL     1       5.042  -3.422   1.484  0.00  0.00    +0.053 A 
ATOM     32  C   UNL     1       4.183  -2.859   0.561  0.00  0.00    +0.055 A 
ATOM     33 CL   UNL     1       4.595  -2.858  -1.125  0.00  0.00    -0.083 Cl
BRANCH  30  34
ATOM     34  N   UNL     1       5.635  -4.038   3.810  0.00  0.00    +0.056 N 
ATOM     35  O   UNL     1       5.349  -4.045   4.984  0.00  0.00    -0.126 OA
ATOM     36  O   UNL     1       6.675  -4.530   3.438  0.00  0.00    -0.126 OA
ENDBRANCH  30  34
ENDBRANCH  24  27
ENDBRANCH  22  23
ENDBRANCH   1  22
TORSDOF 8
