REMARK  Name = ZINC40839755
REMARK  7 active torsions:
REMARK  status: ('A' for Active; 'I' for Inactive)
REMARK    1  A    between atoms: C_1  and  C_2
REMARK    2  A    between atoms: C_5  and  C_38
REMARK    3  A    between atoms: N_13  and  C_21
REMARK    4  A    between atoms: C_21  and  C_22
REMARK    5  A    between atoms: C_22  and  C_23
REMARK    6  A    between atoms: N_25  and  C_26
REMARK    7  A    between atoms: N_25  and  C_32
REMARK                            x       y       z     vdW  Elec       q    Type
REMARK                         _______ _______ _______ _____ _____    ______ ____
ROOT
ATOM      1  C   UNL     1      -2.702   2.410   4.325  0.00  0.00    +0.009 C 
ATOM      2  C   UNL     1      -1.180   2.260   4.281  0.00  0.00    +0.004 C 
ATOM      3  C   UNL     1      -0.526   3.635   4.440  0.00  0.00    +0.009 C 
ATOM      4  C   UNL     1       0.996   3.483   4.428  0.00  0.00    +0.004 C 
ATOM      5  C   UNL     1       1.436   2.892   3.085  0.00  0.00    +0.110 C 
ATOM      6  N   UNL     1       0.702   1.639   2.857  0.00  0.00    -0.310 N 
ATOM      7  C   UNL     1      -0.765   1.655   2.936  0.00  0.00    +0.110 C 
ATOM      8  C   UNL     1       1.380   0.467   2.573  0.00  0.00    +0.188 A 
ATOM      9  C   UNL     1       2.838   0.494   2.353  0.00  0.00    +0.292 A 
ATOM     10  O   UNL     1       3.453   1.542   2.420  0.00  0.00    -0.264 OA
ATOM     11  N   UNL     1       3.482  -0.661   2.077  0.00  0.00    -0.303 N 
ATOM     12  C   UNL     1       2.756  -1.836   2.008  0.00  0.00    +0.070 A 
ATOM     13  C   UNL     1       3.395  -3.039   1.726  0.00  0.00    +0.028 A 
ATOM     14  C   UNL     1       2.664  -4.205   1.660  0.00  0.00    +0.002 A 
ATOM     15  C   UNL     1       1.292  -4.189   1.873  0.00  0.00    +0.002 A 
ATOM     16  C   UNL     1       0.645  -3.020   2.151  0.00  0.00    +0.030 A 
ATOM     17  C   UNL     1       1.367  -1.820   2.224  0.00  0.00    +0.090 A 
ATOM     18  N   UNL     1       0.728  -0.665   2.505  0.00  0.00    -0.225 NA
ATOM     19  C   UNL     1       1.648   4.853   4.621  0.00  0.00    +0.009 C 
ENDROOT
BRANCH  11  20
ATOM     20  C   UNL     1       4.930  -0.669   1.852  0.00  0.00    +0.135 C 
BRANCH  20  21
ATOM     21  C   UNL     1       5.651  -0.888   3.184  0.00  0.00    +0.118 C 
BRANCH  21  22
ATOM     22  C   UNL     1       7.141  -0.896   2.953  0.00  0.00    +0.226 C 
ATOM     23  O   UNL     1       7.581  -0.762   1.831  0.00  0.00    -0.275 OA
ATOM     24  N   UNL     1       7.983  -1.052   3.994  0.00  0.00    -0.240 N 
BRANCH  24  25
ATOM     25  C   UNL     1       7.475  -1.310   5.273  0.00  0.00    +0.041 A 
ATOM     26  C   UNL     1       7.165  -2.611   5.648  0.00  0.00    +0.024 A 
ATOM     27  C   UNL     1       6.664  -2.862   6.911  0.00  0.00    +0.002 A 
ATOM     28  C   UNL     1       6.471  -1.821   7.800  0.00  0.00    +0.000 A 
ATOM     29  C   UNL     1       6.779  -0.525   7.429  0.00  0.00    +0.002 A 
ATOM     30  C   UNL     1       7.286  -0.268   6.170  0.00  0.00    +0.024 A 
ENDBRANCH  24  25
BRANCH  24  31
ATOM     31  C   UNL     1       9.366  -0.956   3.796  0.00  0.00    +0.041 A 
ATOM     32  C   UNL     1       9.943   0.274   3.505  0.00  0.00    +0.024 A 
ATOM     33  C   UNL     1      11.307   0.365   3.310  0.00  0.00    +0.002 A 
ATOM     34  C   UNL     1      12.098  -0.765   3.404  0.00  0.00    +0.000 A 
ATOM     35  C   UNL     1      11.526  -1.990   3.693  0.00  0.00    +0.002 A 
ATOM     36  C   UNL     1      10.163  -2.088   3.895  0.00  0.00    +0.024 A 
ENDBRANCH  24  31
ENDBRANCH  21  22
ENDBRANCH  20  21
ENDBRANCH  11  20
TORSDOF 5
