REMARK  Name = ZINC12375585
REMARK  6 active torsions:
REMARK  status: ('A' for Active; 'I' for Inactive)
REMARK    1  A    between atoms: C_5  and  C_7
REMARK    2  A    between atoms: C_7  and  S_8
REMARK    3  A    between atoms: S_8  and  C_9
REMARK    4  A    between atoms: C_17  and  C_24
REMARK    5  A    between atoms: C_19  and  C_22
REMARK    6  A    between atoms: C_20  and  N_21
REMARK                            x       y       z     vdW  Elec       q    Type
REMARK                         _______ _______ _______ _____ _____    ______ ____
ROOT
ATOM      1  C   UNL     1       1.866   1.945  -0.407  0.00  0.00    +0.160 A 
ATOM      2  N   UNL     1       2.332   2.214   0.804  0.00  0.00    -0.133 NA
ATOM      3  N   UNL     1       3.405   2.852   0.979  0.00  0.00    -0.124 NA
ATOM      4  C   UNL     1       4.133   3.293  -0.034  0.00  0.00    +0.194 A 
ATOM      5  S   UNL     1       3.144   2.705  -1.406  0.00  0.00    -0.024 S 
ATOM      6  N   UNL     1       5.329   4.006  -0.034  0.00  0.00    -0.237 N 
ATOM      7  C   UNL     1       6.521   3.335   0.061  0.00  0.00    +0.026 C 
ATOM      8  C   UNL     1       7.672   3.923  -0.335  0.00  0.00    +0.025 C 
ATOM      9  C   UNL     1       7.679   5.329  -0.878  0.00  0.00    +0.098 C 
ATOM     10  C   UNL     1       6.416   6.055  -0.521  0.00  0.00    +0.077 C 
ATOM     11  C   UNL     1       5.306   5.380  -0.123  0.00  0.00    +0.108 C 
ATOM     12  C   UNL     1       8.899   3.241  -0.250  0.00  0.00    +0.162 C 
ATOM     13  O   UNL     1       9.918   3.803  -0.597  0.00  0.00    -0.292 OA
ATOM     14  C   UNL     1       8.972   1.829   0.263  0.00  0.00    +0.080 C 
ATOM     15  C   UNL     1       7.645   1.122  -0.032  0.00  0.00    +0.014 C 
ATOM     16  C   UNL     1       6.513   1.930   0.606  0.00  0.00    +0.052 C 
ENDROOT
BRANCH   9  17
ATOM     17  C   UNL     1       7.811   5.277  -2.379  0.00  0.00    -0.028 A 
ATOM     18  C   UNL     1       8.902   5.848  -3.007  0.00  0.00    +0.012 A 
ATOM     19  C   UNL     1       8.991   5.783  -4.358  0.00  0.00    +0.045 A 
ATOM     20  S   UNL     1       7.502   4.896  -4.784  0.00  0.00    -0.105 S 
ATOM     21  C   UNL     1       6.865   4.666  -3.132  0.00  0.00    +0.049 A 
ENDBRANCH   9  17
BRANCH  11  22
ATOM     22  N   UNL     1       4.159   6.069   0.190  0.00  0.00    -0.345 N 
ATOM     23  H   UNL     1       3.391   5.596   0.547  0.00  0.00    +0.144 HD
ATOM     24  H   UNL     1       4.117   7.029   0.053  0.00  0.00    +0.144 HD
ENDBRANCH  11  22
BRANCH  10  25
ATOM     25  C   UNL     1       6.379   7.484  -0.600  0.00  0.00    +0.099 C 
ATOM     26  N   UNL     1       6.350   8.618  -0.662  0.00  0.00    -0.191 NA
ENDBRANCH  10  25
BRANCH   1  27
ATOM     27  S   UNL     1       0.410   1.082  -0.896  0.00  0.00    -0.092 S 
BRANCH  27  28
ATOM     28  C   UNL     1      -0.366   0.608   0.673  0.00  0.00    +0.113 C 
BRANCH  28  33
ATOM     29  C   UNL     1      -4.005  -0.161   0.022  0.00  0.00    +0.000 A 
ATOM     30  C   UNL     1      -3.977  -1.537  -0.113  0.00  0.00    +0.001 A 
ATOM     31  C   UNL     1      -2.781  -2.219   0.006  0.00  0.00    +0.020 A 
ATOM     32  C   UNL     1      -1.611  -1.525   0.261  0.00  0.00    +0.045 A 
ATOM     33  C   UNL     1      -1.640  -0.149   0.396  0.00  0.00    -0.019 A 
ATOM     34  C   UNL     1      -2.837   0.532   0.281  0.00  0.00    +0.006 A 
ATOM     35 CL   UNL     1      -0.109  -2.381   0.412  0.00  0.00    -0.083 Cl
ENDBRANCH  28  33
ENDBRANCH  27  28
ENDBRANCH   1  27
TORSDOF 6
