REMARK  Name = ZINC35242802
REMARK  10 active torsions:
REMARK  status: ('A' for Active; 'I' for Inactive)
REMARK    1  A    between atoms: C_1  and  C_2
REMARK    2  A    between atoms: C_7  and  N_12
REMARK    3  A    between atoms: C_9  and  C_11
REMARK    4  A    between atoms: C_13  and  C_15
REMARK    5  A    between atoms: C_23  and  C_33
REMARK    6  A    between atoms: N_29  and  C_30
REMARK    7  A    between atoms: N_35  and  C_36
REMARK    8  A    between atoms: C_39  and  C_42
REMARK    9  A    between atoms: C_42  and  C_43
REMARK   10  A    between atoms: C_42  and  C_44
REMARK                            x       y       z     vdW  Elec       q    Type
REMARK                         _______ _______ _______ _____ _____    ______ ____
ROOT
ATOM      1  C   UNL     1       2.056  -4.164   3.547  0.00  0.00    +0.199 C 
ATOM      2  C   UNL     1       3.417  -4.766   3.380  0.00  0.00    +0.127 C 
ATOM      3  C   UNL     1       3.501  -5.714   2.198  0.00  0.00    +0.009 C 
ATOM      4  C   UNL     1       4.751  -6.152   2.177  0.00  0.00    +0.004 C 
ATOM      5  C   UNL     1       5.418  -5.508   3.398  0.00  0.00    +0.155 C 
ATOM      6  O   UNL     1       4.705  -4.204   3.466  0.00  0.00    -0.358 OA
ATOM      7  C   UNL     1       4.780  -6.319   4.592  0.00  0.00    +0.123 C 
ATOM      8  C   UNL     1       3.428  -5.617   4.713  0.00  0.00    +0.128 C 
ATOM      9  C   UNL     1       2.096  -6.243   4.635  0.00  0.00    +0.224 C 
ATOM     10  O   UNL     1       1.796  -7.351   5.027  0.00  0.00    -0.275 OA
ATOM     11  N   UNL     1       1.259  -5.332   4.036  0.00  0.00    -0.283 N 
ENDROOT
BRANCH   1  13
ATOM     12  N   UNL     1       1.886  -2.446   1.776  0.00  0.00    -0.311 N 
ATOM     13  C   UNL     1       1.524  -3.662   2.230  0.00  0.00    +0.237 C 
ATOM     14  O   UNL     1       0.769  -4.352   1.578  0.00  0.00    -0.274 OA
ATOM     15  H   UNL     1       2.490  -1.894   2.297  0.00  0.00    +0.149 HD
BRANCH  12  21
ATOM     16  C   UNL     1       0.861   1.612  -0.856  0.00  0.00    +0.008 C 
ATOM     17  C   UNL     1       0.844   0.082  -0.849  0.00  0.00    -0.009 C 
ATOM     18  C   UNL     1       1.722  -0.442  -1.987  0.00  0.00    +0.003 C 
ATOM     19  C   UNL     1       1.705  -1.972  -1.980  0.00  0.00    +0.002 C 
ATOM     20  C   UNL     1       2.246  -2.482  -0.643  0.00  0.00    +0.022 C 
ATOM     21  C   UNL     1       1.369  -1.958   0.495  0.00  0.00    +0.076 C 
ATOM     22  C   UNL     1       1.385  -0.428   0.488  0.00  0.00    +0.009 C 
ATOM     23  C   UNL     1       0.508   0.097   1.627  0.00  0.00    +0.009 C 
ENDBRANCH  12  21
ENDBRANCH   1  13
BRANCH   7  24
ATOM     24  C   UNL     1       4.625  -7.775   4.235  0.00  0.00    +0.224 C 
ATOM     25  O   UNL     1       3.522  -8.279   4.210  0.00  0.00    -0.275 OA
ATOM     26  N   UNL     1       5.711  -8.517   3.943  0.00  0.00    -0.285 N 
ATOM     27  H   UNL     1       6.584  -8.098   3.888  0.00  0.00    +0.155 HD
BRANCH  26  28
ATOM     28  C   UNL     1       5.580  -9.892   3.720  0.00  0.00    +0.033 A 
ATOM     29  C   UNL     1       6.413 -10.533   2.812  0.00  0.00    +0.023 A 
ATOM     30  C   UNL     1       6.281 -11.890   2.594  0.00  0.00    +0.006 A 
ATOM     31  C   UNL     1       5.320 -12.611   3.278  0.00  0.00    -0.045 A 
ATOM     32  C   UNL     1       4.489 -11.977   4.183  0.00  0.00    +0.006 A 
ATOM     33  C   UNL     1       4.620 -10.621   4.410  0.00  0.00    +0.023 A 
BRANCH  31  34
ATOM     34  C   UNL     1       5.179 -14.092   3.038  0.00  0.00    +0.013 C 
ATOM     35  C   UNL     1       5.413 -14.847   4.348  0.00  0.00    +0.012 C 
ATOM     36  C   UNL     1       3.770 -14.393   2.521  0.00  0.00    +0.012 C 
ENDBRANCH  31  34
ENDBRANCH  26  28
ENDBRANCH   7  24
BRANCH  11  37
ATOM     37  C   UNL     1      -0.192  -5.482   3.897  0.00  0.00    +0.077 C 
ATOM     38  C   UNL     1      -0.856  -6.646   4.635  0.00  0.00    +0.024 C 
ATOM     39  C   UNL     1      -0.705  -6.691   3.113  0.00  0.00    +0.024 C 
ENDBRANCH  11  37
TORSDOF 6
