REMARK  Name = ZINC39992762
REMARK  9 active torsions:
REMARK  status: ('A' for Active; 'I' for Inactive)
REMARK    1  A    between atoms: C_1  and  C_2
REMARK    2  A    between atoms: C_2  and  N_3
REMARK    3  A    between atoms: C_4  and  C_6
REMARK    4  A    between atoms: C_10  and  N_11
REMARK    5  A    between atoms: C_12  and  C_14
REMARK    6  A    between atoms: C_14  and  C_31
REMARK    7  A    between atoms: C_15  and  C_16
REMARK    8  A    between atoms: C_19  and  C_21
REMARK    9  A    between atoms: C_25  and  C_27
REMARK                            x       y       z     vdW  Elec       q    Type
REMARK                         _______ _______ _______ _____ _____    ______ ____
ROOT
ATOM      1  N   UNL     1      -3.171  -2.442   2.499  0.00  0.00    -0.275 N 
ATOM      2  C   UNL     1      -3.963  -2.744   3.547  0.00  0.00    +0.259 C 
ATOM      3  O   UNL     1      -5.091  -3.158   3.358  0.00  0.00    -0.269 OA
ATOM      4  H   UNL     1      -2.272  -2.112   2.650  0.00  0.00    +0.156 HD
ENDROOT
BRANCH   1   9
ATOM      5  C   UNL     1      -2.976  -2.347   0.018  0.00  0.00    +0.069 A 
ATOM      6  C   UNL     1      -3.696  -2.607  -1.216  0.00  0.00    -0.023 A 
ATOM      7  C   UNL     1      -4.951  -3.071  -1.037  0.00  0.00    -0.004 A 
ATOM      8  S   UNL     1      -5.152  -3.154   0.719  0.00  0.00    -0.077 S 
ATOM      9  C   UNL     1      -3.642  -2.604   1.206  0.00  0.00    +0.085 A 
ATOM     10  C   UNL     1      -5.939  -3.430  -2.103  0.00  0.00    +0.043 C 
ATOM     11  C   UNL     1      -5.450  -2.837  -3.433  0.00  0.00    +0.005 C 
ATOM     12  C   UNL     1      -3.969  -3.181  -3.614  0.00  0.00    +0.005 C 
ATOM     13  C   UNL     1      -3.125  -2.392  -2.610  0.00  0.00    +0.037 C 
BRANCH   5  15
ATOM     14  N   UNL     1      -1.372  -0.511   0.012  0.00  0.00    -0.312 N 
ATOM     15  C   UNL     1      -1.601  -1.839   0.007  0.00  0.00    +0.247 C 
ATOM     16  O   UNL     1      -0.665  -2.618  -0.006  0.00  0.00    -0.270 OA
ATOM     17  H   UNL     1      -2.118   0.109   0.023  0.00  0.00    +0.149 HD
BRANCH  14  19
ATOM     18  C   UNL     1      -0.019   1.526   0.010  0.00  0.00    +0.024 C 
ATOM     19  C   UNL     1       0.002  -0.004   0.002  0.00  0.00    +0.101 C 
ENDBRANCH  14  19
ENDBRANCH   5  15
ENDBRANCH   1   9
BRANCH   2  20
ATOM     20  C   UNL     1      -3.464  -2.573   4.916  0.00  0.00    +0.117 C 
ATOM     21  C   UNL     1      -4.279  -2.884   5.996  0.00  0.00    +0.070 C 
BRANCH  21  22
ATOM     22  C   UNL     1      -3.801  -2.720   7.306  0.00  0.00    +0.130 A 
ATOM     23  C   UNL     1      -4.505  -2.997   8.470  0.00  0.00    +0.050 A 
ATOM     24  C   UNL     1      -3.659  -2.692   9.535  0.00  0.00    +0.050 A 
ATOM     25  C   UNL     1      -2.473  -2.243   8.992  0.00  0.00    +0.136 A 
ATOM     26  O   UNL     1      -2.575  -2.272   7.653  0.00  0.00    -0.455 OA
BRANCH  25  27
ATOM     27  C   UNL     1      -1.287  -1.808   9.756  0.00  0.00    +0.018 A 
ATOM     28  C   UNL     1      -1.303  -1.836  11.153  0.00  0.00    +0.011 A 
ATOM     29  C   UNL     1      -0.191  -1.429  11.860  0.00  0.00    +0.001 A 
ATOM     30  C   UNL     1       0.939  -0.993  11.189  0.00  0.00    +0.012 A 
ATOM     31  C   UNL     1       0.961  -0.963   9.806  0.00  0.00    +0.055 A 
ATOM     32  C   UNL     1      -0.142  -1.372   9.085  0.00  0.00    +0.024 A 
BRANCH  31  33
ATOM     33  C   UNL     1       2.196  -0.487   9.084  0.00  0.00    +0.417 C 
ATOM     34  F   UNL     1       3.175  -0.133  10.019  0.00  0.00    -0.166 F 
ATOM     35  F   UNL     1       2.681  -1.512   8.265  0.00  0.00    -0.166 F 
ATOM     36  F   UNL     1       1.877   0.626   8.299  0.00  0.00    -0.166 F 
ENDBRANCH  31  33
ENDBRANCH  25  27
ENDBRANCH  21  22
BRANCH  20  37
ATOM     37  C   UNL     1      -2.136  -2.086   5.139  0.00  0.00    +0.104 C 
ATOM     38  N   UNL     1      -1.082  -1.699   5.315  0.00  0.00    -0.191 NA
ENDBRANCH  20  37
ENDBRANCH   2  20
TORSDOF 8
