REMARK  Name = ZINC59427790
REMARK  6 active torsions:
REMARK  status: ('A' for Active; 'I' for Inactive)
REMARK    1  A    between atoms: N_15  and  C_16
REMARK    2  A    between atoms: C_16  and  C_17
REMARK    3  A    between atoms: N_19  and  N_20
REMARK    4  A    between atoms: C_21  and  C_22
REMARK    5  A    between atoms: C_25  and  O_29
REMARK    6  A    between atoms: C_27  and  O_28
REMARK                            x       y       z     vdW  Elec       q    Type
REMARK                         _______ _______ _______ _____ _____    ______ ____
ROOT
ATOM      1  C   UNL     1       5.558   0.758   0.460  0.00  0.00    +0.252 C 
ATOM      2  O   UNL     1       5.130   0.755   1.596  0.00  0.00    -0.272 OA
ATOM      3  N   UNL     1       6.689   1.430   0.169  0.00  0.00    -0.206 N 
ATOM      4  H   UNL     1       7.031   1.433  -0.739  0.00  0.00    +0.177 HD
ENDROOT
BRANCH   3   5
ATOM      5  N   UNL     1       7.372   2.123   1.177  0.00  0.00    -0.188 NA
ATOM      6  C   UNL     1       8.462   2.770   0.896  0.00  0.00    +0.142 C 
BRANCH   6   7
ATOM      7  C   UNL     1       9.180   3.499   1.956  0.00  0.00    +0.037 A 
ATOM      8  C   UNL     1      10.350   4.200   1.655  0.00  0.00    +0.032 A 
ATOM      9  C   UNL     1      11.019   4.881   2.650  0.00  0.00    +0.060 A 
ATOM     10  C   UNL     1      10.532   4.872   3.953  0.00  0.00    +0.134 A 
ATOM     11  C   UNL     1       9.371   4.178   4.261  0.00  0.00    +0.092 A 
ATOM     12  C   UNL     1       8.688   3.496   3.269  0.00  0.00    +0.129 A 
ATOM     13 BR   UNL     1      12.603   5.830   2.242  0.00  0.00    -0.047 Br
BRANCH  12  14
ATOM     14  O   UNL     1       7.548   2.822   3.568  0.00  0.00    -0.506 OA
ATOM     15  H   UNL     1       7.692   1.903   3.831  0.00  0.00    +0.292 HD
ENDBRANCH  12  14
BRANCH  10  16
ATOM     16  O   UNL     1      11.197   5.545   4.928  0.00  0.00    -0.506 OA
ATOM     17  H   UNL     1      10.911   6.463   5.037  0.00  0.00    +0.292 HD
ENDBRANCH  10  16
ENDBRANCH   6   7
ENDBRANCH   3   5
BRANCH   1  18
ATOM     18  C   UNL     1       4.823   0.012  -0.624  0.00  0.00    +0.219 C 
BRANCH  18  33
ATOM     19  C   UNL     1      -0.017   1.364   0.009  0.00  0.00    +0.001 A 
ATOM     20  C   UNL     1       1.169   2.085   0.002  0.00  0.00    +0.002 A 
ATOM     21  C   UNL     1       2.388   1.440  -0.017  0.00  0.00    +0.026 A 
ATOM     22  C   UNL     1       2.430   0.050  -0.028  0.00  0.00    +0.054 A 
ATOM     23  C   UNL     1       1.223  -0.674  -0.015  0.00  0.00    +0.046 A 
ATOM     24  C   UNL     1       0.002  -0.004   0.002  0.00  0.00    +0.014 A 
ATOM     25  C   UNL     1       1.299  -2.151  -0.014  0.00  0.00    +0.197 A 
ATOM     26  O   UNL     1       0.378  -2.848  -0.399  0.00  0.00    -0.287 OA
ATOM     27  C   UNL     1       2.567  -2.724   0.484  0.00  0.00    +0.046 A 
ATOM     28  C   UNL     1       2.639  -4.026   0.975  0.00  0.00    +0.014 A 
ATOM     29  C   UNL     1       3.835  -4.510   1.428  0.00  0.00    +0.001 A 
ATOM     30  C   UNL     1       4.973  -3.716   1.403  0.00  0.00    +0.002 A 
ATOM     31  C   UNL     1       4.922  -2.425   0.920  0.00  0.00    +0.026 A 
ATOM     32  C   UNL     1       3.718  -1.913   0.450  0.00  0.00    +0.054 A 
ATOM     33  N   UNL     1       3.635  -0.629  -0.057  0.00  0.00    -0.331 N 
ENDBRANCH  18  33
ENDBRANCH   1  18
TORSDOF 6
