REMARK  Name = ZINC12768716
REMARK  8 active torsions:
REMARK  status: ('A' for Active; 'I' for Inactive)
REMARK    1  A    between atoms: C_1  and  C_2
REMARK    2  A    between atoms: C_7  and  S_31
REMARK    3  A    between atoms: C_12  and  C_14
REMARK    4  A    between atoms: C_14  and  O_15
REMARK    5  A    between atoms: O_15  and  C_16
REMARK    6  A    between atoms: C_16  and  C_18
REMARK    7  A    between atoms: C_18  and  C_24
REMARK    8  A    between atoms: S_31  and  N_34
REMARK                            x       y       z     vdW  Elec       q    Type
REMARK                         _______ _______ _______ _____ _____    ______ ____
ROOT
ATOM      1  C   UNL     1       1.124   8.000  -5.237  0.00  0.00    +0.029 C 
ATOM      2  C   UNL     1      -0.259   7.353  -5.136  0.00  0.00    +0.083 C 
ATOM      3  C   UNL     1      -1.031   7.543  -6.451  0.00  0.00    +0.059 C 
ATOM      4  C   UNL     1      -1.298   6.138  -6.942  0.00  0.00    -0.022 A 
ATOM      5  C   UNL     1      -1.956   5.681  -8.069  0.00  0.00    +0.034 A 
ATOM      6  C   UNL     1      -2.073   4.324  -8.302  0.00  0.00    +0.105 A 
ATOM      7  C   UNL     1      -1.529   3.423  -7.405  0.00  0.00    +0.030 A 
ATOM      8  C   UNL     1      -0.871   3.873  -6.281  0.00  0.00    +0.026 A 
ATOM      9  C   UNL     1      -0.750   5.243  -6.038  0.00  0.00    +0.040 A 
ATOM     10  N   UNL     1      -0.131   5.903  -4.972  0.00  0.00    -0.265 N 
ATOM     11  C   UNL     1       0.488   5.293  -3.941  0.00  0.00    +0.258 C 
ATOM     12  O   UNL     1       0.996   5.956  -3.061  0.00  0.00    -0.272 OA
ENDROOT
BRANCH   6  13
ATOM     13  S   UNL     1      -2.912   3.744  -9.739  0.00  0.00    +0.056 S 
ATOM     14  O   UNL     1      -2.854   4.793 -10.695  0.00  0.00    -0.153 OA
ATOM     15  O   UNL     1      -2.409   2.442 -10.005  0.00  0.00    -0.153 OA
BRANCH  13  16
ATOM     16  N   UNL     1      -4.507   3.561  -9.333  0.00  0.00    -0.204 NA
ATOM     17  H   UNL     1      -5.195   3.678 -10.007  0.00  0.00    +0.144 HD
ATOM     18  H   UNL     1      -4.753   3.336  -8.422  0.00  0.00    +0.144 HD
ENDBRANCH  13  16
ENDBRANCH   6  13
BRANCH  11  19
ATOM     19  C   UNL     1       0.548   3.789  -3.881  0.00  0.00    +0.328 C 
BRANCH  19  20
ATOM     20  O   UNL     1       1.261   3.380  -2.684  0.00  0.00    -0.455 OA
BRANCH  20  21
ATOM     21  C   UNL     1       1.404   2.061  -2.480  0.00  0.00    +0.318 C 
ATOM     22  O   UNL     1       0.948   1.274  -3.275  0.00  0.00    -0.250 OA
BRANCH  21  23
ATOM     23  C   UNL     1       2.133   1.562  -1.259  0.00  0.00    +0.093 C 
ATOM     24  C   UNL     1       1.417   2.055  -0.000  0.00  0.00    +0.023 C 
ATOM     25  C   UNL     1      -0.019   1.526   0.010  0.00  0.00    +0.001 C 
ATOM     26  C   UNL     1       0.002  -0.004   0.002  0.00  0.00    +0.000 C 
ATOM     27  C   UNL     1       0.718  -0.497  -1.257  0.00  0.00    +0.001 C 
ATOM     28  C   UNL     1       2.154   0.032  -1.268  0.00  0.00    +0.023 C 
BRANCH  23  29
ATOM     29  C   UNL     1       3.547   2.084  -1.270  0.00  0.00    -0.029 A 
ATOM     30  C   UNL     1       3.781   3.446  -1.265  0.00  0.00    +0.005 A 
ATOM     31  C   UNL     1       5.077   3.925  -1.274  0.00  0.00    +0.002 A 
ATOM     32  C   UNL     1       6.141   3.042  -1.288  0.00  0.00    +0.020 A 
ATOM     33  C   UNL     1       5.907   1.679  -1.294  0.00  0.00    +0.041 A 
ATOM     34  C   UNL     1       4.609   1.200  -1.279  0.00  0.00    +0.024 A 
ATOM     35 CL   UNL     1       7.242   0.569  -1.311  0.00  0.00    -0.084 Cl
ENDBRANCH  23  29
ENDBRANCH  21  23
ENDBRANCH  20  21
ENDBRANCH  19  20
ENDBRANCH  11  19
TORSDOF 7
