REMARK  Name = ZINC38701221
REMARK  10 active torsions:
REMARK  status: ('A' for Active; 'I' for Inactive)
REMARK    1  A    between atoms: C_1  and  C_2
REMARK    2  A    between atoms: C_2  and  O_3
REMARK    3  A    between atoms: O_3  and  C_4
REMARK    4  A    between atoms: C_8  and  C_10
REMARK    5  A    between atoms: C_15  and  O_24
REMARK    6  A    between atoms: C_19  and  N_23
REMARK    7  A    between atoms: C_20  and  C_21
REMARK    8  A    between atoms: O_24  and  C_25
REMARK    9  A    between atoms: C_25  and  C_27
REMARK   10  A    between atoms: C_28  and  C_37
REMARK                            x       y       z     vdW  Elec       q    Type
REMARK                         _______ _______ _______ _____ _____    ______ ____
ROOT
ATOM      1  C   UNL     1      -4.335  -4.416  -0.028  0.00  0.00    +0.098 C 
ATOM      2  C   UNL     1      -4.504  -5.252   1.213  0.00  0.00    +0.008 A 
ATOM      3  C   UNL     1      -4.620  -4.629   2.443  0.00  0.00    +0.012 A 
ATOM      4  C   UNL     1      -4.777  -5.379   3.591  0.00  0.00    +0.047 A 
ATOM      5  C   UNL     1      -4.817  -6.765   3.515  0.00  0.00    +0.136 A 
ATOM      6  C   UNL     1      -4.701  -7.392   2.285  0.00  0.00    +0.093 A 
ATOM      7  C   UNL     1      -4.544  -6.635   1.131  0.00  0.00    +0.138 A 
ATOM      8  O   UNL     1      -4.431  -7.264  -0.065  0.00  0.00    -0.441 OA
ATOM      9  C   UNL     1      -4.666  -6.589  -1.202  0.00  0.00    +0.199 C 
ATOM     10  C   UNL     1      -4.634  -5.239  -1.250  0.00  0.00    +0.098 C 
ENDROOT
BRANCH   1  15
ATOM     11  C   UNL     1      -1.360  -2.091  -0.174  0.00  0.00    +0.121 A 
ATOM     12  C   UNL     1      -0.308  -2.994  -0.234  0.00  0.00    +0.045 A 
ATOM     13  C   UNL     1      -0.564  -4.351  -0.227  0.00  0.00    +0.004 A 
ATOM     14  C   UNL     1      -1.867  -4.810  -0.160  0.00  0.00    +0.005 A 
ATOM     15  C   UNL     1      -2.916  -3.913  -0.100  0.00  0.00    -0.031 A 
ATOM     16  C   UNL     1      -2.665  -2.554  -0.101  0.00  0.00    +0.050 A 
BRANCH  11  17
ATOM     17  O   UNL     1      -1.111  -0.755  -0.180  0.00  0.00    -0.492 OA
BRANCH  17  19
ATOM     18  C   UNL     1       0.339   1.178  -0.252  0.00  0.00    +0.048 C 
ATOM     19  C   UNL     1       0.257  -0.350  -0.256  0.00  0.00    +0.225 C 
ENDBRANCH  17  19
ENDBRANCH  11  17
ENDBRANCH   1  15
BRANCH   9  20
ATOM     20  N   UNL     1      -4.945  -7.290  -2.349  0.00  0.00    -0.328 N 
ATOM     21  H   UNL     1      -4.971  -8.260  -2.330  0.00  0.00    +0.145 HD
ATOM     22  H   UNL     1      -5.117  -6.817  -3.178  0.00  0.00    +0.145 HD
ENDBRANCH   9  20
BRANCH  10  23
ATOM     23  C   UNL     1      -4.892  -4.579  -2.494  0.00  0.00    +0.101 C 
ATOM     24  N   UNL     1      -5.096  -4.055  -3.481  0.00  0.00    -0.191 NA
ENDBRANCH  10  23
BRANCH   5  25
ATOM     25  O   UNL     1      -4.971  -7.505   4.644  0.00  0.00    -0.420 OA
BRANCH  25  26
ATOM     26  C   UNL     1      -3.923  -8.241   5.066  0.00  0.00    +0.380 C 
ATOM     27  O   UNL     1      -2.849  -8.150   4.501  0.00  0.00    -0.241 OA
BRANCH  26  28
ATOM     28  C   UNL     1      -4.077  -9.153   6.205  0.00  0.00    +0.216 A 
ATOM     29  C   UNL     1      -3.094  -9.938   6.719  0.00  0.00    +0.010 A 
ATOM     30  C   UNL     1      -3.697 -10.668   7.832  0.00  0.00    +0.027 A 
ATOM     31  C   UNL     1      -3.224 -11.612   8.748  0.00  0.00    +0.050 A 
ATOM     32  C   UNL     1      -4.077 -12.120   9.703  0.00  0.00    +0.124 A 
ATOM     33  C   UNL     1      -5.401 -11.696   9.757  0.00  0.00    +0.042 A 
ATOM     34  C   UNL     1      -5.879 -10.767   8.861  0.00  0.00    +0.050 A 
ATOM     35  C   UNL     1      -5.037 -10.240   7.888  0.00  0.00    +0.136 A 
ATOM     36  O   UNL     1      -5.216  -9.335   6.906  0.00  0.00    -0.448 OA
ATOM     37  F   UNL     1      -3.626 -13.033  10.591  0.00  0.00    -0.205 F 
ATOM     38  C   UNL     1      -1.669 -10.036   6.238  0.00  0.00    +0.048 C 
ENDBRANCH  26  28
ENDBRANCH  25  26
ENDBRANCH   5  25
TORSDOF 8
