REMARK  Name = ZINC17958698
REMARK  11 active torsions:
REMARK  status: ('A' for Active; 'I' for Inactive)
REMARK    1  A    between atoms: C_1  and  C_2
REMARK    2  A    between atoms: C_2  and  O_3
REMARK    3  A    between atoms: O_3  and  C_4
REMARK    4  A    between atoms: C_4  and  C_6
REMARK    5  A    between atoms: C_7  and  C_28
REMARK    6  A    between atoms: C_8  and  C_13
REMARK    7  A    between atoms: C_11  and  C_12
REMARK    8  A    between atoms: N_15  and  C_16
REMARK    9  A    between atoms: C_16  and  C_17
REMARK   10  A    between atoms: N_19  and  C_20
REMARK   11  A    between atoms: C_25  and  C_26
REMARK                            x       y       z     vdW  Elec       q    Type
REMARK                         _______ _______ _______ _____ _____    ______ ____
ROOT
ATOM      1  C   UNL     1      -1.365  -5.427  -1.533  0.00  0.00    +0.261 C 
ATOM      2  O   UNL     1      -1.366  -5.321  -2.745  0.00  0.00    -0.269 OA
ATOM      3  N   UNL     1      -1.417  -6.647  -0.963  0.00  0.00    -0.302 N 
ATOM      4  H   UNL     1      -1.417  -6.731   0.004  0.00  0.00    +0.150 HD
ENDROOT
BRANCH   1   7
ATOM      5  C   UNL     1      -1.212  -2.105   0.001  0.00  0.00    +0.083 A 
ATOM      6  C   UNL     1      -1.253  -2.938  -1.140  0.00  0.00    -0.006 A 
ATOM      7  C   UNL     1      -1.308  -4.225  -0.692  0.00  0.00    +0.106 A 
ATOM      8  N   UNL     1      -1.302  -4.204   0.686  0.00  0.00    -0.354 N 
ATOM      9  H   UNL     1      -1.335  -4.985   1.260  0.00  0.00    +0.166 HD
ATOM     10  C   UNL     1      -1.239  -2.932   1.109  0.00  0.00    +0.028 A 
ATOM     11  C   UNL     1      -1.206  -2.481   2.546  0.00  0.00    +0.064 C 
ATOM     12  C   UNL     1      -1.238  -2.491  -2.579  0.00  0.00    +0.047 C 
BRANCH   5  13
ATOM     13  C   UNL     1      -1.147  -0.634   0.008  0.00  0.00    +0.341 C 
ATOM     14  O   UNL     1      -2.172   0.020   0.014  0.00  0.00    -0.245 OA
BRANCH  13  15
ATOM     15  O   UNL     1       0.048  -0.012   0.006  0.00  0.00    -0.461 OA
BRANCH  15  17
ATOM     16  C   UNL     1       1.475   1.962   0.011  0.00  0.00    +0.048 C 
ATOM     17  C   UNL     1       0.036   1.440   0.014  0.00  0.00    +0.229 C 
ENDBRANCH  15  17
ENDBRANCH  13  15
ENDBRANCH   5  13
ENDBRANCH   1   7
BRANCH   3  18
ATOM     18  C   UNL     1      -1.474  -7.846  -1.802  0.00  0.00    +0.200 C 
BRANCH  18  19
ATOM     19  C   UNL     1      -1.524  -9.071  -0.925  0.00  0.00    +0.234 C 
ATOM     20  O   UNL     1      -1.514  -8.954   0.282  0.00  0.00    -0.274 OA
ATOM     21  N   UNL     1      -1.581 -10.297  -1.483  0.00  0.00    -0.284 N 
ATOM     22  H   UNL     1      -1.670 -10.388  -2.445  0.00  0.00    +0.155 HD
BRANCH  21  23
ATOM     23  C   UNL     1      -1.512 -11.437  -0.674  0.00  0.00    +0.036 A 
ATOM     24  C   UNL     1      -0.890 -11.373   0.566  0.00  0.00    +0.024 A 
ATOM     25  C   UNL     1      -0.823 -12.500   1.362  0.00  0.00    +0.017 A 
ATOM     26  C   UNL     1      -1.375 -13.691   0.924  0.00  0.00    +0.018 A 
ATOM     27  C   UNL     1      -1.994 -13.757  -0.311  0.00  0.00    +0.020 A 
ATOM     28  C   UNL     1      -2.069 -12.632  -1.108  0.00  0.00    -0.028 A 
ATOM     29  C   UNL     1      -2.750 -12.703  -2.451  0.00  0.00    +0.046 C 
ATOM     30 BR   UNL     1      -1.281 -15.232   2.017  0.00  0.00    -0.050 Br
ENDBRANCH  21  23
ENDBRANCH  18  19
ENDBRANCH   3  18
TORSDOF 7
