REMARK  Name = ZINC09078265
REMARK  10 active torsions:
REMARK  status: ('A' for Active; 'I' for Inactive)
REMARK    1  A    between atoms: C_1  and  C_2
REMARK    2  A    between atoms: C_2  and  O_3
REMARK    3  A    between atoms: O_3  and  C_4
REMARK    4  A    between atoms: C_4  and  C_6
REMARK    5  A    between atoms: C_6  and  N_7
REMARK    6  A    between atoms: C_11  and  S_29
REMARK    7  A    between atoms: N_16  and  C_17
REMARK    8  A    between atoms: C_17  and  C_19
REMARK    9  A    between atoms: C_24  and  N_25
REMARK   10  A    between atoms: S_29  and  C_32
REMARK                            x       y       z     vdW  Elec       q    Type
REMARK                         _______ _______ _______ _____ _____    ______ ____
ROOT
ATOM      1  N   UNL     1       1.715   3.073   0.790  0.00  0.00    -0.310 N 
ATOM      2  C   UNL     1       1.659   4.446   0.645  0.00  0.00    +0.058 A 
ATOM      3  C   UNL     1       2.720   5.366   0.647  0.00  0.00    +0.029 A 
ATOM      4  C   UNL     1       2.483   6.712   0.496  0.00  0.00    +0.029 A 
ATOM      5  C   UNL     1       1.198   7.202   0.337  0.00  0.00    +0.089 A 
ATOM      6  C   UNL     1       0.134   6.317   0.331  0.00  0.00    +0.044 A 
ATOM      7  C   UNL     1       0.369   4.971   0.482  0.00  0.00    +0.041 A 
ATOM      8  S   UNL     1      -0.667   3.530   0.534  0.00  0.00    -0.052 S 
ATOM      9  C   UNL     1       0.571   2.337   0.758  0.00  0.00    +0.167 A 
ATOM     10  N   UNL     1       0.435   1.020   0.875  0.00  0.00    -0.152 NA
ENDROOT
BRANCH   5  11
ATOM     11  S   UNL     1       0.920   8.931   0.144  0.00  0.00    -0.006 S 
ATOM     12  O   UNL     1      -0.403   9.141   0.617  0.00  0.00    -0.170 OA
ATOM     13  O   UNL     1       2.026   9.549   0.788  0.00  0.00    -0.170 OA
ATOM     14  C   UNL     1       0.998   9.219  -1.645  0.00  0.00    +0.200 C 
ENDBRANCH   5  11
BRANCH  10  15
ATOM     15  C   UNL     1      -0.781   0.467   0.824  0.00  0.00    +0.272 C 
ATOM     16  O   UNL     1      -1.764   1.169   0.665  0.00  0.00    -0.268 OA
BRANCH  15  17
ATOM     17  C   UNL     1      -0.933  -1.001   0.955  0.00  0.00    +0.070 A 
ATOM     18  C   UNL     1       0.193  -1.824   0.956  0.00  0.00    +0.035 A 
ATOM     19  C   UNL     1       0.045  -3.191   1.082  0.00  0.00    +0.042 A 
ATOM     20  C   UNL     1      -1.219  -3.745   1.199  0.00  0.00    +0.022 A 
ATOM     21  C   UNL     1      -2.338  -2.933   1.194  0.00  0.00    +0.035 A 
ATOM     22  C   UNL     1      -2.203  -1.565   1.073  0.00  0.00    +0.138 A 
ATOM     23 CL   UNL     1       1.445  -4.217   1.088  0.00  0.00    -0.084 Cl
BRANCH  22  24
ATOM     24  N   UNL     1      -3.403  -0.699   1.067  0.00  0.00    +0.057 N 
ATOM     25  O   UNL     1      -3.447   0.284   1.786  0.00  0.00    -0.126 OA
ATOM     26  O   UNL     1      -4.345  -0.968   0.345  0.00  0.00    -0.126 OA
ENDBRANCH  22  24
ENDBRANCH  15  17
ENDBRANCH  10  15
BRANCH   1  27
ATOM     27  C   UNL     1       3.007   2.408   0.974  0.00  0.00    +0.244 C 
BRANCH  27  28
ATOM     28  C   UNL     1       2.899   1.398   2.087  0.00  0.00    +0.327 C 
ATOM     29  O   UNL     1       1.900   1.352   2.765  0.00  0.00    -0.249 OA
BRANCH  28  30
ATOM     30  O   UNL     1       3.912   0.551   2.325  0.00  0.00    -0.464 OA
BRANCH  30  32
ATOM     31  C   UNL     1       4.988  -1.271   3.532  0.00  0.00    +0.048 C 
ATOM     32  C   UNL     1       3.739  -0.395   3.413  0.00  0.00    +0.229 C 
ENDBRANCH  30  32
ENDBRANCH  28  30
ENDBRANCH  27  28
ENDBRANCH   1  27
TORSDOF 8
