REMARK  Name = ZINC20823053
REMARK  6 active torsions:
REMARK  status: ('A' for Active; 'I' for Inactive)
REMARK    1  A    between atoms: C_4  and  C_7
REMARK    2  A    between atoms: C_7  and  N_8
REMARK    3  A    between atoms: C_17  and  S_18
REMARK    4  A    between atoms: S_18  and  C_19
REMARK    5  A    between atoms: C_19  and  C_20
REMARK    6  A    between atoms: C_23  and  C_25
REMARK                            x       y       z     vdW  Elec       q    Type
REMARK                         _______ _______ _______ _____ _____    ______ ____
ROOT
ATOM      1  N   UNL     1      -2.927   0.722   1.401  0.00  0.00    -0.283 N 
ATOM      2  C   UNL     1      -3.713   1.614   2.032  0.00  0.00    +0.264 A 
ATOM      3  O   UNL     1      -4.079   2.627   1.462  0.00  0.00    -0.267 OA
ATOM      4  C   UNL     1      -4.113   1.356   3.382  0.00  0.00    +0.076 A 
ATOM      5  C   UNL     1      -4.955   2.179   4.251  0.00  0.00    -0.023 A 
ATOM      6  C   UNL     1      -5.189   1.715   5.495  0.00  0.00    -0.004 A 
ATOM      7  S   UNL     1      -4.314   0.176   5.584  0.00  0.00    -0.073 S 
ATOM      8  C   UNL     1      -3.635   0.160   3.944  0.00  0.00    +0.117 A 
ATOM      9  N   UNL     1      -2.860  -0.679   3.267  0.00  0.00    -0.216 NA
ATOM     10  C   UNL     1      -2.511  -0.420   2.022  0.00  0.00    +0.173 A 
ATOM     11  C   UNL     1      -6.011   2.364   6.567  0.00  0.00    +0.043 C 
ATOM     12  C   UNL     1      -6.253   3.828   6.171  0.00  0.00    +0.005 C 
ATOM     13  C   UNL     1      -6.714   3.872   4.712  0.00  0.00    +0.005 C 
ATOM     14  C   UNL     1      -5.552   3.506   3.788  0.00  0.00    +0.037 C 
ENDROOT
BRANCH   1  15
ATOM     15  C   UNL     1      -2.514   0.980   0.019  0.00  0.00    +0.162 C 
BRANCH  15  19
ATOM     16  C   UNL     1       1.156   3.165   0.008  0.00  0.00    +0.000 A 
ATOM     17  C   UNL     1       1.175   1.783   0.000  0.00  0.00    +0.000 A 
ATOM     18  C   UNL     1      -0.013   1.076   0.008  0.00  0.00    +0.005 A 
ATOM     19  C   UNL     1      -1.219   1.751   0.017  0.00  0.00    -0.028 A 
ATOM     20  C   UNL     1      -1.238   3.133   0.030  0.00  0.00    +0.005 A 
ATOM     21  C   UNL     1      -0.050   3.840   0.022  0.00  0.00    +0.000 A 
ENDBRANCH  15  19
ENDBRANCH   1  15
BRANCH  10  22
ATOM     22  S   UNL     1      -1.488  -1.560   1.151  0.00  0.00    -0.078 S 
BRANCH  22  23
ATOM     23  C   UNL     1      -1.269  -2.824   2.428  0.00  0.00    +0.175 C 
BRANCH  23  24
ATOM     24  C   UNL     1      -0.401  -3.934   1.893  0.00  0.00    +0.228 A 
ATOM     25  N   UNL     1       0.899  -3.999   1.969  0.00  0.00    -0.111 NA
ATOM     26  N   UNL     1       1.309  -5.082   1.409  0.00  0.00    -0.107 NA
ATOM     27  C   UNL     1       0.276  -5.750   0.952  0.00  0.00    +0.248 A 
ATOM     28  O   UNL     1      -0.827  -5.038   1.255  0.00  0.00    -0.419 OA
BRANCH  27  29
ATOM     29  C   UNL     1       0.314  -7.047   0.242  0.00  0.00    +0.038 A 
ATOM     30  C   UNL     1      -0.871  -7.648  -0.184  0.00  0.00    +0.013 A 
ATOM     31  C   UNL     1      -0.828  -8.855  -0.851  0.00  0.00    +0.001 A 
ATOM     32  C   UNL     1       0.387  -9.475  -1.088  0.00  0.00    +0.000 A 
ATOM     33  C   UNL     1       1.565  -8.887  -0.663  0.00  0.00    +0.001 A 
ATOM     34  C   UNL     1       1.536  -7.677  -0.000  0.00  0.00    +0.013 A 
ENDBRANCH  27  29
ENDBRANCH  23  24
ENDBRANCH  22  23
ENDBRANCH  10  22
TORSDOF 6
