REMARK  Name = ZINC38651465
REMARK  8 active torsions:
REMARK  status: ('A' for Active; 'I' for Inactive)
REMARK    1  A    between atoms: C_3  and  C_8
REMARK    2  A    between atoms: C_13  and  O_22
REMARK    3  A    between atoms: C_17  and  N_21
REMARK    4  A    between atoms: C_18  and  C_19
REMARK    5  A    between atoms: O_22  and  C_23
REMARK    6  A    between atoms: C_23  and  C_25
REMARK    7  A    between atoms: C_25  and  O_26
REMARK    8  A    between atoms: O_26  and  C_27
REMARK                            x       y       z     vdW  Elec       q    Type
REMARK                         _______ _______ _______ _____ _____    ______ ____
ROOT
ATOM      1  C   UNL     1       3.724   2.169   0.013  0.00  0.00    +0.098 C 
ATOM      2  C   UNL     1       4.487   1.831  -1.240  0.00  0.00    +0.008 A 
ATOM      3  C   UNL     1       4.038   2.306  -2.459  0.00  0.00    +0.012 A 
ATOM      4  C   UNL     1       4.725   2.007  -3.619  0.00  0.00    +0.047 A 
ATOM      5  C   UNL     1       5.871   1.227  -3.564  0.00  0.00    +0.135 A 
ATOM      6  C   UNL     1       6.324   0.750  -2.345  0.00  0.00    +0.093 A 
ATOM      7  C   UNL     1       5.631   1.051  -1.179  0.00  0.00    +0.138 A 
ATOM      8  O   UNL     1       6.088   0.577   0.006  0.00  0.00    -0.441 OA
ATOM      9  C   UNL     1       5.690   1.149   1.154  0.00  0.00    +0.199 C 
ATOM     10  C   UNL     1       4.579   1.914   1.223  0.00  0.00    +0.098 C 
ENDROOT
BRANCH   1  13
ATOM     11  C   UNL     1       0.100   1.125   0.184  0.00  0.00    +0.001 A 
ATOM     12  C   UNL     1       1.237   1.909   0.116  0.00  0.00    +0.004 A 
ATOM     13  C   UNL     1       2.485   1.315   0.088  0.00  0.00    -0.034 A 
ATOM     14  C   UNL     1       2.596  -0.062   0.129  0.00  0.00    +0.020 A 
ATOM     15  C   UNL     1       1.459  -0.846   0.198  0.00  0.00    +0.018 A 
ATOM     16  C   UNL     1       0.210  -0.252   0.226  0.00  0.00    +0.015 A 
ATOM     17 BR   UNL     1       1.610  -2.730   0.254  0.00  0.00    -0.050 Br
ENDBRANCH   1  13
BRANCH   9  18
ATOM     18  N   UNL     1       6.434   0.950   2.291  0.00  0.00    -0.328 N 
ATOM     19  H   UNL     1       7.234   0.402   2.256  0.00  0.00    +0.145 HD
ATOM     20  H   UNL     1       6.160   1.356   3.127  0.00  0.00    +0.145 HD
ENDBRANCH   9  18
BRANCH  10  21
ATOM     21  C   UNL     1       4.209   2.495   2.478  0.00  0.00    +0.101 C 
ATOM     22  N   UNL     1       3.915   2.955   3.474  0.00  0.00    -0.191 NA
ENDBRANCH  10  21
BRANCH   5  23
ATOM     23  O   UNL     1       6.549   0.931  -4.705  0.00  0.00    -0.423 OA
BRANCH  23  24
ATOM     24  C   UNL     1       6.527  -0.340  -5.139  0.00  0.00    +0.350 C 
ATOM     25  O   UNL     1       5.836  -1.158  -4.580  0.00  0.00    -0.247 OA
BRANCH  24  26
ATOM     26  C   UNL     1       7.366  -0.746  -6.323  0.00  0.00    +0.349 C 
BRANCH  26  27
ATOM     27  O   UNL     1       7.174  -2.136  -6.589  0.00  0.00    -0.481 OA
BRANCH  27  28
ATOM     28  C   UNL     1       7.864  -2.666  -7.634  0.00  0.00    +0.121 A 
ATOM     29  C   UNL     1       8.712  -1.865  -8.383  0.00  0.00    +0.048 A 
ATOM     30  C   UNL     1       9.413  -2.404  -9.445  0.00  0.00    +0.042 A 
ATOM     31  C   UNL     1       9.268  -3.744  -9.761  0.00  0.00    +0.124 A 
ATOM     32  C   UNL     1       8.421  -4.545  -9.014  0.00  0.00    +0.042 A 
ATOM     33  C   UNL     1       7.724  -4.010  -7.948  0.00  0.00    +0.048 A 
ATOM     34  F   UNL     1       9.953  -4.271 -10.800  0.00  0.00    -0.205 F 
ENDBRANCH  27  28
ENDBRANCH  26  27
ENDBRANCH  24  26
ENDBRANCH  23  24
ENDBRANCH   5  23
TORSDOF 8
