REMARK  Name = ZINC09002677
REMARK  9 active torsions:
REMARK  status: ('A' for Active; 'I' for Inactive)
REMARK    1  A    between atoms: C_1  and  C_2
REMARK    2  A    between atoms: N_7  and  S_9
REMARK    3  A    between atoms: S_9  and  C_12
REMARK    4  A    between atoms: C_15  and  C_18
REMARK    5  A    between atoms: C_18  and  N_20
REMARK    6  A    between atoms: N_22  and  C_34
REMARK    7  A    between atoms: C_26  and  N_30
REMARK    8  A    between atoms: C_31  and  C_33
REMARK    9  A    between atoms: C_34  and  C_35
REMARK                            x       y       z     vdW  Elec       q    Type
REMARK                         _______ _______ _______ _____ _____    ______ ____
ROOT
ATOM      1  C   UNL     1      -8.259   2.064   0.337  0.00  0.00    +0.269 C 
ATOM      2  O   UNL     1      -7.918   0.896   0.406  0.00  0.00    -0.268 OA
ENDROOT
BRANCH   1   3
ATOM      3  N   UNL     1      -7.336   3.024   0.221  0.00  0.00    -0.152 NA
ATOM      4  C   UNL     1      -6.046   2.705   0.180  0.00  0.00    +0.168 A 
ATOM      5  N   UNL     1      -4.976   3.535   0.067  0.00  0.00    -0.310 N 
ATOM      6  C   UNL     1      -3.694   3.014   0.041  0.00  0.00    +0.059 A 
ATOM      7  C   UNL     1      -2.476   3.705  -0.071  0.00  0.00    +0.029 A 
ATOM      8  C   UNL     1      -1.280   3.028  -0.075  0.00  0.00    +0.025 A 
ATOM      9  C   UNL     1      -1.238   1.641   0.019  0.00  0.00    +0.035 A 
ATOM     10  C   UNL     1      -2.430   0.935   0.130  0.00  0.00    +0.040 A 
ATOM     11  C   UNL     1      -3.623   1.617   0.140  0.00  0.00    +0.041 A 
ATOM     12  S   UNL     1      -5.326   1.130   0.261  0.00  0.00    -0.052 S 
BRANCH   9  13
ATOM     13  N   UNL     1      -0.011   0.966   0.007  0.00  0.00    -0.286 N 
ATOM     14  C   UNL     1       0.087  -0.243  -0.581  0.00  0.00    +0.214 C 
ATOM     15  O   UNL     1      -0.902  -0.781  -1.030  0.00  0.00    -0.276 OA
ATOM     16  C   UNL     1       1.427  -0.925  -0.681  0.00  0.00    +0.109 C 
ATOM     17  H   UNL     1       0.767   1.366   0.426  0.00  0.00    +0.155 HD
ENDBRANCH   9  13
BRANCH   5  18
ATOM     18  C   UNL     1      -5.179   4.983  -0.030  0.00  0.00    +0.212 C 
BRANCH  18  19
ATOM     19  C   UNL     1      -5.316   5.366  -1.444  0.00  0.00    -0.084 C 
ATOM     20  C   UNL     1      -5.425   5.672  -2.572  0.00  0.00    +0.005 C 
ENDBRANCH  18  19
ENDBRANCH   5  18
ENDBRANCH   1   3
BRANCH   1  24
ATOM     21  C   UNL     1     -12.382   3.085   0.466  0.00  0.00    +0.106 A 
ATOM     22  C   UNL     1     -11.998   1.758   0.545  0.00  0.00    +0.029 A 
ATOM     23  C   UNL     1     -10.661   1.421   0.503  0.00  0.00    +0.015 A 
ATOM     24  C   UNL     1      -9.696   2.420   0.382  0.00  0.00    +0.039 A 
ATOM     25  C   UNL     1     -10.089   3.756   0.309  0.00  0.00    +0.015 A 
ATOM     26  C   UNL     1     -11.430   4.081   0.345  0.00  0.00    +0.029 A 
BRANCH  21  27
ATOM     27  S   UNL     1     -14.092   3.508   0.518  0.00  0.00    +0.061 S 
ATOM     28  O   UNL     1     -14.217   4.771  -0.121  0.00  0.00    -0.153 OA
ATOM     29  O   UNL     1     -14.808   2.360   0.085  0.00  0.00    -0.153 OA
BRANCH  27  35
ATOM     30  C   UNL     1     -14.675   1.463   5.127  0.00  0.00    +0.009 C 
ATOM     31  C   UNL     1     -14.107   2.535   4.194  0.00  0.00    +0.002 C 
ATOM     32  C   UNL     1     -14.112   3.888   4.908  0.00  0.00    +0.006 C 
ATOM     33  C   UNL     1     -13.514   4.955   3.987  0.00  0.00    +0.017 C 
ATOM     34  C   UNL     1     -14.370   5.071   2.723  0.00  0.00    +0.109 C 
ATOM     35  N   UNL     1     -14.490   3.742   2.108  0.00  0.00    -0.176 NA
ATOM     36  C   UNL     1     -14.975   2.625   2.930  0.00  0.00    +0.112 C 
ENDBRANCH  27  35
ENDBRANCH  21  27
ENDBRANCH   1  24
TORSDOF 7
