REMARK  Name = ZINC04166681
REMARK  6 active torsions:
REMARK  status: ('A' for Active; 'I' for Inactive)
REMARK    1  A    between atoms: C_1  and  O_2
REMARK    2  A    between atoms: O_2  and  C_3
REMARK    3  A    between atoms: C_6  and  C_9
REMARK    4  A    between atoms: C_16  and  N_32
REMARK    5  A    between atoms: C_17  and  C_30
REMARK    6  A    between atoms: C_18  and  C_20
REMARK                            x       y       z     vdW  Elec       q    Type
REMARK                         _______ _______ _______ _____ _____    ______ ____
ROOT
ATOM      1  C   UNL     1      -4.964  -2.620   0.035  0.00  0.00    +0.100 A 
ATOM      2  C   UNL     1      -5.264  -3.825  -0.608  0.00  0.00    +0.054 A 
ATOM      3  C   UNL     1      -6.571  -4.124  -0.356  0.00  0.00    +0.223 A 
ATOM      4  N   UNL     1      -7.076  -3.141   0.417  0.00  0.00    -0.246 N 
ATOM      5  H   UNL     1      -7.985  -3.088   0.752  0.00  0.00    +0.192 HD
ATOM      6  N   UNL     1      -6.053  -2.210   0.657  0.00  0.00    -0.171 NA
ATOM      7  O   UNL     1      -7.173  -5.239  -0.840  0.00  0.00    -0.423 OA
ATOM      8  C   UNL     1      -6.383  -6.202  -1.356  0.00  0.00    +0.200 C 
ATOM      9  C   UNL     1      -5.078  -6.022  -1.658  0.00  0.00    +0.098 C 
ATOM     10  C   UNL     1      -4.374  -4.704  -1.448  0.00  0.00    +0.103 C 
ENDROOT
BRANCH  10  11
ATOM     11  C   UNL     1      -4.119  -4.045  -2.779  0.00  0.00    -0.017 A 
ATOM     12  C   UNL     1      -5.179  -3.744  -3.615  0.00  0.00    +0.055 A 
ATOM     13  C   UNL     1      -4.948  -3.139  -4.839  0.00  0.00    +0.167 A 
ATOM     14  C   UNL     1      -3.644  -2.835  -5.226  0.00  0.00    +0.167 A 
ATOM     15  C   UNL     1      -2.587  -3.139  -4.385  0.00  0.00    +0.065 A 
ATOM     16  C   UNL     1      -2.826  -3.738  -3.161  0.00  0.00    +0.026 A 
ATOM     17 BR   UNL     1      -1.381  -4.145  -2.011  0.00  0.00    -0.050 Br
ATOM     18  O   UNL     1      -3.681  -2.250  -6.459  0.00  0.00    -0.453 OA
ATOM     19  C   UNL     1      -4.977  -2.571  -6.998  0.00  0.00    +0.466 C 
ATOM     20  O   UNL     1      -5.800  -2.745  -5.829  0.00  0.00    -0.453 OA
ENDBRANCH  10  11
BRANCH   1  24
ATOM     21  C   UNL     1      -1.200  -0.637   0.010  0.00  0.00    +0.120 A 
ATOM     22  C   UNL     1      -2.374   0.104   0.019  0.00  0.00    +0.046 A 
ATOM     23  C   UNL     1      -3.595  -0.536   0.028  0.00  0.00    +0.013 A 
ATOM     24  C   UNL     1      -3.651  -1.928   0.026  0.00  0.00    +0.003 A 
ATOM     25  C   UNL     1      -2.471  -2.670   0.016  0.00  0.00    +0.013 A 
ATOM     26  C   UNL     1      -1.252  -2.025   0.003  0.00  0.00    +0.046 A 
BRANCH  21  28
ATOM     27  C   UNL     1      -0.017   1.425   0.010  0.00  0.00    +0.277 C 
ATOM     28  O   UNL     1       0.002  -0.004   0.002  0.00  0.00    -0.495 OA
ENDBRANCH  21  28
ENDBRANCH   1  24
BRANCH   8  29
ATOM     29  N   UNL     1      -6.935  -7.437  -1.587  0.00  0.00    -0.328 N 
ATOM     30  H   UNL     1      -7.869  -7.598  -1.380  0.00  0.00    +0.145 HD
ATOM     31  H   UNL     1      -6.391  -8.150  -1.958  0.00  0.00    +0.145 HD
ENDBRANCH   8  29
BRANCH   9  32
ATOM     32  C   UNL     1      -4.336  -7.122  -2.197  0.00  0.00    +0.101 C 
ATOM     33  N   UNL     1      -3.748  -7.994  -2.625  0.00  0.00    -0.191 NA
ENDBRANCH   9  32
TORSDOF 5
