REMARK  Name = ZINC22289524
REMARK  6 active torsions:
REMARK  status: ('A' for Active; 'I' for Inactive)
REMARK    1  A    between atoms: C_2  and  O_10
REMARK    2  A    between atoms: O_10  and  C_11
REMARK    3  A    between atoms: C_11  and  C_12
REMARK    4  A    between atoms: C_12  and  N_14
REMARK    5  A    between atoms: C_17  and  C_20
REMARK    6  A    between atoms: C_20  and  N_21
REMARK                            x       y       z     vdW  Elec       q    Type
REMARK                         _______ _______ _______ _____ _____    ______ ____
ROOT
ATOM      1  N   UNL     1      -1.005   6.371   0.044  0.00  0.00    -0.154 NA
ATOM      2  C   UNL     1      -0.846   7.697   0.049  0.00  0.00    +0.163 A 
ATOM      3  N   UNL     1      -1.803   8.662   0.069  0.00  0.00    -0.341 N 
ATOM      4  C   UNL     1      -1.419   9.967   0.071  0.00  0.00    +0.008 A 
ATOM      5  C   UNL     1      -0.106  10.220   0.054  0.00  0.00    +0.067 A 
ATOM      6  S   UNL     1       0.587   8.577   0.041  0.00  0.00    -0.061 S 
ATOM      7  H   UNL     1      -2.744   8.425   0.080  0.00  0.00    +0.167 HD
ENDROOT
BRANCH   1   8
ATOM      8  C   UNL     1       0.057   5.576   0.030  0.00  0.00    +0.276 C 
ATOM      9  O   UNL     1       1.176   6.055   0.022  0.00  0.00    -0.270 OA
BRANCH   8  10
ATOM     10  C   UNL     1      -0.122   4.080   0.024  0.00  0.00    +0.326 C 
BRANCH  10  11
ATOM     11  O   UNL     1       1.159   3.446   0.009  0.00  0.00    -0.481 OA
BRANCH  11  13
ATOM     12  C   UNL     1      -0.017   1.378   0.010  0.00  0.00    +0.068 A 
ATOM     13  C   UNL     1       1.175   2.087   0.002  0.00  0.00    +0.141 A 
ATOM     14  C   UNL     1       2.385   1.407  -0.013  0.00  0.00    +0.084 A 
ATOM     15  C   UNL     1       2.400   0.024  -0.021  0.00  0.00    +0.045 A 
ATOM     16  C   UNL     1       1.210  -0.681  -0.014  0.00  0.00    +0.061 A 
ATOM     17  C   UNL     1       0.002  -0.004   0.002  0.00  0.00    +0.063 A 
ATOM     18 CL   UNL     1      -1.490  -0.892   0.012  0.00  0.00    -0.082 Cl
ATOM     19 CL   UNL     1       1.231  -2.417  -0.024  0.00  0.00    -0.082 Cl
ATOM     20 CL   UNL     1       3.879   2.292  -0.023  0.00  0.00    -0.080 Cl
ENDBRANCH  11  13
ENDBRANCH  10  11
ENDBRANCH   8  10
ENDBRANCH   1   8
BRANCH   4  21
ATOM     21  C   UNL     1      -2.433  11.082   0.092  0.00  0.00    -0.024 C 
BRANCH  21  22
ATOM     22  N   UNL     1      -3.212  11.058  -1.153  0.00  0.00    +0.383 N 
ATOM     23  C   UNL     1      -2.328  11.347  -2.288  0.00  0.00    -0.078 C 
ATOM     24  C   UNL     1      -3.118  11.244  -3.595  0.00  0.00    -0.019 C 
ATOM     25  C   UNL     1      -4.267  12.256  -3.571  0.00  0.00    -0.004 C 
ATOM     26  C   UNL     1      -5.141  11.992  -2.341  0.00  0.00    -0.019 C 
ATOM     27  C   UNL     1      -4.276  12.067  -1.081  0.00  0.00    -0.078 C 
ATOM     28  H   UNL     1      -3.624  10.145  -1.274  0.00  0.00    -0.081 HD
ENDBRANCH  21  22
ENDBRANCH   4  21
TORSDOF 6
