REMARK  Name = ZINC16134042
REMARK  10 active torsions:
REMARK  status: ('A' for Active; 'I' for Inactive)
REMARK    1  A    between atoms: C_1  and  C_2
REMARK    2  A    between atoms: C_3  and  C_30
REMARK    3  A    between atoms: C_4  and  C_23
REMARK    4  A    between atoms: C_6  and  C_21
REMARK    5  A    between atoms: C_7  and  S_9
REMARK    6  A    between atoms: S_9  and  C_10
REMARK    7  A    between atoms: C_10  and  C_11
REMARK    8  A    between atoms: N_13  and  C_14
REMARK    9  A    between atoms: C_26  and  O_29
REMARK   10  A    between atoms: C_30  and  C_32
REMARK                            x       y       z     vdW  Elec       q    Type
REMARK                         _______ _______ _______ _____ _____    ______ ____
ROOT
ATOM      1  C   UNL     1       9.178  -4.243  -1.336  0.00  0.00    +0.061 C 
ATOM      2  C   UNL     1       9.550  -2.826  -0.981  0.00  0.00    +0.013 C 
ATOM      3  C   UNL     1      10.830  -2.421  -1.120  0.00  0.00    +0.024 C 
ATOM      4  C   UNL     1      11.256  -1.024  -0.772  0.00  0.00    +0.096 C 
ATOM      5  C   UNL     1      10.064  -0.115  -0.666  0.00  0.00    +0.069 C 
ATOM      6  C   UNL     1       8.806  -0.613  -0.540  0.00  0.00    +0.080 C 
ATOM      7  N   UNL     1       8.589  -1.973  -0.525  0.00  0.00    -0.312 N 
ATOM      8  H   UNL     1       7.636  -2.370  -0.144  0.00  0.00    +0.152 HD
ENDROOT
BRANCH   4   9
ATOM      9  C   UNL     1      11.990  -1.042   0.543  0.00  0.00    -0.034 A 
ATOM     10  C   UNL     1      11.351  -1.490   1.685  0.00  0.00    +0.008 A 
ATOM     11  C   UNL     1      12.024  -1.513   2.891  0.00  0.00    +0.046 A 
ATOM     12  C   UNL     1      13.339  -1.076   2.959  0.00  0.00    +0.117 A 
ATOM     13  C   UNL     1      13.976  -0.622   1.813  0.00  0.00    +0.046 A 
ATOM     14  C   UNL     1      13.301  -0.606   0.609  0.00  0.00    +0.008 A 
BRANCH  12  15
ATOM     15  O   UNL     1      14.001  -1.091   4.146  0.00  0.00    -0.507 OA
ATOM     16  H   UNL     1      15.043  -0.744   4.198  0.00  0.00    +0.292 HD
ENDBRANCH  12  15
ENDBRANCH   4   9
BRANCH   3  17
ATOM     17  C   UNL     1      11.786  -3.329  -1.601  0.00  0.00    +0.159 C 
ATOM     18  O   UNL     1      11.458  -4.463  -1.887  0.00  0.00    -0.293 OA
ATOM     19  C   UNL     1      13.221  -2.896  -1.763  0.00  0.00    +0.091 C 
ENDBRANCH   3  17
BRANCH   5  20
ATOM     20  C   UNL     1      10.259   1.304  -0.693  0.00  0.00    +0.098 C 
ATOM     21  N   UNL     1      10.413   2.429  -0.715  0.00  0.00    -0.191 NA
ENDBRANCH   5  20
BRANCH   6  22
ATOM     22  S   UNL     1       7.439   0.491  -0.402  0.00  0.00    -0.100 S 
BRANCH  22  23
ATOM     23  C   UNL     1       6.083  -0.701  -0.276  0.00  0.00    +0.171 C 
BRANCH  23  24
ATOM     24  C   UNL     1       4.776   0.037  -0.145  0.00  0.00    +0.227 C 
ATOM     25  O   UNL     1       4.762   1.250  -0.139  0.00  0.00    -0.275 OA
ATOM     26  N   UNL     1       3.622  -0.651  -0.036  0.00  0.00    -0.285 N 
ATOM     27  H   UNL     1       3.641  -1.748   0.045  0.00  0.00    +0.155 HD
BRANCH  26  28
ATOM     28  C   UNL     1       2.399   0.031  -0.026  0.00  0.00    +0.033 A 
ATOM     29  C   UNL     1       2.246   1.195  -0.768  0.00  0.00    +0.024 A 
ATOM     30  C   UNL     1       1.039   1.865  -0.756  0.00  0.00    +0.017 A 
ATOM     31  C   UNL     1      -0.017   1.379  -0.006  0.00  0.00    +0.018 A 
ATOM     32  C   UNL     1       0.133   0.219   0.734  0.00  0.00    +0.017 A 
ATOM     33  C   UNL     1       1.338  -0.456   0.726  0.00  0.00    +0.024 A 
ATOM     34 BR   UNL     1      -1.666   2.304   0.014  0.00  0.00    -0.050 Br
ENDBRANCH  26  28
ENDBRANCH  23  24
ENDBRANCH  22  23
ENDBRANCH   6  22
TORSDOF 8
