REMARK  Name = ZINC35496983
REMARK  7 active torsions:
REMARK  status: ('A' for Active; 'I' for Inactive)
REMARK    1  A    between atoms: C_4  and  C_7
REMARK    2  A    between atoms: C_11  and  C_13
REMARK    3  A    between atoms: C_13  and  N_14
REMARK    4  A    between atoms: N_14  and  C_15
REMARK    5  A    between atoms: C_15  and  C_16
REMARK    6  A    between atoms: C_25  and  C_27
REMARK    7  A    between atoms: C_27  and  C_28
REMARK                            x       y       z     vdW  Elec       q    Type
REMARK                         _______ _______ _______ _____ _____    ______ ____
ROOT
ATOM      1  N   UNL     1       7.875  -0.658  -1.435  0.00  0.00    -0.291 N 
ATOM      2  C   UNL     1       8.183  -1.807  -2.069  0.00  0.00    +0.220 C 
ATOM      3  O   UNL     1       8.154  -2.859  -1.466  0.00  0.00    -0.275 OA
ENDROOT
BRANCH   1   4
ATOM      4  C   UNL     1       7.614  -0.664   0.006  0.00  0.00    +0.165 C 
BRANCH   4   9
ATOM      5  C   UNL     1       4.032  -0.519   0.504  0.00  0.00    +0.139 A 
ATOM      6  N   UNL     1       4.228  -1.860   0.661  0.00  0.00    -0.344 N 
ATOM      7  H   UNL     1       3.547  -2.525   0.852  0.00  0.00    +0.167 HD
ATOM      8  C   UNL     1       5.567  -2.091   0.500  0.00  0.00    +0.109 A 
ATOM      9  C   UNL     1       6.146  -0.898   0.250  0.00  0.00    +0.077 A 
ATOM     10  N   UNL     1       5.193   0.042   0.252  0.00  0.00    -0.231 NA
BRANCH   5  14
ATOM     11  C   UNL     1       0.300   1.496   0.763  0.00  0.00    +0.000 A 
ATOM     12  C   UNL     1       1.453   2.212   0.491  0.00  0.00    +0.001 A 
ATOM     13  C   UNL     1       2.667   1.563   0.406  0.00  0.00    +0.011 A 
ATOM     14  C   UNL     1       2.732   0.182   0.594  0.00  0.00    +0.017 A 
ATOM     15  C   UNL     1       1.567  -0.534   0.868  0.00  0.00    +0.011 A 
ATOM     16  C   UNL     1       0.358   0.126   0.950  0.00  0.00    +0.001 A 
ENDBRANCH   5  14
ENDBRANCH   4   9
ENDBRANCH   1   4
BRANCH   1  17
ATOM     17  C   UNL     1       7.801   0.596  -2.188  0.00  0.00    +0.143 C 
BRANCH  17  18
ATOM     18  C   UNL     1       9.113   1.328  -2.075  0.00  0.00    -0.026 A 
ATOM     19  C   UNL     1       9.367   2.122  -0.972  0.00  0.00    +0.009 A 
ATOM     20  C   UNL     1      10.570   2.795  -0.863  0.00  0.00    +0.050 A 
ATOM     21  C   UNL     1      11.523   2.676  -1.861  0.00  0.00    +0.166 A 
ATOM     22  C   UNL     1      11.267   1.877  -2.973  0.00  0.00    +0.167 A 
ATOM     23  C   UNL     1      10.062   1.201  -3.072  0.00  0.00    +0.054 A 
ATOM     24  O   UNL     1      12.349   1.925  -3.803  0.00  0.00    -0.453 OA
ATOM     25  C   UNL     1      13.102   3.080  -3.388  0.00  0.00    +0.466 C 
ATOM     26  O   UNL     1      12.766   3.224  -1.995  0.00  0.00    -0.453 OA
ENDBRANCH  17  18
ENDBRANCH   1  17
BRANCH   2  27
ATOM     27  C   UNL     1       8.563  -1.785  -3.527  0.00  0.00    +0.145 C 
BRANCH  27  28
ATOM     28  C   UNL     1       8.958  -3.194  -3.973  0.00  0.00    +0.216 C 
ATOM     29  C   UNL     1       9.443  -3.167  -5.400  0.00  0.00    +0.007 A 
ATOM     30  C   UNL     1      10.482  -2.529  -6.036  0.00  0.00    +0.008 A 
ATOM     31  C   UNL     1      10.674  -2.707  -7.396  0.00  0.00    +0.000 A 
ATOM     32  C   UNL     1       9.824  -3.526  -8.119  0.00  0.00    +0.001 A 
ATOM     33  C   UNL     1       8.779  -4.171  -7.491  0.00  0.00    +0.015 A 
ATOM     34  C   UNL     1       8.579  -3.996  -6.121  0.00  0.00    +0.066 A 
ATOM     35  C   UNL     1       7.580  -4.529  -5.177  0.00  0.00    +0.340 C 
ATOM     36  O   UNL     1       6.677  -5.287  -5.472  0.00  0.00    -0.245 OA
ATOM     37  O   UNL     1       7.816  -4.055  -3.941  0.00  0.00    -0.453 OA
ENDBRANCH  27  28
ENDBRANCH   2  27
TORSDOF 7
