REMARK  Name = ZINC13956818
REMARK  9 active torsions:
REMARK  status: ('A' for Active; 'I' for Inactive)
REMARK    1  A    between atoms: C_1  and  C_2
REMARK    2  A    between atoms: C_8  and  N_10
REMARK    3  A    between atoms: C_11  and  C_13
REMARK    4  A    between atoms: C_13  and  S_14
REMARK    5  A    between atoms: S_14  and  C_15
REMARK    6  A    between atoms: C_18  and  C_21
REMARK    7  A    between atoms: N_19  and  C_20
REMARK    8  A    between atoms: C_27  and  O_30
REMARK    9  A    between atoms: O_30  and  C_31
REMARK                            x       y       z     vdW  Elec       q    Type
REMARK                         _______ _______ _______ _____ _____    ______ ____
ROOT
ATOM      1  C   UNL     1       2.223  -4.893   3.935  0.00  0.00    +0.192 A 
ATOM      2  N   UNL     1       1.260  -5.497   3.273  0.00  0.00    -0.122 NA
ATOM      3  N   UNL     1       1.406  -6.772   3.347  0.00  0.00    -0.125 NA
ATOM      4  C   UNL     1       2.466  -7.062   4.070  0.00  0.00    +0.200 A 
ATOM      5  N   UNL     1       3.021  -5.865   4.468  0.00  0.00    -0.303 N 
ATOM      6  C   UNL     1       4.217  -5.675   5.293  0.00  0.00    +0.153 C 
ENDROOT
BRANCH   4   7
ATOM      7  C   UNL     1       2.964  -8.408   4.392  0.00  0.00    +0.173 A 
ATOM      8  C   UNL     1       2.259  -9.559   4.241  0.00  0.00    +0.061 A 
ATOM      9  C   UNL     1       3.144 -10.637   4.683  0.00  0.00    +0.025 A 
ATOM     10  C   UNL     1       3.017 -12.026   4.773  0.00  0.00    +0.012 A 
ATOM     11  C   UNL     1       4.060 -12.775   5.241  0.00  0.00    +0.004 A 
ATOM     12  C   UNL     1       5.245 -12.167   5.629  0.00  0.00    +0.049 A 
ATOM     13  C   UNL     1       5.392 -10.794   5.549  0.00  0.00    +0.163 A 
ATOM     14  C   UNL     1       4.341 -10.012   5.073  0.00  0.00    +0.177 A 
ATOM     15  O   UNL     1       4.190  -8.686   4.878  0.00  0.00    -0.448 OA
BRANCH  13  16
ATOM     16  O   UNL     1       6.558 -10.209   5.931  0.00  0.00    -0.491 OA
ATOM     17  C   UNL     1       7.591 -11.073   6.408  0.00  0.00    +0.277 C 
ENDBRANCH  13  16
ENDBRANCH   4   7
BRANCH   1  18
ATOM     18  S   UNL     1       2.438  -3.153   4.109  0.00  0.00    -0.077 S 
BRANCH  18  19
ATOM     19  C   UNL     1       1.023  -2.564   3.147  0.00  0.00    +0.173 C 
BRANCH  19  21
ATOM     20  N   UNL     1       0.031  -0.392   2.498  0.00  0.00    -0.312 N 
ATOM     21  C   UNL     1       1.002  -1.057   3.155  0.00  0.00    +0.224 C 
ATOM     22  O   UNL     1       1.860  -0.442   3.752  0.00  0.00    -0.275 OA
ATOM     23  H   UNL     1      -0.655  -0.884   2.020  0.00  0.00    +0.149 HD
BRANCH  20  30
ATOM     24  C   UNL     1      -0.013   1.086   0.008  0.00  0.00    +0.009 C 
ATOM     25  C   UNL     1      -0.729   1.579   1.267  0.00  0.00    +0.006 C 
ATOM     26  C   UNL     1      -2.164   1.050   1.278  0.00  0.00    +0.005 C 
ATOM     27  C   UNL     1      -2.880   1.543   2.537  0.00  0.00    +0.000 C 
ATOM     28  C   UNL     1      -2.140   1.036   3.776  0.00  0.00    +0.002 C 
ATOM     29  C   UNL     1      -0.705   1.566   3.765  0.00  0.00    +0.022 C 
ATOM     30  C   UNL     1       0.011   1.072   2.506  0.00  0.00    +0.076 C 
ENDBRANCH  20  30
ENDBRANCH  19  21
ENDBRANCH  18  19
ENDBRANCH   1  18
TORSDOF 6
