REMARK  Name = ZINC51046136
REMARK  6 active torsions:
REMARK  status: ('A' for Active; 'I' for Inactive)
REMARK    1  A    between atoms: C_1  and  C_2
REMARK    2  A    between atoms: C_2  and  C_4
REMARK    3  A    between atoms: C_2  and  N_18
REMARK    4  A    between atoms: N_10  and  C_11
REMARK    5  A    between atoms: C_22  and  C_25
REMARK    6  A    between atoms: N_27  and  C_28
REMARK                            x       y       z     vdW  Elec       q    Type
REMARK                         _______ _______ _______ _____ _____    ______ ____
ROOT
ATOM      1  C   UNL     1       0.681  -0.624   1.217  0.00  0.00    +0.123 A 
ATOM      2  N   UNL     1       0.187  -0.351   2.412  0.00  0.00    -0.201 NA
ATOM      3  C   UNL     1       0.909  -0.593   3.503  0.00  0.00    +0.217 A 
ATOM      4  N   UNL     1       2.128  -1.111   3.390  0.00  0.00    -0.181 NA
ATOM      5  C   UNL     1       2.621  -1.384   2.187  0.00  0.00    +0.224 A 
ATOM      6  N   UNL     1       1.891  -1.143   1.100  0.00  0.00    -0.201 NA
ATOM      7  N   UNL     1       3.887  -1.921   2.064  0.00  0.00    -0.284 N 
ATOM      8  N   UNL     1       0.393  -0.307   4.751  0.00  0.00    -0.327 N 
ATOM      9  H   UNL     1       4.279  -2.045   1.185  0.00  0.00    +0.155 HD
ATOM     10  H   UNL     1      -0.496   0.071   4.832  0.00  0.00    +0.145 HD
ATOM     11  H   UNL     1       0.920  -0.484   5.546  0.00  0.00    +0.145 HD
ENDROOT
BRANCH   7  12
ATOM     12  C   UNL     1       4.605  -2.288   3.207  0.00  0.00    +0.034 A 
ATOM     13  C   UNL     1       3.946  -2.854   4.291  0.00  0.00    +0.023 A 
ATOM     14  C   UNL     1       4.659  -3.215   5.418  0.00  0.00    +0.002 A 
ATOM     15  C   UNL     1       6.026  -3.013   5.468  0.00  0.00    +0.000 A 
ATOM     16  C   UNL     1       6.684  -2.449   4.391  0.00  0.00    +0.002 A 
ATOM     17  C   UNL     1       5.979  -2.092   3.259  0.00  0.00    +0.023 A 
ENDBRANCH   7  12
BRANCH   1  19
ATOM     18  C   UNL     1      -0.152   1.156  -0.295  0.00  0.00    -0.005 C 
ATOM     19  C   UNL     1      -0.140  -0.348  -0.017  0.00  0.00    -0.002 C 
BRANCH  19  20
ATOM     20  N   UNL     1      -1.516  -0.818   0.196  0.00  0.00    +0.387 N 
ATOM     21  C   UNL     1      -1.501  -2.260   0.472  0.00  0.00    -0.078 C 
ATOM     22  C   UNL     1      -2.923  -2.739   0.774  0.00  0.00    -0.018 C 
ATOM     23  C   UNL     1      -3.818  -2.458  -0.436  0.00  0.00    +0.009 C 
ATOM     24  C   UNL     1      -3.767  -0.963  -0.761  0.00  0.00    +0.058 C 
ATOM     25  C   UNL     1      -2.314  -0.549  -1.006  0.00  0.00    -0.065 C 
ATOM     26  H   UNL     1      -1.919  -0.331   0.982  0.00  0.00    -0.081 HD
BRANCH  24  27
ATOM     27  C   UNL     1      -4.585  -0.688  -1.996  0.00  0.00    +0.215 C 
ATOM     28  O   UNL     1      -4.059  -0.204  -2.977  0.00  0.00    -0.276 OA
ATOM     29  N   UNL     1      -5.900  -0.979  -2.012  0.00  0.00    -0.312 N 
ATOM     30  H   UNL     1      -6.321  -1.365  -1.228  0.00  0.00    +0.149 HD
BRANCH  29  31
ATOM     31  C   UNL     1      -6.695  -0.711  -3.213  0.00  0.00    +0.073 C 
ATOM     32  C   UNL     1      -8.072  -0.072  -3.021  0.00  0.00    +0.024 C 
ATOM     33  C   UNL     1      -7.961  -1.544  -3.423  0.00  0.00    +0.024 C 
ENDBRANCH  29  31
ENDBRANCH  24  27
ENDBRANCH  19  20
ENDBRANCH   1  19
TORSDOF 5
