REMARK  Name = ZINC14625292
REMARK  9 active torsions:
REMARK  status: ('A' for Active; 'I' for Inactive)
REMARK    1  A    between atoms: C_1  and  C_2
REMARK    2  A    between atoms: C_2  and  C_3
REMARK    3  A    between atoms: C_3  and  C_4
REMARK    4  A    between atoms: C_4  and  N_5
REMARK    5  A    between atoms: C_6  and  N_31
REMARK    6  A    between atoms: C_7  and  N_14
REMARK    7  A    between atoms: N_14  and  C_15
REMARK    8  A    between atoms: C_15  and  C_16
REMARK    9  A    between atoms: C_22  and  C_24
REMARK                            x       y       z     vdW  Elec       q    Type
REMARK                         _______ _______ _______ _____ _____    ______ ____
ROOT
ATOM      1  N   UNL     1       2.243  -2.801   0.078  0.00  0.00    -0.256 N 
ATOM      2  C   UNL     1       1.048  -2.223  -0.152  0.00  0.00    +0.251 C 
ATOM      3  O   UNL     1       0.956  -1.011  -0.191  0.00  0.00    -0.270 OA
ENDROOT
BRANCH   1   6
ATOM      4  N   UNL     1       2.149  -6.303  -1.030  0.00  0.00    -0.280 N 
ATOM      5  C   UNL     1       2.024  -4.933  -1.054  0.00  0.00    +0.127 A 
ATOM      6  C   UNL     1       2.360  -4.206   0.071  0.00  0.00    +0.140 A 
ATOM      7  C   UNL     1       2.825  -4.892   1.209  0.00  0.00    +0.277 A 
ATOM      8  O   UNL     1       3.133  -4.275   2.214  0.00  0.00    -0.266 OA
ATOM      9  N   UNL     1       2.924  -6.236   1.181  0.00  0.00    -0.273 N 
ATOM     10  H   UNL     1       3.246  -6.724   1.992  0.00  0.00    +0.173 HD
ATOM     11  C   UNL     1       2.593  -6.927   0.076  0.00  0.00    +0.331 A 
ATOM     12  O   UNL     1       2.696  -8.138   0.077  0.00  0.00    -0.246 OA
BRANCH   5  13
ATOM     13  N   UNL     1       1.571  -4.295  -2.183  0.00  0.00    -0.343 N 
ATOM     14  H   UNL     1       1.607  -3.328  -2.242  0.00  0.00    +0.144 HD
ATOM     15  H   UNL     1       1.215  -4.813  -2.922  0.00  0.00    +0.144 HD
ENDBRANCH   5  13
BRANCH   4  16
ATOM     16  C   UNL     1       1.797  -7.086  -2.217  0.00  0.00    +0.128 C 
BRANCH  16  17
ATOM     17  C   UNL     1       3.031  -7.244  -3.108  0.00  0.00    +0.021 C 
BRANCH  17  19
ATOM     18  C   UNL     1       3.897  -8.220  -5.239  0.00  0.00    +0.004 C 
ATOM     19  C   UNL     1       2.663  -8.062  -4.348  0.00  0.00    -0.002 C 
ENDBRANCH  17  19
ENDBRANCH  16  17
ENDBRANCH   4  16
ENDBRANCH   1   6
BRANCH   2  20
ATOM     20  C   UNL     1      -0.151  -3.061  -0.357  0.00  0.00    +0.037 A 
ATOM     21  C   UNL     1      -1.226  -2.577  -1.106  0.00  0.00    +0.014 A 
ATOM     22  C   UNL     1      -2.342  -3.364  -1.295  0.00  0.00    +0.021 A 
ATOM     23  C   UNL     1      -2.399  -4.633  -0.743  0.00  0.00    +0.041 A 
ATOM     24  C   UNL     1      -1.336  -5.120   0.001  0.00  0.00    +0.021 A 
ATOM     25  C   UNL     1      -0.215  -4.341   0.197  0.00  0.00    +0.014 A 
ATOM     26 CL   UNL     1      -3.808  -5.619  -0.984  0.00  0.00    -0.084 Cl
ENDBRANCH   2  20
BRANCH   1  27
ATOM     27  C   UNL     1       3.422  -1.970   0.336  0.00  0.00    +0.149 C 
BRANCH  27  28
ATOM     28  C   UNL     1       4.165  -1.738  -0.955  0.00  0.00    -0.030 A 
ATOM     29  C   UNL     1       5.096  -2.662  -1.392  0.00  0.00    +0.005 A 
ATOM     30  C   UNL     1       5.773  -2.452  -2.578  0.00  0.00    +0.000 A 
ATOM     31  C   UNL     1       5.528  -1.313  -3.322  0.00  0.00    +0.000 A 
ATOM     32  C   UNL     1       4.601  -0.386  -2.882  0.00  0.00    +0.000 A 
ATOM     33  C   UNL     1       3.919  -0.599  -1.699  0.00  0.00    +0.005 A 
ENDBRANCH  27  28
ENDBRANCH   1  27
TORSDOF 8
