REMARK  Name = ZINC08961242
REMARK  8 active torsions:
REMARK  status: ('A' for Active; 'I' for Inactive)
REMARK    1  A    between atoms: C_1  and  C_2
REMARK    2  A    between atoms: C_2  and  O_3
REMARK    3  A    between atoms: O_3  and  C_4
REMARK    4  A    between atoms: C_5  and  C_31
REMARK    5  A    between atoms: C_7  and  S_11
REMARK    6  A    between atoms: C_9  and  C_10
REMARK    7  A    between atoms: S_11  and  N_14
REMARK    8  A    between atoms: N_14  and  C_15
REMARK                            x       y       z     vdW  Elec       q    Type
REMARK                         _______ _______ _______ _____ _____    ______ ____
ROOT
ATOM      1  C   UNL     1       3.709   1.981  -0.628  0.00  0.00    +0.049 A 
ATOM      2  C   UNL     1       4.008   2.064   0.727  0.00  0.00    +0.028 A 
ATOM      3  C   UNL     1       3.073   2.552   1.617  0.00  0.00    +0.049 A 
ATOM      4  C   UNL     1       1.827   2.965   1.165  0.00  0.00    +0.141 A 
ATOM      5  C   UNL     1       1.511   2.865  -0.193  0.00  0.00    +0.081 A 
ATOM      6  C   UNL     1       2.466   2.377  -1.091  0.00  0.00    +0.041 A 
ATOM      7  C   UNL     1       0.184   3.260  -0.685  0.00  0.00    +0.252 C 
ATOM      8  O   UNL     1      -0.317   2.581  -1.560  0.00  0.00    -0.270 OA
ATOM      9  N   UNL     1      -0.506   4.306  -0.251  0.00  0.00    -0.278 N 
ATOM     10  C   UNL     1      -0.102   5.210   0.731  0.00  0.00    +0.076 A 
ATOM     11  C   UNL     1      -0.423   6.555   0.574  0.00  0.00    +0.027 A 
ATOM     12  C   UNL     1      -0.094   7.468   1.557  0.00  0.00    +0.002 A 
ATOM     13  C   UNL     1       0.557   7.049   2.702  0.00  0.00    +0.004 A 
ATOM     14  C   UNL     1       0.892   5.718   2.859  0.00  0.00    +0.048 A 
ATOM     15  C   UNL     1       0.575   4.796   1.870  0.00  0.00    +0.150 A 
ATOM     16  O   UNL     1       0.943   3.502   2.038  0.00  0.00    -0.453 OA
ATOM     17  H   UNL     1      -1.377   4.453  -0.651  0.00  0.00    +0.155 HD
ENDROOT
BRANCH   1  18
ATOM     18  N   UNL     1       4.666   1.495  -1.527  0.00  0.00    -0.216 N 
ATOM     19  H   UNL     1       4.861   0.546  -1.562  0.00  0.00    +0.174 HD
BRANCH  18  20
ATOM     20  S   UNL     1       5.467   2.543  -2.530  0.00  0.00    +0.072 S 
ATOM     21  O   UNL     1       6.398   1.765  -3.269  0.00  0.00    -0.150 OA
ATOM     22  O   UNL     1       4.474   3.342  -3.157  0.00  0.00    -0.150 OA
BRANCH  20  26
ATOM     23  C   UNL     1       7.895   5.319   0.098  0.00  0.00    +0.126 A 
ATOM     24  C   UNL     1       8.468   4.160  -0.405  0.00  0.00    -0.007 A 
ATOM     25  C   UNL     1       7.725   3.315  -1.206  0.00  0.00    +0.035 A 
ATOM     26  C   UNL     1       6.411   3.623  -1.507  0.00  0.00    +0.109 A 
ATOM     27  C   UNL     1       5.839   4.780  -1.012  0.00  0.00    +0.035 A 
ATOM     28  C   UNL     1       6.576   5.626  -0.206  0.00  0.00    -0.007 A 
ATOM     29  C   UNL     1       5.950   6.884   0.339  0.00  0.00    +0.047 C 
ATOM     30  C   UNL     1       9.900   3.824  -0.078  0.00  0.00    +0.047 C 
BRANCH  23  31
ATOM     31  O   UNL     1       8.623   6.152   0.886  0.00  0.00    -0.492 OA
BRANCH  31  33
ATOM     32  C   UNL     1      10.110   8.018   1.274  0.00  0.00    +0.048 C 
ATOM     33  C   UNL     1       9.357   7.189   0.232  0.00  0.00    +0.226 C 
ENDBRANCH  31  33
ENDBRANCH  23  31
ENDBRANCH  20  26
ENDBRANCH  18  20
ENDBRANCH   1  18
TORSDOF 5
