REMARK  Name = ZINC10673131
REMARK  6 active torsions:
REMARK  status: ('A' for Active; 'I' for Inactive)
REMARK    1  A    between atoms: C_12  and  C_14
REMARK    2  A    between atoms: C_14  and  O_16
REMARK    3  A    between atoms: O_16  and  C_17
REMARK    4  A    between atoms: C_17  and  C_18
REMARK    5  A    between atoms: N_20  and  C_21
REMARK    6  A    between atoms: C_24  and  N_28
REMARK                            x       y       z     vdW  Elec       q    Type
REMARK                         _______ _______ _______ _____ _____    ______ ____
ROOT
ATOM      1  O   UNL     1       7.164   1.311   0.252  0.00  0.00    -0.453 OA
ENDROOT
BRANCH   1   2
ATOM      2  C   UNL     1       8.392   1.842   0.351  0.00  0.00    +0.343 C 
ATOM      3  O   UNL     1       8.532   3.042   0.370  0.00  0.00    -0.247 OA
BRANCH   2  15
ATOM      4  C   UNL     1      12.873   3.466  -1.949  0.00  0.00    +0.002 A 
ATOM      5  C   UNL     1      12.716   2.598  -3.014  0.00  0.00    +0.001 A 
ATOM      6  C   UNL     1      11.900   1.487  -2.864  0.00  0.00    +0.016 A 
ATOM      7  C   UNL     1      11.265   1.269  -1.666  0.00  0.00    +0.032 A 
ATOM      8  C   UNL     1      11.476   2.085  -0.545  0.00  0.00    +0.052 A 
ATOM      9  C   UNL     1      12.269   3.223  -0.736  0.00  0.00    +0.025 A 
ATOM     10  N   UNL     1      10.875   1.666   0.662  0.00  0.00    -0.245 N 
ATOM     11  C   UNL     1      11.159   1.650   1.987  0.00  0.00    +0.221 C 
ATOM     12  O   UNL     1      12.028   2.310   2.516  0.00  0.00    -0.275 OA
ATOM     13  C   UNL     1      10.240   0.694   2.712  0.00  0.00    +0.100 C 
ATOM     14  C   UNL     1       9.519  -0.072   1.591  0.00  0.00    +0.059 C 
ATOM     15  C   UNL     1       9.598   0.941   0.439  0.00  0.00    +0.190 C 
ATOM     16  S   UNL     1      10.013   0.111  -1.148  0.00  0.00    -0.086 S 
ENDBRANCH   2  15
ENDBRANCH   1   2
BRANCH   1  17
ATOM     17  C   UNL     1       6.049   2.238   0.171  0.00  0.00    +0.328 C 
BRANCH  17  18
ATOM     18  C   UNL     1       4.760   1.466   0.066  0.00  0.00    +0.255 C 
ATOM     19  O   UNL     1       4.778   0.253   0.059  0.00  0.00    -0.272 OA
ATOM     20  N   UNL     1       3.586   2.122  -0.021  0.00  0.00    -0.282 N 
ATOM     21  H   UNL     1       3.575   3.089  -0.097  0.00  0.00    +0.155 HD
BRANCH  20  22
ATOM     22  C   UNL     1       2.382   1.409  -0.003  0.00  0.00    +0.048 A 
ATOM     23  C   UNL     1       2.323   0.159   0.599  0.00  0.00    +0.026 A 
ATOM     24  C   UNL     1       1.133  -0.542   0.617  0.00  0.00    +0.034 A 
ATOM     25  C   UNL     1       0.001  -0.001   0.035  0.00  0.00    +0.127 A 
ATOM     26  C   UNL     1       0.056   1.243  -0.565  0.00  0.00    +0.049 A 
ATOM     27  C   UNL     1       1.243   1.950  -0.586  0.00  0.00    +0.041 A 
ATOM     28 BR   UNL     1       1.317   3.652  -1.407  0.00  0.00    -0.048 Br
BRANCH  25  29
ATOM     29  N   UNL     1      -1.272  -0.756   0.055  0.00  0.00    +0.056 N 
ATOM     30  O   UNL     1      -2.270  -0.282  -0.458  0.00  0.00    -0.126 OA
ATOM     31  O   UNL     1      -1.322  -1.853   0.583  0.00  0.00    -0.126 OA
ENDBRANCH  25  29
ENDBRANCH  20  22
ENDBRANCH  17  18
ENDBRANCH   1  17
TORSDOF 6
