REMARK  Name = ZINC00500305
REMARK  2 active torsions:
REMARK  status: ('A' for Active; 'I' for Inactive)
REMARK    1  A    between atoms: C_9  and  C_11
REMARK    2  A    between atoms: N_12  and  N_13
REMARK                            x       y       z     vdW  Elec       q    Type
REMARK                         _______ _______ _______ _____ _____    ______ ____
ROOT
ATOM      1  N   UNL     1      -1.459   7.268   0.017  0.00  0.00    -0.184 N 
ATOM      2  C   UNL     1      -1.391   5.924   0.216  0.00  0.00    +0.227 A 
ATOM      3  N   UNL     1      -2.458   5.177   0.235  0.00  0.00    -0.233 NA
ATOM      4  C   UNL     1      -3.682   5.706   0.057  0.00  0.00    +0.103 A 
ATOM      5  C   UNL     1      -5.038   5.141   0.026  0.00  0.00    +0.026 A 
ATOM      6  C   UNL     1      -5.545   3.849   0.170  0.00  0.00    +0.012 A 
ATOM      7  C   UNL     1      -6.892   3.634   0.089  0.00  0.00    +0.001 A 
ATOM      8  C   UNL     1      -7.762   4.692  -0.136  0.00  0.00    +0.002 A 
ATOM      9  C   UNL     1      -7.282   5.975  -0.281  0.00  0.00    +0.026 A 
ATOM     10  C   UNL     1      -5.913   6.218  -0.202  0.00  0.00    +0.049 A 
ATOM     11  N   UNL     1      -5.162   7.369  -0.306  0.00  0.00    -0.349 N 
ATOM     12  H   UNL     1      -5.658   8.334  -0.486  0.00  0.00    +0.166 HD
ATOM     13  C   UNL     1      -3.820   7.077  -0.152  0.00  0.00    +0.133 A 
ATOM     14  C   UNL     1      -2.653   7.873  -0.165  0.00  0.00    +0.298 A 
ATOM     15  O   UNL     1      -2.721   9.078  -0.338  0.00  0.00    -0.263 OA
ENDROOT
BRANCH   1  17
ATOM     16  C   UNL     1       0.563   7.904  -0.971  0.00  0.00    +0.161 C 
ATOM     17  N   UNL     1      -0.283   8.030   0.006  0.00  0.00    -0.169 NA
BRANCH  16  26
ATOM     18  C   UNL     1      -2.073   4.281  -5.482  0.00  0.00    +0.001 A 
ATOM     19  C   UNL     1      -2.997   4.548  -4.474  0.00  0.00    +0.002 A 
ATOM     20  C   UNL     1      -2.659   5.303  -3.394  0.00  0.00    +0.028 A 
ATOM     21  C   UNL     1      -1.359   5.834  -3.293  0.00  0.00    +0.072 A 
ATOM     22  C   UNL     1      -0.423   5.565  -4.323  0.00  0.00    +0.000 A 
ATOM     23  C   UNL     1      -0.807   4.778  -5.420  0.00  0.00    +0.010 A 
ATOM     24  C   UNL     1       0.879   6.096  -4.225  0.00  0.00    +0.012 A 
ATOM     25  C   UNL     1       1.188   6.852  -3.135  0.00  0.00    +0.030 A 
ATOM     26  C   UNL     1       0.216   7.083  -2.146  0.00  0.00    +0.084 A 
ATOM     27  N   UNL     1      -1.003   6.582  -2.246  0.00  0.00    -0.246 NA
ENDBRANCH  16  26
ENDBRANCH   1  17
TORSDOF 2
