REMARK  Name = ZINC39936043
REMARK  5 active torsions:
REMARK  status: ('A' for Active; 'I' for Inactive)
REMARK    1  A    between atoms: C_7  and  C_10
REMARK    2  A    between atoms: N_13  and  S_16
REMARK    3  A    between atoms: S_16  and  C_19
REMARK    4  A    between atoms: C_22  and  S_25
REMARK    5  A    between atoms: S_25  and  N_28
REMARK                            x       y       z     vdW  Elec       q    Type
REMARK                         _______ _______ _______ _____ _____    ______ ____
ROOT
ATOM      1  S   UNL     1      -1.826  -6.272  -1.289  0.00  0.00    +0.061 S 
ATOM      2  O   UNL     1      -1.313  -7.568  -1.012  0.00  0.00    -0.153 OA
ATOM      3  O   UNL     1      -3.213  -5.972  -1.226  0.00  0.00    -0.153 OA
ENDROOT
BRANCH   1   7
ATOM      4  C   UNL     1       0.673  -3.130  -0.021  0.00  0.00    -0.043 C 
ATOM      5  C   UNL     1      -0.624  -2.873   0.090  0.00  0.00    -0.006 C 
ATOM      6  C   UNL     1      -1.677  -3.945   0.123  0.00  0.00    +0.137 C 
ATOM      7  N   UNL     1      -1.068  -5.230  -0.249  0.00  0.00    -0.173 NA
ATOM      8  C   UNL     1       0.242  -5.555   0.340  0.00  0.00    +0.114 C 
ATOM      9  C   UNL     1       1.250  -4.509  -0.149  0.00  0.00    +0.052 C 
BRANCH   4  16
ATOM     10  C   UNL     1       5.151  -2.873  -0.693  0.00  0.00    +0.001 A 
ATOM     11  C   UNL     1       5.657  -1.572  -0.610  0.00  0.00    +0.002 A 
ATOM     12  C   UNL     1       4.859  -0.508  -0.351  0.00  0.00    +0.026 A 
ATOM     13  C   UNL     1       3.465  -0.702  -0.156  0.00  0.00    +0.043 A 
ATOM     14  N   UNL     1       2.496   0.148   0.103  0.00  0.00    -0.380 N 
ATOM     15  C   UNL     1       1.229  -0.583   0.211  0.00  0.00    +0.149 C 
ATOM     16  C   UNL     1       1.565  -2.039  -0.024  0.00  0.00    -0.016 C 
ATOM     17  C   UNL     1       2.936  -2.076  -0.245  0.00  0.00    +0.003 A 
ATOM     18  C   UNL     1       3.832  -3.135  -0.518  0.00  0.00    +0.010 A 
ATOM     19  H   UNL     1       2.602   1.107   0.207  0.00  0.00    +0.160 HD
ENDBRANCH   4  16
ENDBRANCH   1   7
BRANCH   1  20
ATOM     20  C   UNL     1      -1.295  -5.859  -2.918  0.00  0.00    +0.106 A 
ATOM     21  C   UNL     1      -1.997  -4.926  -3.658  0.00  0.00    +0.030 A 
ATOM     22  C   UNL     1      -1.581  -4.602  -4.936  0.00  0.00    +0.030 A 
ATOM     23  C   UNL     1      -0.463  -5.210  -5.473  0.00  0.00    +0.106 A 
ATOM     24  C   UNL     1       0.240  -6.143  -4.733  0.00  0.00    +0.030 A 
ATOM     25  C   UNL     1      -0.174  -6.464  -3.454  0.00  0.00    +0.030 A 
BRANCH  23  26
ATOM     26  S   UNL     1       0.067  -4.798  -7.103  0.00  0.00    +0.061 S 
ATOM     27  O   UNL     1       0.820  -5.906  -7.577  0.00  0.00    -0.153 OA
ATOM     28  O   UNL     1      -1.075  -4.303  -7.788  0.00  0.00    -0.153 OA
BRANCH  26  29
ATOM     29  N   UNL     1       1.124  -3.530  -6.967  0.00  0.00    -0.172 NA
ATOM     30  C   UNL     1       0.647  -2.139  -7.006  0.00  0.00    +0.137 C 
ATOM     31  C   UNL     1       1.231  -1.394  -5.800  0.00  0.00    +0.177 C 
ATOM     32  O   UNL     1       2.649  -1.579  -5.774  0.00  0.00    -0.377 OA
ATOM     33  C   UNL     1       3.058  -2.938  -5.609  0.00  0.00    +0.177 C 
ATOM     34  C   UNL     1       2.568  -3.762  -6.799  0.00  0.00    +0.137 C 
ENDBRANCH  26  29
ENDBRANCH  23  26
ENDBRANCH   1  20
TORSDOF 5
