REMARK  Name = ZINC13477299
REMARK  14 active torsions:
REMARK  status: ('A' for Active; 'I' for Inactive)
REMARK    1  A    between atoms: C_1  and  C_2
REMARK    2  A    between atoms: C_5  and  N_9
REMARK    3  A    between atoms: C_7  and  C_8
REMARK    4  A    between atoms: N_9  and  C_10
REMARK    5  A    between atoms: N_9  and  N_22
REMARK    6  A    between atoms: C_10  and  C_11
REMARK    7  A    between atoms: C_11  and  C_13
REMARK    8  A    between atoms: C_11  and  O_21
REMARK    9  A    between atoms: C_13  and  C_15
REMARK   10  A    between atoms: C_13  and  O_20
REMARK   11  A    between atoms: C_15  and  C_17
REMARK   12  A    between atoms: C_15  and  O_19
REMARK   13  A    between atoms: C_17  and  O_18
REMARK   14  A    between atoms: N_23  and  C_24
REMARK                            x       y       z     vdW  Elec       q    Type
REMARK                         _______ _______ _______ _____ _____    ______ ____
ROOT
ATOM      1  N   UNL     1       2.166   1.035   1.118  0.00  0.00    -0.204 N 
ENDROOT
BRANCH   1   6
ATOM      2  C   UNL     1       1.607   3.861   6.004  0.00  0.00    +0.044 C 
ATOM      3  C   UNL     1       1.756   3.110   4.705  0.00  0.00    -0.047 A 
ATOM      4  C   UNL     1       2.095   1.769   4.719  0.00  0.00    +0.005 A 
ATOM      5  C   UNL     1       2.226   1.076   3.531  0.00  0.00    +0.025 A 
ATOM      6  C   UNL     1       2.028   1.731   2.322  0.00  0.00    +0.053 A 
ATOM      7  C   UNL     1       1.688   3.078   2.312  0.00  0.00    +0.028 A 
ATOM      8  C   UNL     1       1.553   3.763   3.504  0.00  0.00    -0.046 A 
ATOM      9  C   UNL     1       1.185   5.224   3.494  0.00  0.00    +0.044 C 
ENDBRANCH   1   6
BRANCH   1  10
ATOM     10  N   UNL     1       3.298   0.241   0.894  0.00  0.00    -0.074 NA
ATOM     11  N   UNL     1       4.252   0.217   1.762  0.00  0.00    -0.134 NA
BRANCH  11  12
ATOM     12  C   UNL     1       5.360  -0.560   1.543  0.00  0.00    +0.088 A 
ATOM     13  C   UNL     1       5.457  -1.331   0.383  0.00  0.00    +0.031 A 
ATOM     14  C   UNL     1       6.577  -2.106   0.165  0.00  0.00    +0.017 A 
ATOM     15  C   UNL     1       7.598  -2.130   1.099  0.00  0.00    +0.018 A 
ATOM     16  C   UNL     1       7.505  -1.372   2.254  0.00  0.00    +0.017 A 
ATOM     17  C   UNL     1       6.393  -0.588   2.481  0.00  0.00    +0.031 A 
ATOM     18 BR   UNL     1       9.126  -3.202   0.796  0.00  0.00    -0.050 Br
ENDBRANCH  11  12
ENDBRANCH   1  10
BRANCH   1  19
ATOM     19  C   UNL     1       1.126   1.135   0.091  0.00  0.00    +0.167 C 
BRANCH  19  20
ATOM     20  C   UNL     1       0.021   0.118   0.383  0.00  0.00    +0.165 C 
BRANCH  20  21
ATOM     21  O   UNL     1      -0.627   0.458   1.611  0.00  0.00    -0.388 OA
ATOM     22  H   UNL     1      -1.037   1.334   1.610  0.00  0.00    +0.210 HD
ENDBRANCH  20  21
BRANCH  20  23
ATOM     23  C   UNL     1      -1.002   0.136  -0.754  0.00  0.00    +0.175 C 
BRANCH  23  24
ATOM     24  O   UNL     1      -0.354  -0.204  -1.982  0.00  0.00    -0.387 OA
ATOM     25  H   UNL     1       0.056  -1.079  -1.981  0.00  0.00    +0.210 HD
ENDBRANCH  23  24
BRANCH  23  26
ATOM     26  C   UNL     1      -2.107  -0.881  -0.462  0.00  0.00    +0.171 C 
BRANCH  26  27
ATOM     27  O   UNL     1      -2.755  -0.541   0.765  0.00  0.00    -0.387 OA
ATOM     28  H   UNL     1      -3.165   0.334   0.764  0.00  0.00    +0.210 HD
ENDBRANCH  26  27
BRANCH  26  29
ATOM     29  C   UNL     1      -3.130  -0.863  -1.600  0.00  0.00    +0.189 C 
BRANCH  29  30
ATOM     30  O   UNL     1      -4.098  -1.892  -1.386  0.00  0.00    -0.392 OA
ATOM     31  H   UNL     1      -4.780  -1.940  -2.071  0.00  0.00    +0.210 HD
ENDBRANCH  29  30
ENDBRANCH  26  29
ENDBRANCH  23  26
ENDBRANCH  20  23
ENDBRANCH  19  20
ENDBRANCH   1  19
TORSDOF 12
