REMARK  Name = ZINC22589398
REMARK  12 active torsions:
REMARK  status: ('A' for Active; 'I' for Inactive)
REMARK    1  A    between atoms: C_1  and  N_2
REMARK    2  A    between atoms: C_12  and  O_32
REMARK    3  A    between atoms: C_13  and  O_30
REMARK    4  A    between atoms: C_16  and  C_18
REMARK    5  A    between atoms: C_20  and  O_28
REMARK    6  A    between atoms: C_21  and  O_26
REMARK    7  A    between atoms: C_22  and  O_24
REMARK    8  A    between atoms: O_24  and  C_25
REMARK    9  A    between atoms: O_26  and  C_27
REMARK   10  A    between atoms: O_28  and  C_29
REMARK   11  A    between atoms: O_30  and  C_31
REMARK   12  A    between atoms: O_32  and  C_33
REMARK                            x       y       z     vdW  Elec       q    Type
REMARK                         _______ _______ _______ _____ _____    ______ ____
ROOT
ATOM      1  C   UNL     1      -0.006   2.609  -5.692  0.00  0.00    -0.095 C 
ATOM      2  N   UNL     1      -0.255   1.955  -4.406  0.00  0.00    +0.385 N 
ATOM      3  C   UNL     1      -0.437   2.894  -3.353  0.00  0.00    -0.077 C 
ATOM      4  C   UNL     1       0.190   2.415  -2.079  0.00  0.00    -0.007 C 
ATOM      5  C   UNL     1      -0.766   1.635  -1.219  0.00  0.00    -0.006 C 
ATOM      6  C   UNL     1      -0.013   1.080   0.008  0.00  0.00    +0.011 C 
ATOM      7  C   UNL     1      -0.746   1.617   1.251  0.00  0.00    +0.001 C 
ATOM      8  C   UNL     1      -1.388   2.940   0.761  0.00  0.00    +0.001 C 
ATOM      9  C   UNL     1      -1.846   2.595  -0.671  0.00  0.00    +0.011 C 
ATOM     10  C   UNL     1      -1.464   0.493  -1.941  0.00  0.00    -0.036 A 
ATOM     11  C   UNL     1      -1.992  -0.395  -0.974  0.00  0.00    +0.053 A 
ATOM     12  C   UNL     1      -2.728  -1.506  -1.296  0.00  0.00    +0.162 A 
ATOM     13  C   UNL     1      -2.993  -1.751  -2.640  0.00  0.00    +0.162 A 
ATOM     14  C   UNL     1      -2.481  -0.882  -3.571  0.00  0.00    +0.052 A 
ATOM     15  C   UNL     1      -1.653   0.219  -3.236  0.00  0.00    -0.049 A 
ATOM     16  C   UNL     1      -1.193   0.871  -4.518  0.00  0.00    -0.007 C 
ATOM     17  H   UNL     1       0.643   1.429  -4.050  0.00  0.00    -0.081 HD
ENDROOT
BRANCH  16  18
ATOM     18  C   UNL     1      -0.531  -0.184  -5.366  0.00  0.00    -0.050 A 
ATOM     19  C   UNL     1       0.815  -0.455  -5.203  0.00  0.00    +0.052 A 
ATOM     20  C   UNL     1       1.427  -1.429  -5.977  0.00  0.00    +0.165 A 
ATOM     21  C   UNL     1       0.687  -2.127  -6.925  0.00  0.00    +0.204 A 
ATOM     22  C   UNL     1      -0.664  -1.847  -7.090  0.00  0.00    +0.165 A 
ATOM     23  C   UNL     1      -1.270  -0.875  -6.308  0.00  0.00    +0.052 A 
BRANCH  22  24
ATOM     24  O   UNL     1      -1.392  -2.527  -8.016  0.00  0.00    -0.491 OA
ATOM     25  C   UNL     1      -2.776  -2.188  -8.130  0.00  0.00    +0.277 C 
ENDBRANCH  22  24
BRANCH  21  26
ATOM     26  O   UNL     1       1.285  -3.080  -7.691  0.00  0.00    -0.488 OA
ATOM     27  C   UNL     1       1.859  -2.653  -8.928  0.00  0.00    +0.277 C 
ENDBRANCH  21  26
BRANCH  20  28
ATOM     28  O   UNL     1       2.749  -1.699  -5.812  0.00  0.00    -0.491 OA
ATOM     29  C   UNL     1       3.446  -0.944  -4.819  0.00  0.00    +0.277 C 
ENDBRANCH  20  28
ENDBRANCH  16  18
BRANCH  13  30
ATOM     30  O   UNL     1      -3.761  -2.809  -3.017  0.00  0.00    -0.491 OA
ATOM     31  C   UNL     1      -4.003  -2.969  -4.416  0.00  0.00    +0.277 C 
ENDBRANCH  13  30
BRANCH  12  32
ATOM     32  O   UNL     1      -3.205  -2.333  -0.329  0.00  0.00    -0.491 OA
ATOM     33  C   UNL     1      -2.882  -2.004   1.024  0.00  0.00    +0.277 C 
ENDBRANCH  12  32
TORSDOF 6
