REMARK  Name = ZINC36543318
REMARK  11 active torsions:
REMARK  status: ('A' for Active; 'I' for Inactive)
REMARK    1  A    between atoms: C_1  and  C_2
REMARK    2  A    between atoms: C_2  and  C_3
REMARK    3  A    between atoms: C_2  and  C_4
REMARK    4  A    between atoms: C_2  and  N_5
REMARK    5  A    between atoms: C_6  and  C_8
REMARK    6  A    between atoms: C_8  and  C_10
REMARK    7  A    between atoms: C_8  and  N_16
REMARK    8  A    between atoms: N_16  and  C_17
REMARK    9  A    between atoms: C_24  and  C_26
REMARK   10  A    between atoms: C_28  and  N_35
REMARK   11  A    between atoms: C_30  and  N_32
REMARK                            x       y       z     vdW  Elec       q    Type
REMARK                         _______ _______ _______ _____ _____    ______ ____
ROOT
ATOM      1  N   UNL     1       4.137  -0.333  -2.520  0.00  0.00    -0.254 N 
ATOM      2  C   UNL     1       5.074  -1.228  -2.892  0.00  0.00    +0.252 C 
ATOM      3  O   UNL     1       4.787  -2.406  -2.978  0.00  0.00    -0.270 OA
ENDROOT
BRANCH   1   4
ATOM      4  C   UNL     1       4.444   1.032  -2.500  0.00  0.00    +0.056 A 
ATOM      5  C   UNL     1       3.894   1.883  -3.450  0.00  0.00    +0.025 A 
ATOM      6  C   UNL     1       4.199   3.230  -3.428  0.00  0.00    +0.002 A 
ATOM      7  C   UNL     1       5.050   3.732  -2.461  0.00  0.00    +0.002 A 
ATOM      8  C   UNL     1       5.599   2.889  -1.513  0.00  0.00    +0.022 A 
ATOM      9  C   UNL     1       5.294   1.541  -1.526  0.00  0.00    +0.062 A 
ATOM     10 CL   UNL     1       5.978   0.484  -0.331  0.00  0.00    -0.082 Cl
ENDBRANCH   1   4
BRANCH   2  11
ATOM     11  C   UNL     1       6.448  -0.777  -3.197  0.00  0.00    +0.042 A 
ATOM     12  C   UNL     1       7.536  -1.605  -2.915  0.00  0.00    +0.046 A 
ATOM     13  C   UNL     1       8.816  -1.178  -3.201  0.00  0.00    +0.129 A 
ATOM     14  C   UNL     1       9.023   0.067  -3.768  0.00  0.00    +0.065 A 
ATOM     15  C   UNL     1       7.949   0.893  -4.049  0.00  0.00    +0.129 A 
ATOM     16  C   UNL     1       6.663   0.476  -3.773  0.00  0.00    +0.046 A 
BRANCH  15  17
ATOM     17  N   UNL     1       8.179   2.224  -4.654  0.00  0.00    +0.057 N 
ATOM     18  O   UNL     1       9.305   2.589  -4.902  0.00  0.00    -0.126 OA
ATOM     19  O   UNL     1       7.242   2.946  -4.901  0.00  0.00    -0.126 OA
ENDBRANCH  15  17
BRANCH  13  20
ATOM     20  N   UNL     1       9.971  -2.054  -2.903  0.00  0.00    +0.057 N 
ATOM     21  O   UNL     1       9.792  -3.143  -2.408  0.00  0.00    -0.126 OA
ATOM     22  O   UNL     1      11.093  -1.682  -3.154  0.00  0.00    -0.126 OA
ENDBRANCH  13  20
ENDBRANCH   2  11
BRANCH   1  23
ATOM     23  C   UNL     1       2.799  -0.789  -2.136  0.00  0.00    +0.170 C 
BRANCH  23  24
ATOM     24  C   UNL     1       1.767  -0.221  -3.112  0.00  0.00    +0.019 C 
ATOM     25  C   UNL     1       2.036  -0.769  -4.515  0.00  0.00    +0.006 C 
ATOM     26  C   UNL     1       1.004  -0.201  -5.491  0.00  0.00    +0.000 C 
ATOM     27  C   UNL     1      -0.401  -0.610  -5.043  0.00  0.00    +0.000 C 
ATOM     28  C   UNL     1      -0.670  -0.062  -3.640  0.00  0.00    +0.000 C 
ATOM     29  C   UNL     1       0.362  -0.630  -2.664  0.00  0.00    +0.006 C 
ENDBRANCH  23  24
BRANCH  23  31
ATOM     30  N   UNL     1       1.543  -0.937  -0.011  0.00  0.00    -0.309 N 
ATOM     31  C   UNL     1       2.487  -0.312  -0.741  0.00  0.00    +0.235 C 
ATOM     32  O   UNL     1       3.086   0.634  -0.275  0.00  0.00    -0.274 OA
ATOM     33  H   UNL     1       1.019  -1.652  -0.405  0.00  0.00    +0.149 HD
BRANCH  30  35
ATOM     34  C   UNL     1       0.893   0.936   1.422  0.00  0.00    +0.031 C 
ATOM     35  C   UNL     1       1.307  -0.537   1.379  0.00  0.00    +0.026 C 
ATOM     36  C   UNL     1       2.589  -0.730   2.190  0.00  0.00    +0.031 C 
ATOM     37  C   UNL     1       0.191  -1.398   1.975  0.00  0.00    +0.031 C 
ENDBRANCH  30  35
ENDBRANCH  23  31
ENDBRANCH   1  23
TORSDOF 8
