REMARK  Name = ZINC62977245
REMARK  9 active torsions:
REMARK  status: ('A' for Active; 'I' for Inactive)
REMARK    1  A    between atoms: C_1  and  C_2
REMARK    2  A    between atoms: C_2  and  N_3
REMARK    3  A    between atoms: N_3  and  C_4
REMARK    4  A    between atoms: N_3  and  C_6
REMARK    5  A    between atoms: C_4  and  C_5
REMARK    6  A    between atoms: C_9  and  C_12
REMARK    7  A    between atoms: C_20  and  C_23
REMARK    8  A    between atoms: N_26  and  C_28
REMARK    9  A    between atoms: C_28  and  C_29
REMARK                            x       y       z     vdW  Elec       q    Type
REMARK                         _______ _______ _______ _____ _____    ______ ____
ROOT
ATOM      1  C   UNL     1      -0.259  -6.338   0.833  0.00  0.00    +0.058 C 
ATOM      2  C   UNL     1      -0.928  -6.918   1.859  0.00  0.00    +0.176 C 
ATOM      3  C   UNL     1      -0.805  -8.318   2.297  0.00  0.00    +0.231 C 
ATOM      4  O   UNL     1      -0.094  -9.188   1.824  0.00  0.00    -0.283 OA
ATOM      5  C   UNL     1      -1.735  -8.432   3.435  0.00  0.00    +0.068 A 
ATOM      6  C   UNL     1      -2.084  -9.484   4.281  0.00  0.00    +0.024 A 
ATOM      7  C   UNL     1      -3.000  -9.287   5.278  0.00  0.00    +0.010 A 
ATOM      8  C   UNL     1      -3.586  -8.037   5.450  0.00  0.00    +0.133 A 
ATOM      9  C   UNL     1      -3.248  -6.983   4.613  0.00  0.00    +0.034 A 
ATOM     10  C   UNL     1      -2.320  -7.166   3.597  0.00  0.00    +0.146 A 
ATOM     11  O   UNL     1      -1.827  -6.314   2.671  0.00  0.00    -0.451 OA
ATOM     12  C   UNL     1      -3.892  -5.634   4.807  0.00  0.00    +0.051 C 
ATOM     13  O   UNL     1      -4.492  -7.827   6.441  0.00  0.00    -0.476 OA
ATOM     14  C   UNL     1      -5.083  -8.982   7.040  0.00  0.00    +0.319 C 
ATOM     15  N   UNL     1      -4.012  -9.928   7.395  0.00  0.00    -0.262 NA
ATOM     16  C   UNL     1      -3.365 -10.440   6.179  0.00  0.00    +0.126 C 
ENDROOT
BRANCH   1  20
ATOM     17  C   UNL     1      -0.650  -2.174   0.133  0.00  0.00    +0.013 A 
ATOM     18  C   UNL     1      -1.430  -2.785   1.099  0.00  0.00    +0.022 A 
ATOM     19  C   UNL     1      -1.309  -4.139   1.333  0.00  0.00    +0.010 A 
ATOM     20  C   UNL     1      -0.394  -4.894   0.590  0.00  0.00    -0.021 A 
ATOM     21  C   UNL     1       0.391  -4.268  -0.385  0.00  0.00    +0.010 A 
ATOM     22  C   UNL     1       0.253  -2.915  -0.610  0.00  0.00    +0.022 A 
BRANCH  17  23
ATOM     23  N   UNL     1      -0.778  -0.801  -0.098  0.00  0.00    -0.394 NA
ATOM     24  H   UNL     1      -0.144  -0.522  -0.832  0.00  0.00    +0.126 HD
BRANCH  23  26
ATOM     25  C   UNL     1      -2.269   0.980  -0.875  0.00  0.00    +0.022 C 
ATOM     26  C   UNL     1      -2.158  -0.500  -0.502  0.00  0.00    +0.081 C 
ENDBRANCH  23  26
BRANCH  23  27
ATOM     27  C   UNL     1      -0.457  -0.065   1.132  0.00  0.00    +0.081 C 
ATOM     28  C   UNL     1       1.016  -0.280   1.485  0.00  0.00    +0.022 C 
ENDBRANCH  23  27
ENDBRANCH  17  23
ENDBRANCH   1  20
BRANCH  15  29
ATOM     29  C   UNL     1      -4.533 -11.028   8.217  0.00  0.00    +0.124 C 
BRANCH  29  30
ATOM     30  C   UNL     1      -4.767 -10.537   9.623  0.00  0.00    -0.015 A 
ATOM     31  C   UNL     1      -6.049 -10.240  10.047  0.00  0.00    +0.008 A 
ATOM     32  C   UNL     1      -6.264  -9.790  11.336  0.00  0.00    +0.020 A 
ATOM     33  C   UNL     1      -5.197  -9.637  12.203  0.00  0.00    +0.042 A 
ATOM     34  C   UNL     1      -3.914  -9.935  11.780  0.00  0.00    +0.040 A 
ATOM     35  C   UNL     1      -3.700 -10.390  10.491  0.00  0.00    +0.047 A 
ATOM     36 CL   UNL     1      -2.091 -10.770   9.960  0.00  0.00    -0.083 Cl
ATOM     37 CL   UNL     1      -5.467  -9.071  13.822  0.00  0.00    -0.083 Cl
ENDBRANCH  29  30
ENDBRANCH  15  29
TORSDOF 6
