REMARK  Name = ZINC17099206
REMARK  3 active torsions:
REMARK  status: ('A' for Active; 'I' for Inactive)
REMARK    1  A    between atoms: C_3  and  C_8
REMARK    2  A    between atoms: C_13  and  C_18
REMARK    3  A    between atoms: C_27  and  C_29
REMARK                            x       y       z     vdW  Elec       q    Type
REMARK                         _______ _______ _______ _____ _____    ______ ____
ROOT
ATOM      1  C   UNL     1      -2.497   1.027   0.069  0.00  0.00    +0.175 C 
ATOM      2  C   UNL     1      -1.251   1.883   0.018  0.00  0.00    +0.041 C 
ATOM      3  C   UNL     1      -1.306   3.231   0.004  0.00  0.00    +0.020 C 
ATOM      4  C   UNL     1      -0.044   4.060  -0.035  0.00  0.00    +0.063 C 
ATOM      5  C   UNL     1       1.082   3.318   0.689  0.00  0.00    +0.068 C 
ATOM      6  C   UNL     1       1.287   1.964   0.000  0.00  0.00    +0.091 C 
ATOM      7  C   UNL     1      -0.014   1.211   0.009  0.00  0.00    +0.164 C 
ATOM      8  O   UNL     1       0.002  -0.004   0.002  0.00  0.00    -0.292 OA
ATOM      9  N   UNL     1      -2.503   3.907   0.011  0.00  0.00    -0.287 N 
ATOM     10  C   UNL     1      -3.657   3.191  -0.263  0.00  0.00    +0.219 A 
ATOM     11  N   UNL     1      -3.669   1.835  -0.245  0.00  0.00    -0.220 N 
ATOM     12  N   UNL     1      -4.968   1.446  -0.568  0.00  0.00    -0.143 NA
ATOM     13  C   UNL     1      -5.656   2.545  -0.754  0.00  0.00    +0.256 A 
ATOM     14  N   UNL     1      -4.857   3.600  -0.566  0.00  0.00    -0.189 NA
ATOM     15  H   UNL     1      -2.539   4.857   0.203  0.00  0.00    +0.155 HD
ENDROOT
BRANCH   1  18
ATOM     16  C   UNL     1      -2.794  -1.475   2.881  0.00  0.00    +0.002 A 
ATOM     17  C   UNL     1      -2.654  -0.934   1.616  0.00  0.00    +0.006 A 
ATOM     18  C   UNL     1      -2.650   0.438   1.447  0.00  0.00    -0.017 A 
ATOM     19  C   UNL     1      -2.781   1.270   2.543  0.00  0.00    +0.026 A 
ATOM     20  C   UNL     1      -2.926   0.729   3.808  0.00  0.00    +0.041 A 
ATOM     21  C   UNL     1      -2.930  -0.645   3.977  0.00  0.00    +0.020 A 
ATOM     22 CL   UNL     1      -3.096   1.773   5.185  0.00  0.00    -0.084 Cl
ENDBRANCH   1  18
BRANCH   5  23
ATOM     23  C   UNL     1       2.353   4.124   0.613  0.00  0.00    +0.109 A 
ATOM     24  C   UNL     1       3.060   4.579   1.663  0.00  0.00    +0.045 A 
ATOM     25  C   UNL     1       4.170   5.279   1.137  0.00  0.00    +0.041 A 
ATOM     26  C   UNL     1       4.074   5.211  -0.203  0.00  0.00    +0.195 A 
ATOM     27  O   UNL     1       2.975   4.505  -0.514  0.00  0.00    -0.468 OA
ENDBRANCH   5  23
BRANCH  13  28
ATOM     28  C   UNL     1      -7.116   2.609  -1.121  0.00  0.00    +0.454 C 
ATOM     29  F   UNL     1      -7.863   2.985   0.001  0.00  0.00    -0.163 F 
ATOM     30  F   UNL     1      -7.300   3.550  -2.140  0.00  0.00    -0.163 F 
ATOM     31  F   UNL     1      -7.541   1.352  -1.565  0.00  0.00    -0.163 F 
ENDBRANCH  13  28
TORSDOF 3
