REMARK  Name = ZINC39686042
REMARK  8 active torsions:
REMARK  status: ('A' for Active; 'I' for Inactive)
REMARK    1  A    between atoms: C_1  and  C_2
REMARK    2  A    between atoms: C_2  and  C_3
REMARK    3  A    between atoms: C_2  and  C_4
REMARK    4  A    between atoms: C_9  and  N_12
REMARK    5  A    between atoms: C_13  and  C_15
REMARK    6  A    between atoms: C_26  and  C_28
REMARK    7  A    between atoms: C_28  and  O_29
REMARK    8  A    between atoms: O_29  and  C_30
REMARK                            x       y       z     vdW  Elec       q    Type
REMARK                         _______ _______ _______ _____ _____    ______ ____
ROOT
ATOM      1  C   UNL     1       6.133   3.379  -4.652  0.00  0.00    +0.100 C 
ATOM      2  C   UNL     1       5.157   3.918  -5.721  0.00  0.00    +0.121 C 
ATOM      3  N   UNL     1       6.014   4.221  -6.892  0.00  0.00    -0.297 N 
ATOM      4  C   UNL     1       6.995   3.110  -6.928  0.00  0.00    +0.115 C 
ATOM      5  C   UNL     1       7.338   2.849  -5.448  0.00  0.00    -0.004 C 
ATOM      6  C   UNL     1       7.516   1.353  -5.204  0.00  0.00    -0.010 C 
ATOM      7  C   UNL     1       8.753   0.861  -5.959  0.00  0.00    -0.082 C 
ATOM      8  N   UNL     1       9.936   1.597  -5.496  0.00  0.00    +0.379 N 
ATOM      9  C   UNL     1       9.797   3.022  -5.819  0.00  0.00    -0.082 C 
ATOM     10  C   UNL     1       8.604   3.606  -5.058  0.00  0.00    -0.010 C 
ATOM     11  C   UNL     1       5.922   5.270  -7.733  0.00  0.00    +0.253 C 
ATOM     12  O   UNL     1       6.705   5.379  -8.653  0.00  0.00    -0.272 OA
ATOM     13  H   UNL     1      10.029   1.487  -4.498  0.00  0.00    -0.086 HD
ATOM     14  H   UNL     1      10.758   1.229  -5.951  0.00  0.00    -0.086 HD
ENDROOT
BRANCH   1  16
ATOM     15  N   UNL     1       5.860   2.036  -2.593  0.00  0.00    -0.312 N 
ATOM     16  C   UNL     1       5.490   2.264  -3.869  0.00  0.00    +0.218 C 
ATOM     17  O   UNL     1       4.640   1.571  -4.386  0.00  0.00    -0.275 OA
ATOM     18  H   UNL     1       6.541   2.590  -2.179  0.00  0.00    +0.149 HD
BRANCH  15  24
ATOM     19  C   UNL     1       3.895  -0.341   1.830  0.00  0.00    +0.218 C 
ATOM     20  O   UNL     1       2.770  -0.076   2.197  0.00  0.00    -0.275 OA
ATOM     21  N   UNL     1       4.221  -0.236   0.527  0.00  0.00    -0.301 N 
ATOM     22  C   UNL     1       5.543  -0.663   0.049  0.00  0.00    +0.109 C 
ATOM     23  C   UNL     1       6.186   0.493  -0.723  0.00  0.00    +0.041 C 
ATOM     24  C   UNL     1       5.235   0.952  -1.831  0.00  0.00    +0.076 C 
ATOM     25  C   UNL     1       3.929   1.452  -1.210  0.00  0.00    +0.041 C 
ATOM     26  C   UNL     1       3.259   0.302  -0.444  0.00  0.00    +0.109 C 
BRANCH  19  28
ATOM     27  C   UNL     1       5.783   0.410   3.252  0.00  0.00    +0.017 C 
ATOM     28  C   UNL     1       4.929  -0.788   2.832  0.00  0.00    +0.069 C 
ATOM     29  C   UNL     1       4.229  -1.372   4.061  0.00  0.00    +0.017 C 
ENDBRANCH  19  28
ENDBRANCH  15  24
ENDBRANCH   1  16
BRANCH  11  30
ATOM     30  C   UNL     1       4.848   6.307  -7.530  0.00  0.00    +0.324 C 
BRANCH  30  31
ATOM     31  O   UNL     1       4.957   7.310  -8.542  0.00  0.00    -0.483 OA
BRANCH  31  32
ATOM     32  C   UNL     1       4.056   8.326  -8.503  0.00  0.00    +0.123 A 
ATOM     33  C   UNL     1       3.090   8.360  -7.508  0.00  0.00    +0.046 A 
ATOM     34  C   UNL     1       2.175   9.395  -7.469  0.00  0.00    +0.005 A 
ATOM     35  C   UNL     1       2.220  10.396  -8.422  0.00  0.00    +0.020 A 
ATOM     36  C   UNL     1       3.182  10.365  -9.416  0.00  0.00    +0.044 A 
ATOM     37  C   UNL     1       4.104   9.334  -9.454  0.00  0.00    +0.065 A 
ATOM     38 CL   UNL     1       3.237  11.623 -10.610  0.00  0.00    -0.083 Cl
ENDBRANCH  31  32
ENDBRANCH  30  31
ENDBRANCH  11  30
TORSDOF 6
