REMARK  Name = ZINC17249904
REMARK  9 active torsions:
REMARK  status: ('A' for Active; 'I' for Inactive)
REMARK    1  A    between atoms: C_1  and  C_2
REMARK    2  A    between atoms: N_4  and  C_11
REMARK    3  A    between atoms: C_14  and  O_21
REMARK    4  A    between atoms: C_16  and  C_19
REMARK    5  A    between atoms: C_19  and  O_20
REMARK    6  A    between atoms: O_21  and  C_22
REMARK    7  A    between atoms: C_22  and  C_23
REMARK    8  A    between atoms: C_22  and  C_29
REMARK    9  A    between atoms: C_22  and  C_35
REMARK                            x       y       z     vdW  Elec       q    Type
REMARK                         _______ _______ _______ _____ _____    ______ ____
ROOT
ATOM      1  O   UNL     1       1.069   5.771  -0.658  0.00  0.00    -0.354 OA
ENDROOT
BRANCH   1   4
ATOM      2  C   UNL     1       1.478   6.942  -3.865  0.00  0.00    +0.226 C 
ATOM      3  C   UNL     1       0.374   6.452  -2.901  0.00  0.00    +0.089 C 
ATOM      4  C   UNL     1       1.080   5.385  -2.034  0.00  0.00    +0.156 C 
ATOM      5  C   UNL     1       2.526   5.354  -2.575  0.00  0.00    +0.175 C 
ATOM      6  O   UNL     1       2.422   5.851  -3.929  0.00  0.00    -0.348 OA
BRANCH   2  10
ATOM      7  C   UNL     1       0.376  10.132  -7.459  0.00  0.00    +0.051 C 
ATOM      8  C   UNL     1       0.391   8.731  -6.903  0.00  0.00    +0.030 A 
ATOM      9  C   UNL     1       0.904   8.487  -5.678  0.00  0.00    +0.101 A 
ATOM     10  N   UNL     1       0.915   7.208  -5.191  0.00  0.00    -0.274 N 
ATOM     11  C   UNL     1       0.409   6.194  -5.916  0.00  0.00    +0.331 A 
ATOM     12  O   UNL     1       0.423   5.066  -5.461  0.00  0.00    -0.246 OA
ATOM     13  N   UNL     1      -0.114   6.410  -7.137  0.00  0.00    -0.275 N 
ATOM     14  H   UNL     1      -0.486   5.645  -7.662  0.00  0.00    +0.173 HD
ATOM     15  C   UNL     1      -0.139   7.655  -7.655  0.00  0.00    +0.257 A 
ATOM     16  O   UNL     1      -0.612   7.852  -8.760  0.00  0.00    -0.267 OA
ENDBRANCH   2  10
BRANCH   5  17
ATOM     17  C   UNL     1       3.066   3.922  -2.570  0.00  0.00    +0.190 C 
BRANCH  17  18
ATOM     18  O   UNL     1       4.440   3.929  -2.963  0.00  0.00    -0.392 OA
ATOM     19  H   UNL     1       4.848   3.053  -2.982  0.00  0.00    +0.210 HD
ENDBRANCH  17  18
ENDBRANCH   5  17
ENDBRANCH   1   4
BRANCH   1  20
ATOM     20  C   UNL     1      -0.086   5.332   0.060  0.00  0.00    +0.145 C 
BRANCH  20  21
ATOM     21  C   UNL     1      -0.086   3.827   0.138  0.00  0.00    -0.007 A 
ATOM     22  C   UNL     1       1.098   3.128   0.001  0.00  0.00    +0.007 A 
ATOM     23  C   UNL     1       1.098   1.747   0.072  0.00  0.00    +0.000 A 
ATOM     24  C   UNL     1      -0.086   1.066   0.282  0.00  0.00    +0.000 A 
ATOM     25  C   UNL     1      -1.272   1.765   0.414  0.00  0.00    +0.000 A 
ATOM     26  C   UNL     1      -1.271   3.146   0.347  0.00  0.00    +0.007 A 
ENDBRANCH  20  21
BRANCH  20  27
ATOM     27  C   UNL     1      -1.329   5.798  -0.655  0.00  0.00    -0.007 A 
ATOM     28  C   UNL     1      -1.916   4.995  -1.615  0.00  0.00    +0.007 A 
ATOM     29  C   UNL     1      -3.058   5.420  -2.268  0.00  0.00    +0.000 A 
ATOM     30  C   UNL     1      -3.608   6.652  -1.966  0.00  0.00    +0.000 A 
ATOM     31  C   UNL     1      -3.018   7.457  -1.009  0.00  0.00    +0.000 A 
ATOM     32  C   UNL     1      -1.879   7.030  -0.353  0.00  0.00    +0.007 A 
ENDBRANCH  20  27
BRANCH  20  33
ATOM     33  C   UNL     1      -0.062   5.907   1.452  0.00  0.00    -0.007 A 
ATOM     34  C   UNL     1      -0.648   5.217   2.496  0.00  0.00    +0.007 A 
ATOM     35  C   UNL     1      -0.622   5.743   3.774  0.00  0.00    +0.000 A 
ATOM     36  C   UNL     1      -0.018   6.964   4.007  0.00  0.00    +0.000 A 
ATOM     37  C   UNL     1       0.564   7.657   2.962  0.00  0.00    +0.000 A 
ATOM     38  C   UNL     1       0.542   7.129   1.685  0.00  0.00    +0.007 A 
ENDBRANCH  20  33
ENDBRANCH   1  20
TORSDOF 8
