REMARK  Name = ZINC10336795
REMARK  4 active torsions:
REMARK  status: ('A' for Active; 'I' for Inactive)
REMARK    1  A    between atoms: C_1  and  O_2
REMARK    2  A    between atoms: O_2  and  C_3
REMARK    3  A    between atoms: C_8  and  C_9
REMARK    4  A    between atoms: C_20  and  C_22
REMARK                            x       y       z     vdW  Elec       q    Type
REMARK                         _______ _______ _______ _____ _____    ______ ____
ROOT
ATOM      1  C   UNL     1       0.018  -2.829  -0.013  0.00  0.00    +0.164 C 
ATOM      2  C   UNL     1       0.512  -2.904  -1.441  0.00  0.00    +0.028 C 
ATOM      3  C   UNL     1       0.667  -4.123  -1.996  0.00  0.00    +0.083 C 
ATOM      4  C   UNL     1       1.143  -4.180  -3.402  0.00  0.00    +0.042 A 
ATOM      5  C   UNL     1       1.635  -5.356  -3.954  0.00  0.00    +0.013 A 
ATOM      6  C   UNL     1       2.070  -5.364  -5.265  0.00  0.00    +0.001 A 
ATOM      7  C   UNL     1       2.017  -4.207  -6.024  0.00  0.00    +0.004 A 
ATOM      8  C   UNL     1       1.528  -3.033  -5.482  0.00  0.00    +0.046 A 
ATOM      9  C   UNL     1       1.087  -3.010  -4.170  0.00  0.00    +0.131 A 
ATOM     10  O   UNL     1       0.596  -1.874  -3.615  0.00  0.00    -0.479 OA
ATOM     11  C   UNL     1       0.832  -1.662  -2.221  0.00  0.00    +0.241 C 
ATOM     12  N   UNL     1       0.400  -5.258  -1.303  0.00  0.00    -0.213 NA
ATOM     13  C   UNL     1      -0.029  -5.281  -0.069  0.00  0.00    +0.232 C 
ATOM     14  N   UNL     1      -0.246  -4.116   0.638  0.00  0.00    -0.193 N 
ATOM     15  N   UNL     1      -0.697  -4.515   1.896  0.00  0.00    -0.165 N 
ATOM     16  N   UNL     1      -0.733  -5.804   1.904  0.00  0.00    -0.086 NA
ATOM     17  N   UNL     1      -0.351  -6.289   0.787  0.00  0.00    -0.231 N 
ATOM     18  H   UNL     1      -0.939  -3.930   2.631  0.00  0.00    +0.195 HD
ATOM     19  H   UNL     1      -0.302  -7.235   0.578  0.00  0.00    +0.193 HD
ENDROOT
BRANCH   1  25
ATOM     20  C   UNL     1      -1.658  -1.384   1.167  0.00  0.00    +0.125 A 
ATOM     21  C   UNL     1      -2.828  -0.639   1.177  0.00  0.00    +0.046 A 
ATOM     22  C   UNL     1      -3.592  -0.540   0.030  0.00  0.00    +0.004 A 
ATOM     23  C   UNL     1      -3.192  -1.183  -1.127  0.00  0.00    +0.001 A 
ATOM     24  C   UNL     1      -2.026  -1.926  -1.139  0.00  0.00    +0.009 A 
ATOM     25  C   UNL     1      -1.255  -2.023   0.003  0.00  0.00    +0.021 A 
BRANCH  20  27
ATOM     26  C   UNL     1      -1.380  -0.799   3.454  0.00  0.00    +0.277 C 
ATOM     27  O   UNL     1      -0.904  -1.483   2.293  0.00  0.00    -0.495 OA
ENDBRANCH  20  27
ENDBRANCH   1  25
BRANCH  11  28
ATOM     28  C   UNL     1       2.279  -1.300  -2.010  0.00  0.00    +0.034 A 
ATOM     29  C   UNL     1       2.821  -0.438  -1.115  0.00  0.00    +0.015 A 
ATOM     30  C   UNL     1       4.192  -0.261  -1.101  0.00  0.00    +0.008 A 
ATOM     31  C   UNL     1       4.954  -0.955  -1.982  0.00  0.00    +0.045 A 
ATOM     32  S   UNL     1       3.725  -1.900  -2.868  0.00  0.00    -0.098 S 
ENDBRANCH  11  28
TORSDOF 3
