REMARK  Name = ZINC08566681
REMARK  8 active torsions:
REMARK  status: ('A' for Active; 'I' for Inactive)
REMARK    1  A    between atoms: C_1  and  O_2
REMARK    2  A    between atoms: O_2  and  C_3
REMARK    3  A    between atoms: C_6  and  C_11
REMARK    4  A    between atoms: C_7  and  O_9
REMARK    5  A    between atoms: O_9  and  C_10
REMARK    6  A    between atoms: C_15  and  C_25
REMARK    7  A    between atoms: C_20  and  N_24
REMARK    8  A    between atoms: C_21  and  C_22
REMARK                            x       y       z     vdW  Elec       q    Type
REMARK                         _______ _______ _______ _____ _____    ______ ____
ROOT
ATOM      1  C   UNL     1       2.507  -2.495  -4.390  0.00  0.00    +0.086 C 
ATOM      2  C   UNL     1       1.803  -2.075  -5.686  0.00  0.00    +0.141 C 
ATOM      3  C   UNL     1       0.325  -1.863  -5.450  0.00  0.00    +0.090 C 
ATOM      4  N   UNL     1       0.100  -0.594  -5.682  0.00  0.00    -0.149 NA
ATOM      5  N   UNL     1       1.266   0.096  -6.015  0.00  0.00    -0.115 NA
ATOM      6  C   UNL     1       2.313  -0.672  -6.002  0.00  0.00    +0.227 C 
ATOM      7  O   UNL     1       3.634  -0.420  -6.134  0.00  0.00    -0.425 OA
ATOM      8  C   UNL     1       4.423  -1.104  -5.266  0.00  0.00    +0.200 C 
ATOM      9  C   UNL     1       3.950  -2.072  -4.452  0.00  0.00    +0.095 C 
ENDROOT
BRANCH   1  13
ATOM     10  C   UNL     1       0.606  -0.607  -1.056  0.00  0.00    +0.124 A 
ATOM     11  C   UNL     1       1.173   0.162  -2.062  0.00  0.00    +0.046 A 
ATOM     12  C   UNL     1       1.787  -0.451  -3.138  0.00  0.00    +0.011 A 
ATOM     13  C   UNL     1       1.837  -1.830  -3.215  0.00  0.00    +0.004 A 
ATOM     14  C   UNL     1       1.272  -2.603  -2.211  0.00  0.00    +0.127 A 
ATOM     15  C   UNL     1       0.660  -1.990  -1.127  0.00  0.00    +0.091 A 
BRANCH  10  17
ATOM     16  C   UNL     1      -0.017   1.425   0.010  0.00  0.00    +0.277 C 
ATOM     17  O   UNL     1       0.002  -0.004   0.002  0.00  0.00    -0.495 OA
ENDBRANCH  10  17
BRANCH  14  18
ATOM     18  O   UNL     1       1.322  -3.959  -2.286  0.00  0.00    -0.495 OA
ATOM     19  C   UNL     1       0.719  -4.691  -1.217  0.00  0.00    +0.277 C 
ENDBRANCH  14  18
ENDBRANCH   1  13
BRANCH   3  20
ATOM     20  C   UNL     1      -0.654  -2.870  -5.047  0.00  0.00    +0.036 A 
ATOM     21  C   UNL     1      -2.016  -2.727  -4.824  0.00  0.00    +0.017 A 
ATOM     22  C   UNL     1      -2.735  -3.834  -4.447  0.00  0.00    +0.008 A 
ATOM     23  C   UNL     1      -2.096  -5.026  -4.304  0.00  0.00    +0.046 A 
ATOM     24  S   UNL     1      -0.411  -4.608  -4.718  0.00  0.00    -0.095 S 
ENDBRANCH   3  20
BRANCH   8  25
ATOM     25  N   UNL     1       5.761  -0.799  -5.214  0.00  0.00    -0.328 N 
ATOM     26  H   UNL     1       6.123  -0.107  -5.790  0.00  0.00    +0.145 HD
ATOM     27  H   UNL     1       6.343  -1.274  -4.602  0.00  0.00    +0.145 HD
ENDBRANCH   8  25
BRANCH   9  28
ATOM     28  C   UNL     1       4.880  -2.740  -3.593  0.00  0.00    +0.100 C 
ATOM     29  N   UNL     1       5.618  -3.270  -2.911  0.00  0.00    -0.191 NA
ENDBRANCH   9  28
TORSDOF 6
