REMARK  Name = ZINC35806805
REMARK  5 active torsions:
REMARK  status: ('A' for Active; 'I' for Inactive)
REMARK    1  A    between atoms: C_1  and  C_2
REMARK    2  A    between atoms: C_22  and  C_30
REMARK    3  A    between atoms: C_30  and  C_32
REMARK    4  A    between atoms: C_37  and  O_38
REMARK    5  A    between atoms: O_38  and  C_39
REMARK                            x       y       z     vdW  Elec       q    Type
REMARK                         _______ _______ _______ _____ _____    ______ ____
ROOT
ATOM      1  C   UNL     1       0.026   1.448  -0.044  0.00  0.00    +0.044 C 
ATOM      2  C   UNL     1       0.032  -0.059  -0.034  0.00  0.00    -0.050 A 
ATOM      3  C   UNL     1       0.030  -0.760  -1.226  0.00  0.00    +0.005 A 
ATOM      4  C   UNL     1       0.035  -2.139  -1.223  0.00  0.00    +0.024 A 
ATOM      5  C   UNL     1       0.042  -2.838  -0.017  0.00  0.00    +0.036 A 
ATOM      6  C   UNL     1       0.045  -2.121   1.174  0.00  0.00    -0.026 A 
ATOM      7  C   UNL     1       0.046  -0.745   1.168  0.00  0.00    +0.008 A 
ATOM      8  C   UNL     1       0.053  -3.147   2.278  0.00  0.00    +0.060 C 
ATOM      9  C   UNL     1       0.054  -4.475   1.562  0.00  0.00    +0.212 C 
ATOM     10  O   UNL     1       0.059  -5.573   2.078  0.00  0.00    -0.277 OA
ATOM     11  N   UNL     1       0.048  -4.209   0.244  0.00  0.00    -0.286 N 
ATOM     12  C   UNL     1       1.281  -2.997   3.166  0.00  0.00    +0.085 C 
ATOM     13  C   UNL     1       1.951  -4.316   3.430  0.00  0.00    -0.011 A 
ATOM     14  C   UNL     1       1.526  -5.501   3.989  0.00  0.00    +0.006 A 
ATOM     15  C   UNL     1       2.400  -6.567   4.100  0.00  0.00    +0.000 A 
ATOM     16  C   UNL     1       3.701  -6.441   3.650  0.00  0.00    +0.002 A 
ATOM     17  C   UNL     1       4.132  -5.256   3.089  0.00  0.00    +0.023 A 
ATOM     18  C   UNL     1       3.258  -4.178   2.972  0.00  0.00    +0.038 A 
ATOM     19  N   UNL     1       3.453  -2.898   2.448  0.00  0.00    -0.285 N 
ATOM     20  C   UNL     1       2.340  -2.143   2.524  0.00  0.00    +0.228 C 
ATOM     21  O   UNL     1       2.216  -0.997   2.148  0.00  0.00    -0.275 OA
ATOM     22  C   UNL     1       0.767  -2.362   4.467  0.00  0.00    +0.066 C 
ATOM     23  C   UNL     1      -0.708  -2.798   4.521  0.00  0.00    -0.055 C 
ATOM     24  N   UNL     1      -1.145  -3.011   3.122  0.00  0.00    +0.395 N 
ATOM     25  C   UNL     1      -1.858  -1.770   2.718  0.00  0.00    -0.076 C 
ATOM     26  C   UNL     1      -2.586  -1.320   4.007  0.00  0.00    -0.020 C 
ATOM     27  C   UNL     1      -1.570  -1.688   5.136  0.00  0.00    -0.016 C 
ATOM     28  H   UNL     1       0.047  -4.891  -0.446  0.00  0.00    +0.155 HD
ATOM     29  H   UNL     1       4.292  -2.589   2.073  0.00  0.00    +0.155 HD
ATOM     30  H   UNL     1      -1.735  -3.825   3.047  0.00  0.00    -0.079 HD
ENDROOT
BRANCH  22  31
ATOM     31  C   UNL     1       1.525  -2.897   5.654  0.00  0.00    +0.169 C 
ATOM     32  O   UNL     1       1.085  -3.837   6.282  0.00  0.00    -0.292 OA
BRANCH  31  33
ATOM     33  C   UNL     1       2.797  -2.280   6.051  0.00  0.00    +0.059 A 
ATOM     34  C   UNL     1       3.249  -1.122   5.407  0.00  0.00    +0.015 A 
ATOM     35  C   UNL     1       4.443  -0.550   5.785  0.00  0.00    +0.001 A 
ATOM     36  C   UNL     1       5.200  -1.114   6.800  0.00  0.00    +0.004 A 
ATOM     37  C   UNL     1       4.767  -2.256   7.444  0.00  0.00    +0.046 A 
ATOM     38  C   UNL     1       3.565  -2.845   7.082  0.00  0.00    +0.131 A 
BRANCH  38  39
ATOM     39  O   UNL     1       3.135  -3.963   7.718  0.00  0.00    -0.494 OA
ATOM     40  C   UNL     1       3.969  -4.479   8.757  0.00  0.00    +0.277 C 
ENDBRANCH  38  39
ENDBRANCH  31  33
ENDBRANCH  22  31
TORSDOF 3
