REMARK  Name = ZINC06530716
REMARK  8 active torsions:
REMARK  status: ('A' for Active; 'I' for Inactive)
REMARK    1  A    between atoms: C_1  and  C_2
REMARK    2  A    between atoms: C_2  and  C_3
REMARK    3  A    between atoms: N_9  and  C_10
REMARK    4  A    between atoms: C_10  and  C_11
REMARK    5  A    between atoms: N_15  and  C_16
REMARK    6  A    between atoms: C_16  and  C_17
REMARK    7  A    between atoms: N_29  and  C_34
REMARK    8  A    between atoms: N_32  and  C_33
REMARK                            x       y       z     vdW  Elec       q    Type
REMARK                         _______ _______ _______ _____ _____    ______ ____
ROOT
ATOM      1  C   UNL     1      -2.697   0.768  -2.057  0.00  0.00    +0.096 A 
ATOM      2  N   UNL     1      -1.675   0.822  -2.872  0.00  0.00    -0.216 NA
ATOM      3  C   UNL     1      -2.019   1.472  -3.987  0.00  0.00    +0.168 A 
ATOM      4  C   UNL     1      -3.349   1.847  -3.851  0.00  0.00    +0.152 A 
ATOM      5  N   UNL     1      -3.758   1.383  -2.617  0.00  0.00    -0.319 N 
ATOM      6  C   UNL     1      -3.974   2.557  -4.899  0.00  0.00    +0.282 A 
ATOM      7  O   UNL     1      -5.140   2.898  -4.803  0.00  0.00    -0.265 OA
ATOM      8  N   UNL     1      -3.265   2.855  -6.008  0.00  0.00    -0.262 N 
ATOM      9  C   UNL     1      -1.978   2.485  -6.126  0.00  0.00    +0.333 A 
ATOM     10  O   UNL     1      -1.370   2.771  -7.140  0.00  0.00    -0.246 OA
ATOM     11  N   UNL     1      -1.345   1.807  -5.150  0.00  0.00    -0.280 N 
ATOM     12  C   UNL     1       0.059   1.423  -5.319  0.00  0.00    +0.155 C 
ATOM     13  C   UNL     1      -3.907   3.592  -7.099  0.00  0.00    +0.157 C 
ENDROOT
BRANCH   1  14
ATOM     14  C   UNL     1      -2.691   0.114  -0.700  0.00  0.00    -0.003 C 
BRANCH  14  20
ATOM     15  C   UNL     1      -2.939  -1.968   0.463  0.00  0.00    -0.068 C 
ATOM     16  C   UNL     1      -3.263  -3.455   0.310  0.00  0.00    -0.015 C 
ATOM     17  C   UNL     1      -4.701  -3.610  -0.194  0.00  0.00    -0.003 C 
ATOM     18  C   UNL     1      -4.855  -2.843  -1.511  0.00  0.00    -0.019 C 
ATOM     19  C   UNL     1      -4.471  -1.378  -1.290  0.00  0.00    -0.078 C 
ATOM     20  N   UNL     1      -3.078  -1.297  -0.835  0.00  0.00    +0.386 N 
ATOM     21  H   UNL     1      -2.478  -1.745  -1.510  0.00  0.00    -0.081 HD
BRANCH  15  23
ATOM     22  C   UNL     1      -1.391  -2.386   2.379  0.00  0.00    +0.002 C 
ATOM     23  C   UNL     1      -1.503  -1.809   0.967  0.00  0.00    -0.019 C 
ENDBRANCH  15  23
ENDBRANCH  14  20
ENDBRANCH   1  14
BRANCH   5  24
ATOM     24  C   UNL     1      -5.090   1.532  -2.027  0.00  0.00    +0.159 C 
BRANCH  24  25
ATOM     25  C   UNL     1      -5.198   2.881  -1.364  0.00  0.00    -0.020 A 
ATOM     26  C   UNL     1      -4.443   3.166  -0.267  0.00  0.00    +0.006 A 
ATOM     27  C   UNL     1      -4.529   4.408   0.359  0.00  0.00    +0.001 A 
ATOM     28  C   UNL     1      -5.370   5.371  -0.106  0.00  0.00    +0.008 A 
ATOM     29  C   UNL     1      -6.165   5.113  -1.236  0.00  0.00    -0.018 A 
ATOM     30  C   UNL     1      -6.073   3.852  -1.877  0.00  0.00    -0.013 A 
ATOM     31  C   UNL     1      -6.864   3.596  -3.010  0.00  0.00    +0.009 A 
ATOM     32  C   UNL     1      -7.701   4.562  -3.479  0.00  0.00    +0.001 A 
ATOM     33  C   UNL     1      -7.786   5.804  -2.853  0.00  0.00    +0.001 A 
ATOM     34  C   UNL     1      -7.046   6.083  -1.745  0.00  0.00    +0.008 A 
ENDBRANCH  24  25
ENDBRANCH   5  24
TORSDOF 5
