REMARK  Name = ZINC15840385
REMARK  5 active torsions:
REMARK  status: ('A' for Active; 'I' for Inactive)
REMARK    1  A    between atoms: C_10  and  C_11
REMARK    2  A    between atoms: C_11  and  N_13
REMARK    3  A    between atoms: C_11  and  S_14
REMARK    4  A    between atoms: S_14  and  C_15
REMARK    5  A    between atoms: N_18  and  C_22
REMARK                            x       y       z     vdW  Elec       q    Type
REMARK                         _______ _______ _______ _____ _____    ______ ____
ROOT
ATOM      1  S   UNL     1      -4.525   3.035  -1.315  0.00  0.00    -0.082 S 
ENDROOT
BRANCH   1   2
ATOM      2  C   UNL     1      -2.935   3.788  -1.210  0.00  0.00    +0.109 A 
ATOM      3  C   UNL     1      -2.098   3.526  -0.103  0.00  0.00    +0.004 A 
ATOM      4  C   UNL     1      -0.883   4.116  -0.048  0.00  0.00    +0.029 A 
ATOM      5  N   UNL     1      -0.499   4.946  -1.062  0.00  0.00    -0.293 N 
ATOM      6  C   UNL     1      -1.319   5.175  -2.103  0.00  0.00    +0.350 A 
ATOM      7  O   UNL     1      -0.957   5.920  -2.999  0.00  0.00    -0.244 OA
ATOM      8  N   UNL     1      -2.518   4.601  -2.172  0.00  0.00    -0.186 NA
ATOM      9  C   UNL     1      -0.157   3.701   1.213  0.00  0.00    +0.054 C 
ATOM     10  C   UNL     1      -1.252   3.122   2.136  0.00  0.00    +0.011 C 
ATOM     11  C   UNL     1      -2.315   2.655   1.113  0.00  0.00    +0.040 C 
BRANCH   5  12
ATOM     12  C   UNL     1       0.815   5.592  -1.015  0.00  0.00    +0.092 C 
ATOM     13  C   UNL     1       0.652   7.125  -1.075  0.00  0.00    +0.025 C 
ATOM     14  C   UNL     1       1.849   7.600  -1.937  0.00  0.00    +0.002 C 
ATOM     15  C   UNL     1       1.958   6.491  -3.013  0.00  0.00    +0.002 C 
ATOM     16  C   UNL     1       1.645   5.189  -2.246  0.00  0.00    +0.025 C 
ENDBRANCH   5  12
ENDBRANCH   1   2
BRANCH   1  17
ATOM     17  C   UNL     1      -5.095   3.723  -2.889  0.00  0.00    +0.147 C 
BRANCH  17  27
ATOM     18  C   UNL     1      -9.621   5.948  -2.017  0.00  0.00    +0.001 A 
ATOM     19  C   UNL     1      -8.293   6.313  -1.807  0.00  0.00    +0.001 A 
ATOM     20  C   UNL     1      -7.274   5.480  -2.155  0.00  0.00    +0.009 A 
ATOM     21  C   UNL     1      -7.563   4.231  -2.730  0.00  0.00    -0.012 A 
ATOM     22  C   UNL     1      -8.914   3.862  -2.948  0.00  0.00    -0.018 A 
ATOM     23  C   UNL     1      -9.939   4.749  -2.576  0.00  0.00    +0.008 A 
ATOM     24  C   UNL     1      -9.203   2.615  -3.528  0.00  0.00    +0.008 A 
ATOM     25  C   UNL     1      -8.184   1.783  -3.877  0.00  0.00    +0.001 A 
ATOM     26  C   UNL     1      -6.856   2.148  -3.668  0.00  0.00    +0.006 A 
ATOM     27  C   UNL     1      -6.538   3.347  -3.108  0.00  0.00    -0.013 A 
ENDBRANCH  17  27
BRANCH  17  28
ATOM     28  N   UNL     1      -4.277   3.183  -3.984  0.00  0.00    -0.315 NA
ATOM     29  H   UNL     1      -3.224   3.457  -3.824  0.00  0.00    +0.120 HD
ATOM     30  H   UNL     1      -4.372   2.087  -4.006  0.00  0.00    +0.120 HD
ENDBRANCH  17  28
ENDBRANCH   1  17
TORSDOF 5
