REMARK  Name = ZINC09086177
REMARK  10 active torsions:
REMARK  status: ('A' for Active; 'I' for Inactive)
REMARK    1  A    between atoms: C_1  and  C_2
REMARK    2  A    between atoms: C_5  and  S_8
REMARK    3  A    between atoms: S_8  and  C_9
REMARK    4  A    between atoms: C_9  and  C_10
REMARK    5  A    between atoms: C_17  and  N_33
REMARK    6  A    between atoms: C_18  and  C_31
REMARK    7  A    between atoms: C_19  and  C_21
REMARK    8  A    between atoms: C_24  and  C_27
REMARK    9  A    between atoms: C_27  and  O_29
REMARK   10  A    between atoms: O_29  and  C_30
REMARK                            x       y       z     vdW  Elec       q    Type
REMARK                         _______ _______ _______ _____ _____    ______ ____
ROOT
ATOM      1  C   UNL     1       0.097  -6.482   1.870  0.00  0.00    +0.054 A 
ATOM      2  C   UNL     1      -0.976  -7.285   1.942  0.00  0.00    +0.050 A 
ATOM      3  C   UNL     1      -0.520  -8.616   2.060  0.00  0.00    +0.245 A 
ATOM      4  N   UNL     1       0.782  -8.598   2.060  0.00  0.00    -0.135 NA
ATOM      5  N   UNL     1       1.200  -7.263   1.936  0.00  0.00    -0.277 N 
ATOM      6  H   UNL     1       2.119  -6.955   1.905  0.00  0.00    +0.189 HD
ATOM      7  O   UNL     1      -1.378  -9.667   2.150  0.00  0.00    -0.421 OA
ATOM      8  C   UNL     1      -2.673  -9.438   1.852  0.00  0.00    +0.201 C 
ATOM      9  C   UNL     1      -3.224  -8.213   1.726  0.00  0.00    +0.098 C 
ATOM     10  C   UNL     1      -2.442  -6.937   1.911  0.00  0.00    +0.101 C 
ENDROOT
BRANCH  10  11
ATOM     11  C   UNL     1      -2.837  -6.282   3.209  0.00  0.00    -0.035 A 
ATOM     12  C   UNL     1      -2.677  -6.966   4.402  0.00  0.00    +0.005 A 
ATOM     13  C   UNL     1      -3.037  -6.373   5.594  0.00  0.00    +0.015 A 
ATOM     14  C   UNL     1      -3.562  -5.079   5.596  0.00  0.00    +0.059 A 
ATOM     15  C   UNL     1      -3.720  -4.395   4.389  0.00  0.00    +0.015 A 
ATOM     16  C   UNL     1      -3.351  -4.998   3.205  0.00  0.00    +0.005 A 
BRANCH  14  17
ATOM     17  C   UNL     1      -3.949  -4.438   6.869  0.00  0.00    +0.339 C 
ATOM     18  O   UNL     1      -3.811  -5.036   7.917  0.00  0.00    -0.245 OA
BRANCH  17  19
ATOM     19  O   UNL     1      -4.456  -3.189   6.868  0.00  0.00    -0.464 OA
ATOM     20  C   UNL     1      -4.809  -2.631   8.135  0.00  0.00    +0.280 C 
ENDBRANCH  17  19
ENDBRANCH  14  17
ENDBRANCH  10  11
BRANCH   8  21
ATOM     21  N   UNL     1      -3.487 -10.527   1.664  0.00  0.00    -0.328 N 
ATOM     22  H   UNL     1      -3.125 -11.423   1.747  0.00  0.00    +0.145 HD
ATOM     23  H   UNL     1      -4.424 -10.400   1.448  0.00  0.00    +0.145 HD
ENDBRANCH   8  21
BRANCH   9  24
ATOM     24  C   UNL     1      -4.615  -8.120   1.401  0.00  0.00    +0.101 C 
ATOM     25  N   UNL     1      -5.719  -8.047   1.143  0.00  0.00    -0.191 NA
ENDBRANCH   9  24
BRANCH   1  26
ATOM     26  C   UNL     1       0.077  -4.981   1.735  0.00  0.00    +0.129 C 
BRANCH  26  27
ATOM     27  S   UNL     1       0.062  -4.533  -0.023  0.00  0.00    -0.119 S 
BRANCH  27  32
ATOM     28  C   UNL     1      -0.018   1.503   0.010  0.00  0.00    +0.044 C 
ATOM     29  C   UNL     1       0.002  -0.004   0.002  0.00  0.00    -0.050 A 
ATOM     30  C   UNL     1       0.006  -0.687  -1.200  0.00  0.00    +0.004 A 
ATOM     31  C   UNL     1       0.024  -2.068  -1.212  0.00  0.00    +0.015 A 
ATOM     32  C   UNL     1       0.039  -2.771  -0.013  0.00  0.00    +0.008 A 
ATOM     33  C   UNL     1       0.036  -2.081   1.193  0.00  0.00    +0.015 A 
ATOM     34  C   UNL     1       0.023  -0.700   1.197  0.00  0.00    +0.004 A 
ENDBRANCH  27  32
ENDBRANCH  26  27
ENDBRANCH   1  26
TORSDOF 8
