REMARK  Name = ZINC21248276
REMARK  6 active torsions:
REMARK  status: ('A' for Active; 'I' for Inactive)
REMARK    1  A    between atoms: C_1  and  C_2
REMARK    2  A    between atoms: C_3  and  C_24
REMARK    3  A    between atoms: C_8  and  C_10
REMARK    4  A    between atoms: C_10  and  C_12
REMARK    5  A    between atoms: C_10  and  N_13
REMARK    6  A    between atoms: C_24  and  C_25
REMARK                            x       y       z     vdW  Elec       q    Type
REMARK                         _______ _______ _______ _____ _____    ______ ____
ROOT
ATOM      1  C   UNL     1       3.612   4.250   1.751  0.00  0.00    +0.066 C 
ATOM      2  C   UNL     1       2.194   4.393   2.240  0.00  0.00    +0.051 A 
ATOM      3  C   UNL     1       1.148   4.090   1.433  0.00  0.00    +0.018 A 
ATOM      4  S   UNL     1      -0.225   4.449   2.520  0.00  0.00    -0.056 S 
ATOM      5  C   UNL     1       0.705   4.942   3.902  0.00  0.00    +0.165 A 
ATOM      6  N   UNL     1       1.942   4.814   3.464  0.00  0.00    -0.230 NA
ATOM      7  N   UNL     1       0.258   5.367   5.148  0.00  0.00    -0.263 N 
ATOM      8  C   UNL     1       1.147   5.717   6.099  0.00  0.00    +0.239 C 
ATOM      9  O   UNL     1       2.336   5.660   5.867  0.00  0.00    -0.273 OA
ATOM     10  H   UNL     1      -0.820   5.419   5.357  0.00  0.00    +0.157 HD
ENDROOT
BRANCH   8  11
ATOM     11  C   UNL     1       0.663   6.178   7.449  0.00  0.00    +0.168 C 
ATOM     12  C   UNL     1      -0.160   5.066   8.103  0.00  0.00    +0.038 C 
BRANCH  11  13
ATOM     13  N   UNL     1       1.814   6.497   8.298  0.00  0.00    -0.222 N 
ATOM     14  C   UNL     1       2.770   5.617   8.646  0.00  0.00    +0.254 C 
ATOM     15  O   UNL     1       2.816   4.450   8.311  0.00  0.00    -0.270 OA
ATOM     16  C   UNL     1       3.758   6.308   9.501  0.00  0.00    +0.049 A 
ATOM     17  C   UNL     1       4.926   5.921  10.137  0.00  0.00    +0.014 A 
ATOM     18  C   UNL     1       5.636   6.842  10.891  0.00  0.00    +0.001 A 
ATOM     19  C   UNL     1       5.187   8.144  11.012  0.00  0.00    +0.001 A 
ATOM     20  C   UNL     1       4.020   8.546  10.381  0.00  0.00    +0.014 A 
ATOM     21  C   UNL     1       3.300   7.635   9.624  0.00  0.00    +0.049 A 
ATOM     22  C   UNL     1       2.051   7.707   8.836  0.00  0.00    +0.254 C 
ATOM     23  O   UNL     1       1.356   8.693   8.697  0.00  0.00    -0.270 OA
ENDBRANCH  11  13
ENDBRANCH   8  11
BRANCH   3  24
ATOM     24  C   UNL     1       1.143   3.595   0.010  0.00  0.00    +0.079 C 
BRANCH  24  25
ATOM     25  C   UNL     1       1.169   2.089   0.002  0.00  0.00    -0.039 A 
ATOM     26  C   UNL     1      -0.017   1.378   0.010  0.00  0.00    +0.008 A 
ATOM     27  C   UNL     1       0.002  -0.004   0.002  0.00  0.00    +0.050 A 
ATOM     28  C   UNL     1       1.211  -0.681  -0.013  0.00  0.00    +0.166 A 
ATOM     29  C   UNL     1       2.405   0.035  -0.021  0.00  0.00    +0.166 A 
ATOM     30  C   UNL     1       2.379   1.420  -0.012  0.00  0.00    +0.053 A 
ATOM     31  O   UNL     1       3.444  -0.851  -0.036  0.00  0.00    -0.453 OA
ATOM     32  C   UNL     1       2.873  -2.106  -0.450  0.00  0.00    +0.466 C 
ATOM     33  O   UNL     1       1.501  -2.015  -0.024  0.00  0.00    -0.453 OA
ENDBRANCH  24  25
ENDBRANCH   3  24
TORSDOF 4
