REMARK  Name = ZINC39922582
REMARK  4 active torsions:
REMARK  status: ('A' for Active; 'I' for Inactive)
REMARK    1  A    between atoms: C_1  and  C_2
REMARK    2  A    between atoms: C_4  and  C_8
REMARK    3  A    between atoms: N_10  and  N_11
REMARK    4  A    between atoms: C_12  and  C_13
REMARK                            x       y       z     vdW  Elec       q    Type
REMARK                         _______ _______ _______ _____ _____    ______ ____
ROOT
ATOM      1  C   UNL     1      -0.969  -2.926  -1.248  0.00  0.00    +0.262 C 
ATOM      2  O   UNL     1      -0.211  -3.035  -2.188  0.00  0.00    -0.271 OA
ATOM      3  N   UNL     1      -2.204  -3.463  -1.312  0.00  0.00    -0.205 N 
ATOM      4  H   UNL     1      -2.810  -3.375  -0.560  0.00  0.00    +0.177 HD
ENDROOT
BRANCH   1   8
ATOM      5  C   UNL     1      -0.018   1.503   0.010  0.00  0.00    +0.067 C 
ATOM      6  C   UNL     1       0.002  -0.004   0.002  0.00  0.00    +0.059 C 
ATOM      7  C   UNL     1      -1.086  -0.777   0.003  0.00  0.00    +0.035 C 
ATOM      8  C   UNL     1      -0.531  -2.190  -0.007  0.00  0.00    +0.240 C 
ATOM      9  N   UNL     1       0.926  -1.973  -0.013  0.00  0.00    -0.170 NA
ATOM     10  N   UNL     1       1.125  -0.756  -0.013  0.00  0.00    -0.159 NA
ENDBRANCH   1   8
BRANCH   3  11
ATOM     11  N   UNL     1      -2.611  -4.146  -2.465  0.00  0.00    -0.188 NA
ATOM     12  C   UNL     1      -3.800  -4.663  -2.527  0.00  0.00    +0.138 C 
BRANCH  12  13
ATOM     13  C   UNL     1      -4.228  -5.383  -3.740  0.00  0.00    -0.004 A 
ATOM     14  C   UNL     1      -3.355  -5.516  -4.823  0.00  0.00    +0.009 A 
ATOM     15  C   UNL     1      -3.762  -6.190  -5.955  0.00  0.00    +0.002 A 
ATOM     16  C   UNL     1      -5.032  -6.735  -6.021  0.00  0.00    +0.015 A 
ATOM     17  C   UNL     1      -5.903  -6.608  -4.952  0.00  0.00    +0.018 A 
ATOM     18  C   UNL     1      -5.507  -5.941  -3.811  0.00  0.00    +0.024 A 
ATOM     19 BR   UNL     1      -7.636  -7.358  -5.053  0.00  0.00    -0.050 Br
ENDBRANCH  12  13
ENDBRANCH   3  11
TORSDOF 3
