REMARK  Name = ZINC39686152
REMARK  7 active torsions:
REMARK  status: ('A' for Active; 'I' for Inactive)
REMARK    1  A    between atoms: C_1  and  C_2
REMARK    2  A    between atoms: C_2  and  C_3
REMARK    3  A    between atoms: C_2  and  C_4
REMARK    4  A    between atoms: C_4  and  C_5
REMARK    5  A    between atoms: C_10  and  N_13
REMARK    6  A    between atoms: C_14  and  C_16
REMARK    7  A    between atoms: C_27  and  C_29
REMARK                            x       y       z     vdW  Elec       q    Type
REMARK                         _______ _______ _______ _____ _____    ______ ____
ROOT
ATOM      1  C   UNL     1      -7.552  -5.764  -2.849  0.00  0.00    +0.100 C 
ATOM      2  C   UNL     1      -8.743  -4.870  -3.260  0.00  0.00    +0.121 C 
ATOM      3  N   UNL     1      -9.805  -5.822  -3.663  0.00  0.00    -0.296 N 
ATOM      4  C   UNL     1      -9.700  -6.929  -2.682  0.00  0.00    +0.115 C 
ATOM      5  C   UNL     1      -8.184  -7.114  -2.470  0.00  0.00    -0.004 C 
ATOM      6  C   UNL     1      -7.893  -7.442  -1.008  0.00  0.00    -0.010 C 
ATOM      7  C   UNL     1      -8.481  -8.815  -0.671  0.00  0.00    -0.082 C 
ATOM      8  N   UNL     1      -7.889  -9.832  -1.549  0.00  0.00    +0.379 N 
ATOM      9  C   UNL     1      -8.253  -9.561  -2.945  0.00  0.00    -0.082 C 
ATOM     10  C   UNL     1      -7.655  -8.219  -3.379  0.00  0.00    -0.010 C 
ATOM     11  C   UNL     1     -10.670  -5.708  -4.691  0.00  0.00    +0.247 C 
ATOM     12  O   UNL     1     -10.559  -4.789  -5.479  0.00  0.00    -0.270 OA
ATOM     13  H   UNL     1      -6.885  -9.813  -1.454  0.00  0.00    -0.086 HD
ATOM     14  H   UNL     1      -8.233 -10.744  -1.285  0.00  0.00    -0.086 HD
ENDROOT
BRANCH  11  15
ATOM     15  C   UNL     1     -11.752  -6.700  -4.859  0.00  0.00    +0.038 A 
ATOM     16  C   UNL     1     -12.175  -7.466  -3.771  0.00  0.00    +0.014 A 
ATOM     17  C   UNL     1     -13.186  -8.391  -3.933  0.00  0.00    +0.022 A 
ATOM     18  C   UNL     1     -13.781  -8.560  -5.173  0.00  0.00    +0.059 A 
ATOM     19  C   UNL     1     -13.365  -7.803  -6.256  0.00  0.00    +0.060 A 
ATOM     20  C   UNL     1     -12.359  -6.870  -6.104  0.00  0.00    +0.034 A 
ATOM     21 CL   UNL     1     -14.117  -8.022  -7.806  0.00  0.00    -0.082 Cl
ATOM     22 CL   UNL     1     -15.051  -9.727  -5.369  0.00  0.00    -0.082 Cl
ENDBRANCH  11  15
BRANCH   1  24
ATOM     23  N   UNL     1      -5.518  -5.402  -1.489  0.00  0.00    -0.312 N 
ATOM     24  C   UNL     1      -6.834  -5.170  -1.665  0.00  0.00    +0.218 C 
ATOM     25  O   UNL     1      -7.440  -4.484  -0.870  0.00  0.00    -0.275 OA
ATOM     26  H   UNL     1      -5.033  -5.951  -2.125  0.00  0.00    +0.149 HD
BRANCH  23  32
ATOM     27  C   UNL     1      -1.887  -5.315   2.496  0.00  0.00    +0.216 C 
ATOM     28  O   UNL     1      -2.133  -5.974   3.484  0.00  0.00    -0.276 OA
ATOM     29  N   UNL     1      -2.892  -4.844   1.732  0.00  0.00    -0.301 N 
ATOM     30  C   UNL     1      -2.610  -4.048   0.530  0.00  0.00    +0.109 C 
ATOM     31  C   UNL     1      -3.330  -4.684  -0.663  0.00  0.00    +0.041 C 
ATOM     32  C   UNL     1      -4.819  -4.825  -0.338  0.00  0.00    +0.076 C 
ATOM     33  C   UNL     1      -4.994  -5.740   0.876  0.00  0.00    +0.041 C 
ATOM     34  C   UNL     1      -4.292  -5.121   2.083  0.00  0.00    +0.109 C 
BRANCH  27  35
ATOM     35  C   UNL     1      -0.456  -5.021   2.123  0.00  0.00    +0.099 C 
BRANCH  35  37
ATOM     36  C   UNL     1       1.931  -5.476   2.703  0.00  0.00    +0.008 C 
ATOM     37  C   UNL     1       0.480  -5.666   3.147  0.00  0.00    -0.008 C 
ATOM     38  C   UNL     1       0.274  -5.007   4.513  0.00  0.00    +0.008 C 
ENDBRANCH  35  37
ENDBRANCH  27  35
ENDBRANCH  23  32
ENDBRANCH   1  24
TORSDOF 5
