REMARK  Name = ZINC02182960
REMARK  7 active torsions:
REMARK  status: ('A' for Active; 'I' for Inactive)
REMARK    1  A    between atoms: C_1  and  C_2
REMARK    2  A    between atoms: C_6  and  O_8
REMARK    3  A    between atoms: O_8  and  C_9
REMARK    4  A    between atoms: C_11  and  N_16
REMARK    5  A    between atoms: C_13  and  C_15
REMARK    6  A    between atoms: C_17  and  N_23
REMARK    7  A    between atoms: C_18  and  C_21
REMARK                            x       y       z     vdW  Elec       q    Type
REMARK                         _______ _______ _______ _____ _____    ______ ____
ROOT
ATOM      1  C   UNL     1       3.481   3.169   0.089  0.00  0.00    +0.226 A 
ATOM      2  C   UNL     1       4.699   3.834   0.184  0.00  0.00    +0.116 A 
ATOM      3  C   UNL     1       5.859   3.074   0.279  0.00  0.00    +0.163 A 
ATOM      4  N   UNL     1       5.764   1.747   0.265  0.00  0.00    -0.213 NA
ATOM      5  C   UNL     1       4.592   1.154   0.168  0.00  0.00    +0.132 A 
ATOM      6  N   UNL     1       3.470   1.840   0.082  0.00  0.00    -0.198 NA
ATOM      7  C   UNL     1       4.532  -0.352   0.156  0.00  0.00    +0.088 C 
ENDROOT
BRANCH   3   8
ATOM      8  N   UNL     1       7.104   3.693   0.382  0.00  0.00    -0.199 N 
ATOM      9  C   UNL     1       8.220   3.149   0.936  0.00  0.00    +0.139 A 
ATOM     10  C   UNL     1       9.231   4.100   0.831  0.00  0.00    +0.111 A 
ATOM     11  C   UNL     1       8.671   5.232   0.192  0.00  0.00    +0.155 A 
ATOM     12  N   UNL     1       7.420   4.978  -0.072  0.00  0.00    -0.170 NA
BRANCH   9  13
ATOM     13  N   UNL     1       8.330   1.893   1.498  0.00  0.00    -0.342 N 
ATOM     14  H   UNL     1       7.560   1.303   1.522  0.00  0.00    +0.144 HD
ATOM     15  H   UNL     1       9.177   1.599   1.868  0.00  0.00    +0.144 HD
ENDBRANCH   9  13
BRANCH  10  16
ATOM     16  C   UNL     1      10.582   3.960   1.284  0.00  0.00    +0.104 C 
ATOM     17  N   UNL     1      11.654   3.849   1.644  0.00  0.00    -0.191 NA
ENDBRANCH  10  16
ENDBRANCH   3   8
BRANCH   1  18
ATOM     18  O   UNL     1       2.322   3.866  -0.000  0.00  0.00    -0.438 OA
BRANCH  18  24
ATOM     19  C   UNL     1      -1.621   2.196  -2.343  0.00  0.00    +0.044 C 
ATOM     20  C   UNL     1      -0.793   2.335  -1.092  0.00  0.00    -0.047 A 
ATOM     21  C   UNL     1      -1.218   1.750   0.087  0.00  0.00    +0.003 A 
ATOM     22  C   UNL     1      -0.464   1.881   1.238  0.00  0.00    +0.004 A 
ATOM     23  C   UNL     1       0.723   2.587   1.211  0.00  0.00    +0.046 A 
ATOM     24  C   UNL     1       1.155   3.171   0.029  0.00  0.00    +0.131 A 
ATOM     25  C   UNL     1       0.393   3.043  -1.124  0.00  0.00    +0.049 A 
ENDBRANCH  18  24
ENDBRANCH   1  18
TORSDOF 5
