REMARK  Name = ZINC08964015
REMARK  11 active torsions:
REMARK  status: ('A' for Active; 'I' for Inactive)
REMARK    1  A    between atoms: C_1  and  C_2
REMARK    2  A    between atoms: C_5  and  N_29
REMARK    3  A    between atoms: C_7  and  N_8
REMARK    4  A    between atoms: C_9  and  C_11
REMARK    5  A    between atoms: N_13  and  C_14
REMARK    6  A    between atoms: C_14  and  C_15
REMARK    7  A    between atoms: C_15  and  C_17
REMARK    8  A    between atoms: C_15  and  N_58
REMARK    9  A    between atoms: N_25  and  C_26
REMARK   10  A    between atoms: C_27  and  N_58
REMARK   11  A    between atoms: C_28  and  N_58
REMARK                            x       y       z     vdW  Elec       q    Type
REMARK                         _______ _______ _______ _____ _____    ______ ____
ROOT
ATOM      1  C   UNL     1      -2.656   9.058  -1.260  0.00  0.00    +0.299 C 
ATOM      2  O   UNL     1      -1.534   9.216  -0.827  0.00  0.00    -0.265 OA
ATOM      3  N   UNL     1      -3.208   7.829  -1.268  0.00  0.00    -0.309 N 
ATOM      4  H   UNL     1      -4.106   7.702  -1.615  0.00  0.00    +0.149 HD
ENDROOT
BRANCH   1   6
ATOM      5  N   UNL     1      -2.873  11.455  -1.776  0.00  0.00    -0.277 N 
ATOM      6  C   UNL     1      -3.426  10.226  -1.784  0.00  0.00    +0.303 C 
ATOM      7  O   UNL     1      -4.548  10.068  -2.217  0.00  0.00    -0.265 OA
ATOM      8  H   UNL     1      -1.953  11.572  -1.492  0.00  0.00    +0.155 HD
BRANCH   5  15
ATOM      9  C   UNL     1      -2.167  14.007  -0.734  0.00  0.00    +0.045 C 
ATOM     10  C   UNL     1      -3.317  13.827  -1.692  0.00  0.00    -0.029 A 
ATOM     11  C   UNL     1      -4.063  14.919  -2.089  0.00  0.00    +0.007 A 
ATOM     12  C   UNL     1      -5.118  14.754  -2.968  0.00  0.00    +0.033 A 
ATOM     13  C   UNL     1      -5.429  13.496  -3.452  0.00  0.00    +0.128 A 
ATOM     14  C   UNL     1      -4.684  12.401  -3.062  0.00  0.00    +0.056 A 
ATOM     15  C   UNL     1      -3.627  12.562  -2.176  0.00  0.00    +0.039 A 
BRANCH  13  16
ATOM     16  N   UNL     1      -6.559  13.325  -4.392  0.00  0.00    +0.056 N 
ATOM     17  O   UNL     1      -7.214  14.292  -4.740  0.00  0.00    -0.126 OA
ATOM     18  O   UNL     1      -6.835  12.218  -4.819  0.00  0.00    -0.126 OA
ENDBRANCH  13  16
ENDBRANCH   5  15
ENDBRANCH   1   6
BRANCH   3  19
ATOM     19  C   UNL     1      -2.454   6.683  -0.754  0.00  0.00    +0.094 C 
BRANCH  19  20
ATOM     20  C   UNL     1      -3.355   5.447  -0.731  0.00  0.00    -0.021 C 
BRANCH  20  21
ATOM     21  C   UNL     1      -2.560   4.253  -0.270  0.00  0.00    -0.059 A 
ATOM     22  C   UNL     1      -2.240   4.108   1.068  0.00  0.00    +0.004 A 
ATOM     23  C   UNL     1      -1.514   3.017   1.495  0.00  0.00    +0.023 A 
ATOM     24  C   UNL     1      -1.097   2.051   0.581  0.00  0.00    +0.033 A 
ATOM     25  C   UNL     1      -1.419   2.208  -0.762  0.00  0.00    -0.025 A 
ATOM     26  C   UNL     1      -2.147   3.301  -1.183  0.00  0.00    +0.007 A 
ATOM     27  C   UNL     1      -0.840   1.032  -1.522  0.00  0.00    +0.056 C 
ATOM     28  C   UNL     1       0.179   0.443  -0.519  0.00  0.00    +0.109 C 
ATOM     29  N   UNL     1      -0.362   0.874   0.788  0.00  0.00    -0.332 N 
ATOM     30  C   UNL     1       0.718   1.086   1.761  0.00  0.00    +0.129 C 
ENDBRANCH  20  21
BRANCH  20  33
ATOM     31  C   UNL     1      -4.102   6.628   1.247  0.00  0.00    -0.096 C 
ATOM     32  C   UNL     1      -5.669   6.133  -0.531  0.00  0.00    -0.096 C 
ATOM     33  N   UNL     1      -4.481   5.651   0.205  0.00  0.00    +0.382 N 
ATOM     34  H   UNL     1      -4.707   4.755   0.654  0.00  0.00    -0.082 HD
ENDBRANCH  20  33
ENDBRANCH  19  20
ENDBRANCH   3  19
TORSDOF 7
