REMARK  Name = ZINC14557948
REMARK  7 active torsions:
REMARK  status: ('A' for Active; 'I' for Inactive)
REMARK    1  A    between atoms: C_1  and  C_2
REMARK    2  A    between atoms: N_11  and  C_15
REMARK    3  A    between atoms: C_15  and  C_16
REMARK    4  A    between atoms: N_18  and  C_19
REMARK    5  A    between atoms: C_19  and  C_20
REMARK    6  A    between atoms: C_20  and  N_21
REMARK    7  A    between atoms: C_25  and  C_26
REMARK                            x       y       z     vdW  Elec       q    Type
REMARK                         _______ _______ _______ _____ _____    ______ ____
ROOT
ATOM      1  C   UNL     1       0.772   5.420   4.399  0.00  0.00    +0.231 C 
ATOM      2  O   UNL     1       0.620   4.598   5.278  0.00  0.00    -0.274 OA
ATOM      3  N   UNL     1       0.924   5.020   3.121  0.00  0.00    -0.312 N 
ATOM      4  H   UNL     1       1.046   5.677   2.418  0.00  0.00    +0.149 HD
ENDROOT
BRANCH   1   5
ATOM      5  C   UNL     1       0.791   6.889   4.735  0.00  0.00    +0.213 C 
BRANCH   5  15
ATOM      6  C   UNL     1      -0.104   9.819   7.971  0.00  0.00    +0.010 C 
ATOM      7  C   UNL     1      -0.782   8.699   8.762  0.00  0.00    +0.018 C 
ATOM      8  C   UNL     1      -0.435   8.842  10.247  0.00  0.00    +0.006 C 
ATOM      9  C   UNL     1      -1.098   7.709  11.035  0.00  0.00    +0.000 C 
ATOM     10  C   UNL     1      -0.581   6.362  10.527  0.00  0.00    +0.003 C 
ATOM     11  C   UNL     1      -0.928   6.210   9.043  0.00  0.00    +0.035 C 
ATOM     12  C   UNL     1      -0.292   7.348   8.253  0.00  0.00    +0.115 C 
ATOM     13  C   UNL     1      -0.592   7.205   6.778  0.00  0.00    +0.247 C 
ATOM     14  O   UNL     1      -1.682   7.214   6.247  0.00  0.00    -0.273 OA
ATOM     15  N   UNL     1       0.608   7.062   6.179  0.00  0.00    -0.215 N 
ATOM     16  C   UNL     1       1.610   7.103   7.065  0.00  0.00    +0.310 C 
ATOM     17  O   UNL     1       2.783   7.001   6.764  0.00  0.00    -0.252 OA
ATOM     18  N   UNL     1       1.173   7.271   8.328  0.00  0.00    -0.285 N 
ATOM     19  H   UNL     1       1.717   7.330   9.128  0.00  0.00    +0.151 HD
ENDBRANCH   5  15
ENDBRANCH   1   5
BRANCH   3  20
ATOM     20  C   UNL     1       0.905   3.592   2.794  0.00  0.00    +0.123 C 
BRANCH  20  21
ATOM     21  C   UNL     1       1.097   3.411   1.286  0.00  0.00    +0.136 C 
BRANCH  21  22
ATOM     22  N   UNL     1       1.078   1.984   0.959  0.00  0.00    -0.227 N 
ATOM     23  C   UNL     1      -0.073   1.404   0.663  0.00  0.00    +0.260 C 
ATOM     24  O   UNL     1      -1.119   2.027   0.651  0.00  0.00    -0.269 OA
ATOM     25  C   UNL     1      -0.025  -0.038   0.343  0.00  0.00    +0.080 C 
ATOM     26  C   UNL     1      -1.031  -0.883   0.006  0.00  0.00    +0.031 C 
ATOM     27  S   UNL     1       1.724  -0.361   0.518  0.00  0.00    -0.026 S 
ATOM     28  C   UNL     1       2.235   1.290   0.966  0.00  0.00    +0.286 C 
ATOM     29  O   UNL     1       3.354   1.693   1.218  0.00  0.00    -0.262 OA
BRANCH  26  30
ATOM     30  C   UNL     1      -0.771  -2.324  -0.114  0.00  0.00    +0.011 A 
ATOM     31  C   UNL     1       0.373  -2.884   0.467  0.00  0.00    +0.011 A 
ATOM     32  C   UNL     1       0.607  -4.237   0.354  0.00  0.00    +0.001 A 
ATOM     33  C   UNL     1      -0.278  -5.042  -0.343  0.00  0.00    +0.003 A 
ATOM     34  C   UNL     1      -1.408  -4.499  -0.926  0.00  0.00    +0.039 A 
ATOM     35  C   UNL     1      -1.662  -3.145  -0.818  0.00  0.00    +0.131 A 
ATOM     36  F   UNL     1      -2.766  -2.614  -1.389  0.00  0.00    -0.205 F 
ENDBRANCH  26  30
ENDBRANCH  21  22
ENDBRANCH  20  21
ENDBRANCH   3  20
TORSDOF 6
