REMARK  Name = ZINC39769635
REMARK  16 active torsions:
REMARK  status: ('A' for Active; 'I' for Inactive)
REMARK    1  A    between atoms: C_1  and  C_2
REMARK    2  A    between atoms: C_2  and  C_3
REMARK    3  A    between atoms: C_3  and  C_4
REMARK    4  A    between atoms: C_4  and  C_5
REMARK    5  A    between atoms: C_5  and  C_7
REMARK    6  A    between atoms: C_5  and  C_9
REMARK    7  A    between atoms: C_7  and  C_8
REMARK    8  A    between atoms: C_9  and  N_10
REMARK    9  A    between atoms: C_14  and  C_15
REMARK   10  A    between atoms: C_16  and  C_36
REMARK   11  A    between atoms: C_17  and  C_34
REMARK   12  A    between atoms: N_20  and  C_32
REMARK   13  A    between atoms: C_21  and  N_22
REMARK   14  A    between atoms: C_24  and  C_31
REMARK   15  A    between atoms: C_27  and  C_30
REMARK   16  A    between atoms: C_32  and  C_33
REMARK                            x       y       z     vdW  Elec       q    Type
REMARK                         _______ _______ _______ _____ _____    ______ ____
ROOT
ATOM      1  C   UNL     1      -0.505  -5.040  -7.635  0.00  0.00    +0.019 A 
ATOM      2  C   UNL     1      -1.314  -4.176  -6.877  0.00  0.00    -0.017 A 
ATOM      3  C   UNL     1      -2.309  -3.447  -7.522  0.00  0.00    +0.120 A 
ATOM      4  C   UNL     1      -2.482  -3.592  -8.922  0.00  0.00    +0.270 A 
ATOM      5  O   UNL     1      -3.352  -2.957  -9.493  0.00  0.00    -0.266 OA
ATOM      6  N   UNL     1      -1.695  -4.426  -9.626  0.00  0.00    -0.295 N 
ATOM      7  C   UNL     1      -0.714  -5.144  -9.020  0.00  0.00    +0.112 A 
ATOM      8  C   UNL     1      -1.107  -4.041  -5.390  0.00  0.00    +0.046 C 
ENDROOT
BRANCH   1  13
ATOM      9  N   UNL     1       2.985  -3.423  -5.669  0.00  0.00    -0.255 N 
ATOM     10  C   UNL     1       1.911  -3.795  -6.343  0.00  0.00    +0.258 C 
ATOM     11  O   UNL     1       1.218  -2.977  -6.921  0.00  0.00    -0.269 OA
ATOM     12  C   UNL     1       1.587  -5.186  -6.374  0.00  0.00    +0.077 C 
ATOM     13  C   UNL     1       0.551  -5.820  -6.987  0.00  0.00    +0.032 C 
ATOM     14  S   UNL     1       2.913  -5.866  -5.387  0.00  0.00    -0.061 S 
ATOM     15  C   UNL     1       3.756  -4.332  -5.032  0.00  0.00    +0.121 C 
ATOM     16  S   UNL     1       5.179  -4.077  -4.115  0.00  0.00    -0.027 S 
BRANCH   9  17
ATOM     17  C   UNL     1       3.348  -2.004  -5.615  0.00  0.00    +0.118 C 
BRANCH  17  18
ATOM     18  C   UNL     1       4.371  -1.698  -6.711  0.00  0.00    +0.007 C 
BRANCH  18  19
ATOM     19  C   UNL     1       4.864  -0.258  -6.560  0.00  0.00    +0.002 C 
ATOM     20  C   UNL     1       5.657  -0.124  -5.259  0.00  0.00    +0.004 C 
ENDBRANCH  18  19
BRANCH  18  21
ATOM     21  C   UNL     1       3.716  -1.872  -8.083  0.00  0.00    +0.005 C 
BRANCH  21  22
ATOM     22  C   UNL     1       4.769  -1.688  -9.178  0.00  0.00    +0.000 C 
BRANCH  22  24
ATOM     23  C   UNL     1       5.167  -1.678 -11.644  0.00  0.00    +0.004 C 
ATOM     24  C   UNL     1       4.114  -1.862 -10.550  0.00  0.00    -0.003 C 
ENDBRANCH  22  24
ENDBRANCH  21  22
ENDBRANCH  18  21
ENDBRANCH  17  18
ENDBRANCH   9  17
ENDBRANCH   1  13
BRANCH   7  25
ATOM     25  N   UNL     1       0.072  -5.976  -9.762  0.00  0.00    -0.311 N 
ATOM     26  C   UNL     1       1.111  -5.440 -10.656  0.00  0.00    +0.137 C 
ATOM     27  C   UNL     1       2.427  -6.169 -10.359  0.00  0.00    +0.133 C 
ATOM     28  O   UNL     1       2.206  -7.580 -10.417  0.00  0.00    -0.371 OA
ATOM     29  C   UNL     1       1.280  -8.068  -9.444  0.00  0.00    +0.133 C 
ATOM     30  C   UNL     1      -0.091  -7.437  -9.689  0.00  0.00    +0.137 C 
ATOM     31  C   UNL     1       1.172  -9.590  -9.558  0.00  0.00    +0.039 C 
ATOM     32  C   UNL     1       2.921  -5.785  -8.963  0.00  0.00    +0.039 C 
ENDBRANCH   7  25
BRANCH   6  33
ATOM     33  C   UNL     1      -1.895  -4.558 -11.071  0.00  0.00    +0.123 C 
ATOM     34  C   UNL     1      -1.175  -3.417 -11.792  0.00  0.00    +0.027 C 
ENDBRANCH   6  33
BRANCH   3  35
ATOM     35  C   UNL     1      -3.150  -2.559  -6.779  0.00  0.00    +0.105 C 
ATOM     36  N   UNL     1      -3.818  -1.854  -6.189  0.00  0.00    -0.191 NA
ENDBRANCH   3  35
TORSDOF 10
