REMARK  Name = ZINC21219110
REMARK  11 active torsions:
REMARK  status: ('A' for Active; 'I' for Inactive)
REMARK    1  A    between atoms: C_1  and  C_2
REMARK    2  A    between atoms: C_2  and  C_3
REMARK    3  A    between atoms: C_2  and  C_4
REMARK    4  A    between atoms: C_4  and  O_5
REMARK    5  A    between atoms: O_5  and  C_6
REMARK    6  A    between atoms: C_9  and  C_12
REMARK    7  A    between atoms: C_17  and  C_23
REMARK    8  A    between atoms: C_25  and  O_32
REMARK    9  A    between atoms: C_26  and  O_30
REMARK   10  A    between atoms: O_30  and  C_31
REMARK   11  A    between atoms: O_32  and  C_33
REMARK                            x       y       z     vdW  Elec       q    Type
REMARK                         _______ _______ _______ _____ _____    ______ ____
ROOT
ATOM      1  C   UNL     1       1.527   0.036   6.140  0.00  0.00    +0.032 C 
ATOM      2  C   UNL     1       2.961   0.560   6.245  0.00  0.00    +0.059 C 
ATOM      3  C   UNL     1       3.569   0.113   7.551  0.00  0.00    +0.018 C 
ATOM      4  C   UNL     1       3.197  -1.051   8.124  0.00  0.00    +0.020 C 
ATOM      5  C   UNL     1       3.825  -1.481   9.429  0.00  0.00    +0.064 C 
ATOM      6  C   UNL     1       4.100  -0.247  10.291  0.00  0.00    +0.109 C 
ATOM      7  C   UNL     1       4.798   0.794   9.455  0.00  0.00    +0.218 C 
ATOM      8  O   UNL     1       5.619   1.527   9.963  0.00  0.00    -0.275 OA
ATOM      9  N   UNL     1       4.511   0.912   8.146  0.00  0.00    -0.289 N 
ATOM     10  C   UNL     1       2.229  -1.880   7.535  0.00  0.00    +0.162 C 
ATOM     11  O   UNL     1       1.930  -2.927   8.075  0.00  0.00    -0.292 OA
ATOM     12  C   UNL     1       1.552  -1.492   6.247  0.00  0.00    +0.088 C 
ATOM     13  H   UNL     1       5.048   1.666   7.552  0.00  0.00    +0.155 HD
ENDROOT
BRANCH   5  14
ATOM     14  C   UNL     1       5.120  -2.199   9.152  0.00  0.00    -0.022 A 
ATOM     15  C   UNL     1       6.140  -1.549   8.482  0.00  0.00    +0.054 A 
ATOM     16  C   UNL     1       7.334  -2.206   8.231  0.00  0.00    +0.162 A 
ATOM     17  C   UNL     1       7.500  -3.524   8.645  0.00  0.00    +0.163 A 
ATOM     18  C   UNL     1       6.472  -4.173   9.310  0.00  0.00    +0.065 A 
ATOM     19  C   UNL     1       5.285  -3.509   9.563  0.00  0.00    +0.025 A 
ATOM     20 BR   UNL     1       3.883  -4.396  10.472  0.00  0.00    -0.050 Br
BRANCH  17  21
ATOM     21  O   UNL     1       8.668  -4.175   8.396  0.00  0.00    -0.491 OA
ATOM     22  C   UNL     1       8.767  -5.526   8.850  0.00  0.00    +0.277 C 
ENDBRANCH  17  21
BRANCH  16  23
ATOM     23  O   UNL     1       8.340  -1.565   7.577  0.00  0.00    -0.491 OA
ATOM     24  C   UNL     1       8.099  -0.213   7.182  0.00  0.00    +0.277 C 
ENDBRANCH  16  23
ENDBRANCH   5  14
BRANCH   1  28
ATOM     25  C   UNL     1      -0.149   1.182   2.380  0.00  0.00    +0.121 A 
ATOM     26  C   UNL     1       0.991   0.392   2.421  0.00  0.00    +0.046 A 
ATOM     27  C   UNL     1       1.534   0.028   3.638  0.00  0.00    +0.007 A 
ATOM     28  C   UNL     1       0.936   0.440   4.814  0.00  0.00    -0.043 A 
ATOM     29  C   UNL     1      -0.203   1.223   4.776  0.00  0.00    +0.007 A 
ATOM     30  C   UNL     1      -0.747   1.595   3.561  0.00  0.00    +0.046 A 
BRANCH  25  31
ATOM     31  O   UNL     1      -0.682   1.547   1.184  0.00  0.00    -0.492 OA
BRANCH  31  32
ATOM     32  C   UNL     1      -0.013   1.086   0.008  0.00  0.00    +0.232 C 
BRANCH  32  34
ATOM     33  C   UNL     1      -0.666   3.119  -1.289  0.00  0.00    +0.010 C 
ATOM     34  C   UNL     1      -0.753   1.593  -1.232  0.00  0.00    +0.020 C 
ATOM     35  C   UNL     1      -0.111   0.998  -2.487  0.00  0.00    +0.010 C 
ENDBRANCH  32  34
ENDBRANCH  31  32
ENDBRANCH  25  31
ENDBRANCH   1  28
TORSDOF 7
