REMARK  Name = ZINC27548092
REMARK  6 active torsions:
REMARK  status: ('A' for Active; 'I' for Inactive)
REMARK    1  A    between atoms: C_1  and  C_2
REMARK    2  A    between atoms: C_5  and  C_8
REMARK    3  A    between atoms: C_14  and  C_22
REMARK    4  A    between atoms: C_16  and  C_20
REMARK    5  A    between atoms: C_17  and  N_19
REMARK    6  A    between atoms: C_27  and  C_28
REMARK                            x       y       z     vdW  Elec       q    Type
REMARK                         _______ _______ _______ _____ _____    ______ ____
ROOT
ATOM      1  C   UNL     1       0.121  -4.757   0.358  0.00  0.00    +0.084 C 
ATOM      2  N   UNL     1       0.052  -5.585  -0.648  0.00  0.00    -0.150 NA
ATOM      3  N   UNL     1       0.374  -6.892  -0.280  0.00  0.00    -0.115 NA
ATOM      4  C   UNL     1       0.721  -6.974   0.954  0.00  0.00    +0.227 C 
ATOM      5  C   UNL     1       0.505  -5.589   1.560  0.00  0.00    +0.140 C 
ATOM      6  C   UNL     1       1.867  -5.156   2.114  0.00  0.00    +0.083 C 
ATOM      7  C   UNL     1       2.516  -6.330   2.798  0.00  0.00    +0.095 C 
ATOM      8  C   UNL     1       2.192  -7.619   2.567  0.00  0.00    +0.200 C 
ATOM      9  O   UNL     1       1.216  -7.989   1.694  0.00  0.00    -0.425 OA
ENDROOT
BRANCH   1  14
ATOM     10  C   UNL     1      -0.819   0.914   0.238  0.00  0.00    +0.044 C 
ATOM     11  C   UNL     1      -0.572  -0.573   0.270  0.00  0.00    -0.050 A 
ATOM     12  C   UNL     1      -0.183  -1.231  -0.884  0.00  0.00    +0.004 A 
ATOM     13  C   UNL     1       0.045  -2.591  -0.863  0.00  0.00    +0.010 A 
ATOM     14  C   UNL     1      -0.119  -3.305   0.328  0.00  0.00    -0.001 A 
ATOM     15  C   UNL     1      -0.512  -2.633   1.489  0.00  0.00    +0.010 A 
ATOM     16  C   UNL     1      -0.731  -1.272   1.454  0.00  0.00    +0.004 A 
ENDBRANCH   1  14
BRANCH   6  17
ATOM     17  C   UNL     1       2.744  -4.682   0.983  0.00  0.00    -0.026 A 
ATOM     18  C   UNL     1       2.971  -5.503  -0.106  0.00  0.00    +0.005 A 
ATOM     19  C   UNL     1       3.775  -5.069  -1.143  0.00  0.00    +0.000 A 
ATOM     20  C   UNL     1       4.351  -3.813  -1.092  0.00  0.00    +0.001 A 
ATOM     21  C   UNL     1       4.123  -2.992  -0.004  0.00  0.00    +0.012 A 
ATOM     22  C   UNL     1       3.316  -3.425   1.031  0.00  0.00    +0.059 A 
BRANCH  22  23
ATOM     23  C   UNL     1       3.063  -2.527   2.215  0.00  0.00    +0.418 C 
ATOM     24  F   UNL     1       3.840  -1.370   2.098  0.00  0.00    -0.166 F 
ATOM     25  F   UNL     1       1.709  -2.177   2.255  0.00  0.00    -0.166 F 
ATOM     26  F   UNL     1       3.405  -3.201   3.393  0.00  0.00    -0.166 F 
ENDBRANCH  22  23
ENDBRANCH   6  17
BRANCH   8  27
ATOM     27  N   UNL     1       2.873  -8.599   3.245  0.00  0.00    -0.328 N 
ATOM     28  H   UNL     1       3.570  -8.358   3.875  0.00  0.00    +0.145 HD
ATOM     29  H   UNL     1       2.657  -9.532   3.095  0.00  0.00    +0.145 HD
ENDBRANCH   8  27
BRANCH   7  30
ATOM     30  C   UNL     1       3.544  -6.060   3.757  0.00  0.00    +0.100 C 
ATOM     31  N   UNL     1       4.360  -5.846   4.518  0.00  0.00    -0.191 NA
ENDBRANCH   7  30
TORSDOF 5
