REMARK  Name = ZINC00433547
REMARK  4 active torsions:
REMARK  status: ('A' for Active; 'I' for Inactive)
REMARK    1  A    between atoms: C_1  and  N_2
REMARK    2  A    between atoms: C_4  and  C_9
REMARK    3  A    between atoms: N_11  and  N_12
REMARK    4  A    between atoms: C_13  and  C_14
REMARK                            x       y       z     vdW  Elec       q    Type
REMARK                         _______ _______ _______ _____ _____    ______ ____
ROOT
ATOM      1  C   UNL     1       2.349   3.979   0.000  0.00  0.00    +0.265 C 
ATOM      2  O   UNL     1       2.301   5.194   0.007  0.00  0.00    -0.268 OA
ATOM      3  N   UNL     1       3.542   3.352  -0.015  0.00  0.00    -0.203 N 
ATOM      4  H   UNL     1       3.581   2.383  -0.020  0.00  0.00    +0.178 HD
ENDROOT
BRANCH   1   8
ATOM      5  C   UNL     1      -2.550   3.811   0.044  0.00  0.00    +0.152 C 
ATOM      6  N   UNL     1      -1.262   3.113   0.029  0.00  0.00    -0.318 N 
ATOM      7  C   UNL     1      -0.122   3.828   0.023  0.00  0.00    +0.102 A 
ATOM      8  C   UNL     1       1.103   3.192   0.008  0.00  0.00    +0.055 A 
ATOM      9  C   UNL     1       1.153   1.777   0.001  0.00  0.00    +0.020 A 
ATOM     10  C   UNL     1      -0.013   1.076   0.008  0.00  0.00    +0.071 A 
ATOM     11  C   UNL     1      -1.238   1.768   0.018  0.00  0.00    +0.251 A 
ATOM     12  O   UNL     1      -2.286   1.144   0.019  0.00  0.00    -0.268 OA
ENDBRANCH   1   8
BRANCH   3  13
ATOM     13  N   UNL     1       4.727   4.100  -0.022  0.00  0.00    -0.187 NA
ATOM     14  C   UNL     1       5.876   3.496  -0.037  0.00  0.00    +0.138 C 
BRANCH  14  15
ATOM     15  C   UNL     1       7.122   4.284  -0.045  0.00  0.00    -0.002 A 
ATOM     16  C   UNL     1       7.069   5.680  -0.043  0.00  0.00    +0.013 A 
ATOM     17  C   UNL     1       8.236   6.414  -0.046  0.00  0.00    +0.050 A 
ATOM     18  C   UNL     1       9.465   5.771  -0.061  0.00  0.00    +0.166 A 
ATOM     19  C   UNL     1       9.526   4.378  -0.068  0.00  0.00    +0.167 A 
ATOM     20  C   UNL     1       8.360   3.636  -0.060  0.00  0.00    +0.059 A 
ATOM     21  O   UNL     1      10.837   3.998  -0.083  0.00  0.00    -0.453 OA
ATOM     22  C   UNL     1      11.579   5.162   0.328  0.00  0.00    +0.466 C 
ATOM     23  O   UNL     1      10.739   6.262  -0.072  0.00  0.00    -0.453 OA
ENDBRANCH  14  15
ENDBRANCH   3  13
TORSDOF 3
