REMARK  Name = ZINC49713788
REMARK  10 active torsions:
REMARK  status: ('A' for Active; 'I' for Inactive)
REMARK    1  A    between atoms: C_1  and  C_2
REMARK    2  A    between atoms: C_2  and  O_3
REMARK    3  A    between atoms: O_3  and  C_4
REMARK    4  A    between atoms: C_7  and  C_13
REMARK    5  A    between atoms: C_9  and  O_10
REMARK    6  A    between atoms: O_10  and  C_11
REMARK    7  A    between atoms: C_11  and  C_12
REMARK    8  A    between atoms: C_13  and  C_14
REMARK    9  A    between atoms: C_14  and  N_15
REMARK   10  A    between atoms: C_22  and  C_35
REMARK                            x       y       z     vdW  Elec       q    Type
REMARK                         _______ _______ _______ _____ _____    ______ ____
ROOT
ATOM      1  N   UNL     1       0.006  -8.012  -2.791  0.00  0.00    -0.320 N 
ATOM      2  C   UNL     1       0.533  -8.498  -3.896  0.00  0.00    +0.204 A 
ATOM      3  N   UNL     1       0.657  -9.793  -4.100  0.00  0.00    -0.202 NA
ATOM      4  C   UNL     1       0.249 -10.670  -3.184  0.00  0.00    +0.229 A 
ATOM      5  C   UNL     1      -0.310 -10.200  -2.008  0.00  0.00    +0.064 A 
ATOM      6  C   UNL     1      -0.421  -8.824  -1.825  0.00  0.00    +0.107 A 
ATOM      7  N   UNL     1      -0.971  -8.309  -0.662  0.00  0.00    -0.344 N 
ATOM      8  C   UNL     1      -0.782 -11.149  -0.946  0.00  0.00    +0.091 C 
ATOM      9  C   UNL     1      -0.944 -12.537  -1.512  0.00  0.00    +0.008 A 
ATOM     10  C   UNL     1      -1.702 -13.468  -0.797  0.00  0.00    +0.009 A 
ATOM     11  C   UNL     1      -1.883 -14.735  -1.255  0.00  0.00    +0.009 A 
ATOM     12  C   UNL     1      -1.300 -15.126  -2.473  0.00  0.00    -0.014 A 
ATOM     13  C   UNL     1      -1.463 -16.427  -2.977  0.00  0.00    +0.008 A 
ATOM     14  C   UNL     1      -0.885 -16.767  -4.162  0.00  0.00    +0.001 A 
ATOM     15  C   UNL     1      -0.132 -15.842  -4.883  0.00  0.00    +0.001 A 
ATOM     16  C   UNL     1       0.048 -14.573  -4.423  0.00  0.00    +0.012 A 
ATOM     17  C   UNL     1      -0.533 -14.188  -3.204  0.00  0.00    +0.025 A 
ATOM     18  C   UNL     1      -0.362 -12.879  -2.697  0.00  0.00    +0.142 A 
ATOM     19  O   UNL     1       0.381 -11.994  -3.404  0.00  0.00    -0.437 OA
ATOM     20  H   UNL     1      -1.048  -7.349  -0.545  0.00  0.00    +0.144 HD
ATOM     21  H   UNL     1      -1.280  -8.909   0.036  0.00  0.00    +0.144 HD
ENDROOT
BRANCH   8  22
ATOM     22  C   UNL     1       0.227 -11.184   0.173  0.00  0.00    -0.035 A 
ATOM     23  C   UNL     1       1.528 -11.575  -0.081  0.00  0.00    +0.004 A 
ATOM     24  C   UNL     1       2.453 -11.607   0.945  0.00  0.00    +0.000 A 
ATOM     25  C   UNL     1       2.078 -11.248   2.226  0.00  0.00    +0.000 A 
ATOM     26  C   UNL     1       0.776 -10.856   2.480  0.00  0.00    +0.000 A 
ATOM     27  C   UNL     1      -0.148 -10.820   1.453  0.00  0.00    +0.004 A 
ENDBRANCH   8  22
BRANCH   1  28
ATOM     28  C   UNL     1      -0.106  -6.561  -2.619  0.00  0.00    +0.129 C 
BRANCH  28  29
ATOM     29  C   UNL     1       1.107  -6.044  -1.844  0.00  0.00    +0.057 C 
BRANCH  29  33
ATOM     30  C   UNL     1       0.777  -1.811  -1.336  0.00  0.00    +0.162 A 
ATOM     31  C   UNL     1       0.243  -2.669  -0.388  0.00  0.00    +0.050 A 
ATOM     32  C   UNL     1       0.352  -4.037  -0.555  0.00  0.00    +0.007 A 
ATOM     33  C   UNL     1       0.992  -4.552  -1.667  0.00  0.00    -0.042 A 
ATOM     34  C   UNL     1       1.526  -3.702  -2.616  0.00  0.00    +0.053 A 
ATOM     35  C   UNL     1       1.416  -2.330  -2.458  0.00  0.00    +0.162 A 
BRANCH  30  36
ATOM     36  O   UNL     1       0.671  -0.465  -1.174  0.00  0.00    -0.489 OA
BRANCH  36  38
ATOM     37  C   UNL     1      -0.019   1.526   0.010  0.00  0.00    +0.048 C 
ATOM     38  C   UNL     1       0.002  -0.004   0.002  0.00  0.00    +0.226 C 
ENDBRANCH  36  38
ENDBRANCH  30  36
BRANCH  35  39
ATOM     39  O   UNL     1       1.936  -1.492  -3.394  0.00  0.00    -0.489 OA
BRANCH  39  40
ATOM     40  C   UNL     1       2.578  -2.095  -4.520  0.00  0.00    +0.226 C 
ATOM     41  C   UNL     1       3.096  -1.002  -5.457  0.00  0.00    +0.048 C 
ENDBRANCH  39  40
ENDBRANCH  35  39
ENDBRANCH  29  33
ENDBRANCH  28  29
ENDBRANCH   1  28
TORSDOF 8
