REMARK  Name = ZINC38681947
REMARK  17 active torsions:
REMARK  status: ('A' for Active; 'I' for Inactive)
REMARK    1  A    between atoms: C_1  and  C_2
REMARK    2  A    between atoms: C_2  and  C_3
REMARK    3  A    between atoms: C_3  and  C_4
REMARK    4  A    between atoms: C_4  and  C_5
REMARK    5  A    between atoms: C_5  and  C_6
REMARK    6  A    between atoms: C_6  and  O_7
REMARK    7  A    between atoms: O_7  and  C_8
REMARK    8  A    between atoms: C_11  and  C_16
REMARK    9  A    between atoms: C_13  and  O_14
REMARK   10  A    between atoms: O_14  and  C_15
REMARK   11  A    between atoms: C_21  and  O_30
REMARK   12  A    between atoms: C_25  and  N_29
REMARK   13  A    between atoms: C_26  and  C_27
REMARK   14  A    between atoms: O_30  and  C_31
REMARK   15  A    between atoms: C_31  and  C_33
REMARK   16  A    between atoms: C_36  and  O_39
REMARK   17  A    between atoms: O_39  and  C_40
REMARK                            x       y       z     vdW  Elec       q    Type
REMARK                         _______ _______ _______ _____ _____    ______ ____
ROOT
ATOM      1  C   UNL     1      -4.768 -10.212   0.021  0.00  0.00    +0.098 C 
ATOM      2  C   UNL     1      -4.147 -10.782  -1.227  0.00  0.00    +0.008 A 
ATOM      3  C   UNL     1      -4.852 -10.743  -2.417  0.00  0.00    +0.012 A 
ATOM      4  C   UNL     1      -4.298 -11.262  -3.571  0.00  0.00    +0.047 A 
ATOM      5  C   UNL     1      -3.030 -11.825  -3.539  0.00  0.00    +0.135 A 
ATOM      6  C   UNL     1      -2.322 -11.866  -2.350  0.00  0.00    +0.093 A 
ATOM      7  C   UNL     1      -2.880 -11.343  -1.190  0.00  0.00    +0.138 A 
ATOM      8  O   UNL     1      -2.173 -11.390  -0.034  0.00  0.00    -0.441 OA
ATOM      9  C   UNL     1      -2.807 -11.261   1.144  0.00  0.00    +0.199 C 
ATOM     10  C   UNL     1      -4.037 -10.710   1.236  0.00  0.00    +0.098 C 
ENDROOT
BRANCH   1  14
ATOM     11  C   UNL     1      -4.542  -5.943  -0.113  0.00  0.00    +0.162 A 
ATOM     12  C   UNL     1      -3.383  -6.703  -0.143  0.00  0.00    +0.050 A 
ATOM     13  C   UNL     1      -3.459  -8.082  -0.100  0.00  0.00    +0.008 A 
ATOM     14  C   UNL     1      -4.690  -8.707  -0.026  0.00  0.00    -0.031 A 
ATOM     15  C   UNL     1      -5.850  -7.956   0.004  0.00  0.00    +0.054 A 
ATOM     16  C   UNL     1      -5.780  -6.573  -0.033  0.00  0.00    +0.162 A 
BRANCH  16  17
ATOM     17  O   UNL     1      -6.920  -5.832   0.003  0.00  0.00    -0.491 OA
ATOM     18  C   UNL     1      -8.155  -6.545   0.085  0.00  0.00    +0.277 C 
ENDBRANCH  16  17
BRANCH  11  19
ATOM     19  O   UNL     1      -4.468  -4.586  -0.155  0.00  0.00    -0.488 OA
BRANCH  19  20
ATOM     20  C   UNL     1      -3.163  -4.009  -0.237  0.00  0.00    +0.229 C 
BRANCH  20  21
ATOM     21  C   UNL     1      -3.282  -2.484  -0.275  0.00  0.00    +0.041 C 
BRANCH  21  22
ATOM     22  C   UNL     1      -1.885  -1.866  -0.362  0.00  0.00    +0.003 C 
BRANCH  22  23
ATOM     23  C   UNL     1      -2.003  -0.341  -0.400  0.00  0.00    -0.000 C 
BRANCH  23  25
ATOM     24  C   UNL     1      -0.724   1.801  -0.525  0.00  0.00    +0.004 C 
ATOM     25  C   UNL     1      -0.606   0.276  -0.488  0.00  0.00    -0.003 C 
ENDBRANCH  23  25
ENDBRANCH  22  23
ENDBRANCH  21  22
ENDBRANCH  20  21
ENDBRANCH  19  20
ENDBRANCH  11  19
ENDBRANCH   1  14
BRANCH   9  26
ATOM     26  N   UNL     1      -2.185 -11.700   2.287  0.00  0.00    -0.328 N 
ATOM     27  H   UNL     1      -1.301 -12.097   2.236  0.00  0.00    +0.145 HD
ATOM     28  H   UNL     1      -2.629 -11.614   3.144  0.00  0.00    +0.145 HD
ENDBRANCH   9  26
BRANCH  10  29
ATOM     29  C   UNL     1      -4.657 -10.600   2.522  0.00  0.00    +0.101 C 
ATOM     30  N   UNL     1      -5.149 -10.513   3.542  0.00  0.00    -0.191 NA
ENDBRANCH  10  29
BRANCH   5  31
ATOM     31  O   UNL     1      -2.484 -12.336  -4.674  0.00  0.00    -0.422 OA
BRANCH  31  32
ATOM     32  C   UNL     1      -2.330 -13.672  -4.757  0.00  0.00    +0.344 C 
ATOM     33  O   UNL     1      -2.770 -14.390  -3.880  0.00  0.00    -0.245 OA
BRANCH  32  34
ATOM     34  C   UNL     1      -1.629 -14.264  -5.911  0.00  0.00    +0.060 A 
ATOM     35  C   UNL     1      -1.117 -13.440  -6.918  0.00  0.00    +0.018 A 
ATOM     36  C   UNL     1      -0.462 -13.997  -7.993  0.00  0.00    +0.046 A 
ATOM     37  C   UNL     1      -0.309 -15.376  -8.079  0.00  0.00    +0.120 A 
ATOM     38  C   UNL     1      -0.817 -16.198  -7.080  0.00  0.00    +0.046 A 
ATOM     39  C   UNL     1      -1.468 -15.650  -5.998  0.00  0.00    +0.018 A 
BRANCH  37  40
ATOM     40  O   UNL     1       0.337 -15.920  -9.140  0.00  0.00    -0.495 OA
ATOM     41  C   UNL     1       0.459 -17.344  -9.165  0.00  0.00    +0.277 C 
ENDBRANCH  37  40
ENDBRANCH  32  34
ENDBRANCH  31  32
ENDBRANCH   5  31
TORSDOF 14
