REMARK  Name = ZINC13501237
REMARK  8 active torsions:
REMARK  status: ('A' for Active; 'I' for Inactive)
REMARK    1  A    between atoms: C_1  and  C_2
REMARK    2  A    between atoms: C_12  and  C_14
REMARK    3  A    between atoms: C_14  and  N_15
REMARK    4  A    between atoms: N_15  and  C_16
REMARK    5  A    between atoms: N_15  and  C_22
REMARK    6  A    between atoms: C_16  and  C_17
REMARK    7  A    between atoms: C_22  and  C_27
REMARK    8  A    between atoms: N_31  and  C_32
REMARK                            x       y       z     vdW  Elec       q    Type
REMARK                         _______ _______ _______ _____ _____    ______ ____
ROOT
ATOM      1  N   UNL     1       1.510  -2.939   5.353  0.00  0.00    -0.279 NA
ENDROOT
BRANCH   1   2
ATOM      2  C   UNL     1       1.553  -3.983   6.385  0.00  0.00    +0.084 C 
ATOM      3  C   UNL     1       0.638  -3.599   7.561  0.00  0.00    +0.030 C 
ATOM      4  C   UNL     1       1.541  -3.498   8.808  0.00  0.00    +0.002 C 
ATOM      5  C   UNL     1       2.952  -3.222   8.233  0.00  0.00    +0.002 C 
ATOM      6  C   UNL     1       2.981  -4.102   6.958  0.00  0.00    +0.030 C 
BRANCH   2   7
ATOM      7  C   UNL     1       1.120  -5.304   5.802  0.00  0.00    +0.172 A 
ATOM      8  N   UNL     1       0.758  -5.531   4.563  0.00  0.00    -0.111 NA
ATOM      9  N   UNL     1       0.461  -6.780   4.458  0.00  0.00    -0.023 NA
ATOM     10  N   UNL     1       0.624  -7.356   5.598  0.00  0.00    -0.044 NA
ATOM     11  N   UNL     1       1.035  -6.480   6.451  0.00  0.00    -0.224 N 
BRANCH  11  12
ATOM     12  C   UNL     1       1.347  -6.719   7.862  0.00  0.00    +0.111 C 
ATOM     13  C   UNL     1       2.471  -7.753   7.968  0.00  0.00    +0.027 C 
ATOM     14  C   UNL     1       2.797  -8.003   9.442  0.00  0.00    +0.002 C 
ATOM     15  C   UNL     1       1.551  -8.529  10.158  0.00  0.00    +0.000 C 
ATOM     16  C   UNL     1       0.428  -7.495  10.052  0.00  0.00    +0.002 C 
ATOM     17  C   UNL     1       0.102  -7.245   8.578  0.00  0.00    +0.027 C 
ENDBRANCH  11  12
ENDBRANCH   2   7
ENDBRANCH   1   2
BRANCH   1  18
ATOM     18  C   UNL     1       2.551  -3.159   4.339  0.00  0.00    +0.126 C 
BRANCH  18  30
ATOM     19  C   UNL     1       1.691   1.286  -0.426  0.00  0.00    +0.046 C 
ATOM     20  C   UNL     1       2.640   1.252   0.744  0.00  0.00    -0.026 A 
ATOM     21  C   UNL     1       3.526   2.289   0.947  0.00  0.00    +0.005 A 
ATOM     22  C   UNL     1       4.405   2.270   2.020  0.00  0.00    +0.001 A 
ATOM     23  C   UNL     1       4.410   1.222   2.896  0.00  0.00    +0.010 A 
ATOM     24  C   UNL     1       3.520   0.159   2.711  0.00  0.00    -0.001 A 
ATOM     25  C   UNL     1       2.623   0.177   1.626  0.00  0.00    +0.052 A 
ATOM     26  N   UNL     1       1.745  -0.871   1.450  0.00  0.00    -0.322 N 
ATOM     27  H   UNL     1       1.130  -0.859   0.700  0.00  0.00    +0.169 HD
ATOM     28  C   UNL     1       1.729  -1.910   2.303  0.00  0.00    +0.254 A 
ATOM     29  O   UNL     1       0.940  -2.820   2.116  0.00  0.00    -0.268 OA
ATOM     30  C   UNL     1       2.603  -1.975   3.409  0.00  0.00    +0.032 A 
ATOM     31  C   UNL     1       3.498  -0.980   3.630  0.00  0.00    +0.020 A 
ENDBRANCH  18  30
ENDBRANCH   1  18
BRANCH   1  32
ATOM     32  C   UNL     1       0.180  -2.865   4.734  0.00  0.00    +0.160 C 
BRANCH  32  33
ATOM     33  C   UNL     1      -0.786  -2.224   5.696  0.00  0.00    +0.119 A 
ATOM     34  C   UNL     1      -0.947  -0.901   5.885  0.00  0.00    +0.046 A 
ATOM     35  C   UNL     1      -1.949  -0.748   6.870  0.00  0.00    +0.041 A 
ATOM     36  C   UNL     1      -2.341  -1.985   7.224  0.00  0.00    +0.195 A 
ATOM     37  O   UNL     1      -1.637  -2.875   6.506  0.00  0.00    -0.467 OA
ENDBRANCH  32  33
ENDBRANCH   1  32
TORSDOF 7
