REMARK  Name = ZINC21976183
REMARK  7 active torsions:
REMARK  status: ('A' for Active; 'I' for Inactive)
REMARK    1  A    between atoms: C_1  and  C_2
REMARK    2  A    between atoms: C_2  and  C_4
REMARK    3  A    between atoms: C_2  and  S_14
REMARK    4  A    between atoms: N_10  and  C_11
REMARK    5  A    between atoms: N_10  and  C_12
REMARK    6  A    between atoms: S_14  and  C_15
REMARK    7  A    between atoms: N_27  and  C_28
REMARK                            x       y       z     vdW  Elec       q    Type
REMARK                         _______ _______ _______ _____ _____    ______ ____
ROOT
ATOM      1  S   UNL     1       0.491   5.949   0.031  0.00  0.00    -0.077 S 
ENDROOT
BRANCH   1   2
ATOM      2  C   UNL     1       0.291   4.198   0.023  0.00  0.00    +0.173 A 
ATOM      3  N   UNL     1       1.357   3.423   0.008  0.00  0.00    -0.216 NA
ATOM      4  C   UNL     1       1.234   2.100   0.002  0.00  0.00    +0.117 A 
ATOM      5  C   UNL     1      -0.018   1.468   0.010  0.00  0.00    +0.076 A 
ATOM      6  C   UNL     1       0.002  -0.004   0.002  0.00  0.00    -0.023 A 
ATOM      7  C   UNL     1       1.208  -0.595  -0.015  0.00  0.00    -0.004 A 
ATOM      8  S   UNL     1       2.377   0.745  -0.018  0.00  0.00    -0.073 S 
ATOM      9  C   UNL     1       1.104  -2.097  -0.026  0.00  0.00    +0.043 C 
ATOM     10  C   UNL     1      -0.354  -2.382  -0.448  0.00  0.00    +0.010 C 
ATOM     11  C   UNL     1      -1.070  -1.097   0.013  0.00  0.00    +0.037 C 
ATOM     12  C   UNL     1      -1.158   2.332   0.020  0.00  0.00    +0.263 A 
ATOM     13  O   UNL     1      -2.285   1.869   0.023  0.00  0.00    -0.267 OA
ATOM     14  N   UNL     1      -0.965   3.664   0.032  0.00  0.00    -0.290 N 
ATOM     15  C   UNL     1      -2.126   4.559   0.047  0.00  0.00    +0.154 C 
ENDBRANCH   1   2
BRANCH   1  17
ATOM     16  C   UNL     1       2.856   5.474   1.313  0.00  0.00    +0.028 C 
ATOM     17  C   UNL     1       2.298   6.059   0.014  0.00  0.00    +0.119 C 
BRANCH  17  18
ATOM     18  C   UNL     1       2.712   7.503  -0.105  0.00  0.00    +0.149 A 
ATOM     19  N   UNL     1       2.114   8.423   0.631  0.00  0.00    -0.198 NA
ATOM     20  C   UNL     1       2.480   9.699   0.531  0.00  0.00    +0.217 A 
ATOM     21  N   UNL     1       3.441  10.048  -0.317  0.00  0.00    -0.181 NA
ATOM     22  C   UNL     1       4.036   9.121  -1.059  0.00  0.00    +0.222 A 
ATOM     23  N   UNL     1       3.668   7.846  -0.950  0.00  0.00    -0.198 NA
ATOM     24  N   UNL     1       5.035   9.478  -1.941  0.00  0.00    -0.306 N 
ATOM     25  C   UNL     1       5.692   8.455  -2.759  0.00  0.00    +0.132 C 
ATOM     26  C   UNL     1       5.440  10.881  -2.060  0.00  0.00    +0.132 C 
ATOM     27  N   UNL     1       1.858  10.658   1.304  0.00  0.00    -0.327 N 
ATOM     28  H   UNL     1       2.162  11.713   1.221  0.00  0.00    +0.145 HD
ATOM     29  H   UNL     1       1.060  10.369   2.003  0.00  0.00    +0.145 HD
ENDBRANCH  17  18
ENDBRANCH   1  17
TORSDOF 3
