REMARK  Name = ZINC05384004
REMARK  5 active torsions:
REMARK  status: ('A' for Active; 'I' for Inactive)
REMARK    1  A    between atoms: C_1  and  C_2
REMARK    2  A    between atoms: C_2  and  C_3
REMARK    3  A    between atoms: C_2  and  C_4
REMARK    4  A    between atoms: C_9  and  C_12
REMARK    5  A    between atoms: C_15  and  N_18
REMARK                            x       y       z     vdW  Elec       q    Type
REMARK                         _______ _______ _______ _____ _____    ______ ____
ROOT
ATOM      1  C   UNL     1       0.707  -0.490  -1.238  0.00  0.00    +0.221 C 
ATOM      2  O   UNL     1       0.120  -1.191  -2.034  0.00  0.00    -0.275 OA
ATOM      3  N   UNL     1       1.991  -0.146  -1.462  0.00  0.00    -0.264 N 
ATOM      4  C   UNL     1       2.642  -0.594  -2.605  0.00  0.00    +0.165 A 
ATOM      5  N   UNL     1       3.882  -0.376  -3.000  0.00  0.00    -0.225 NA
ATOM      6  C   UNL     1       4.344  -0.887  -4.131  0.00  0.00    +0.080 A 
ATOM      7  C   UNL     1       3.519  -1.655  -4.905  0.00  0.00    +0.076 A 
ATOM      8  S   UNL     1       2.023  -1.625  -3.927  0.00  0.00    -0.060 S 
ATOM      9  H   UNL     1       2.461   0.415  -0.825  0.00  0.00    +0.157 HD
ENDROOT
BRANCH   6  10
ATOM     10  C   UNL     1       5.741  -0.628  -4.554  0.00  0.00    +0.001 A 
ATOM     11  C   UNL     1       6.221  -1.163  -5.749  0.00  0.00    +0.012 A 
ATOM     12  C   UNL     1       7.522  -0.918  -6.138  0.00  0.00    +0.033 A 
ATOM     13  C   UNL     1       8.350  -0.144  -5.344  0.00  0.00    +0.126 A 
ATOM     14  C   UNL     1       7.880   0.389  -4.158  0.00  0.00    +0.033 A 
ATOM     15  C   UNL     1       6.578   0.156  -3.762  0.00  0.00    +0.012 A 
BRANCH  13  16
ATOM     16  N   UNL     1       9.746   0.114  -5.766  0.00  0.00    +0.056 N 
ATOM     17  O   UNL     1      10.160  -0.352  -6.802  0.00  0.00    -0.126 OA
ATOM     18  O   UNL     1      10.471   0.789  -5.074  0.00  0.00    -0.126 OA
ENDBRANCH  13  16
ENDBRANCH   6  10
BRANCH   1  20
ATOM     19  C   UNL     1      -0.019   1.526   0.010  0.00  0.00    +0.017 C 
ATOM     20  C   UNL     1       0.002  -0.004   0.002  0.00  0.00    +0.069 C 
ATOM     21  C   UNL     1      -1.433  -0.534   0.013  0.00  0.00    +0.017 C 
ENDBRANCH   1  20
TORSDOF 3
