REMARK  Name = ZINC21722278
REMARK  5 active torsions:
REMARK  status: ('A' for Active; 'I' for Inactive)
REMARK    1  A    between atoms: C_1  and  C_2
REMARK    2  A    between atoms: C_2  and  C_34
REMARK    3  A    between atoms: C_6  and  C_26
REMARK    4  A    between atoms: N_18  and  C_19
REMARK    5  A    between atoms: C_19  and  C_20
REMARK                            x       y       z     vdW  Elec       q    Type
REMARK                         _______ _______ _______ _____ _____    ______ ____
ROOT
ATOM      1  C   UNL     1      -3.870   3.915  -3.466  0.00  0.00    +0.011 C 
ATOM      2  C   UNL     1      -4.651   4.879  -2.570  0.00  0.00    -0.023 C 
ATOM      3  C   UNL     1      -4.370   4.562  -1.102  0.00  0.00    +0.058 C 
ATOM      4  C   UNL     1      -2.885   4.704  -0.816  0.00  0.00    +0.017 C 
ATOM      5  C   UNL     1      -2.148   5.616  -1.474  0.00  0.00    +0.038 C 
ATOM      6  C   UNL     1      -0.673   5.871  -1.278  0.00  0.00    +0.155 C 
ATOM      7  N   UNL     1      -0.099   5.231  -0.112  0.00  0.00    -0.242 N 
ATOM      8  C   UNL     1      -0.037   3.839  -0.012  0.00  0.00    +0.060 A 
ATOM      9  C   UNL     1       1.172   3.164  -0.010  0.00  0.00    +0.025 A 
ATOM     10  C   UNL     1       1.178   1.780   0.000  0.00  0.00    +0.002 A 
ATOM     11  C   UNL     1      -0.013   1.076   0.008  0.00  0.00    +0.002 A 
ATOM     12  C   UNL     1      -1.223   1.748   0.017  0.00  0.00    +0.025 A 
ATOM     13  C   UNL     1      -1.230   3.133   0.031  0.00  0.00    +0.053 A 
ATOM     14  N   UNL     1      -2.403   3.868   0.138  0.00  0.00    -0.316 N 
ATOM     15  C   UNL     1       0.383   5.990   0.892  0.00  0.00    +0.307 C 
ATOM     16  O   UNL     1       0.334   7.203   0.814  0.00  0.00    -0.252 OA
ATOM     17  N   UNL     1       0.919   5.406   1.981  0.00  0.00    -0.296 N 
ATOM     18  C   UNL     1      -2.746   6.436  -2.459  0.00  0.00    +0.163 C 
ATOM     19  O   UNL     1      -2.061   7.267  -3.024  0.00  0.00    -0.292 OA
ATOM     20  C   UNL     1      -4.193   6.319  -2.832  0.00  0.00    +0.086 C 
ATOM     21  C   UNL     1      -6.149   4.751  -2.851  0.00  0.00    +0.011 C 
ATOM     22  H   UNL     1      -2.952   3.734   1.081  0.00  0.00    +0.152 HD
ATOM     23  H   UNL     1       0.964   4.309   2.051  0.00  0.00    +0.150 HD
ENDROOT
BRANCH   6  24
ATOM     24  C   UNL     1       0.062   5.379  -2.498  0.00  0.00    +0.015 A 
ATOM     25  C   UNL     1       0.534   6.086  -3.553  0.00  0.00    +0.013 A 
ATOM     26  C   UNL     1       1.186   5.417  -4.572  0.00  0.00    +0.008 A 
ATOM     27  C   UNL     1       1.335   4.072  -4.485  0.00  0.00    +0.045 A 
ATOM     28  S   UNL     1       0.544   3.713  -2.924  0.00  0.00    -0.099 S 
ENDBRANCH   6  24
BRANCH  17  29
ATOM     29  C   UNL     1       1.443   6.231   3.072  0.00  0.00    +0.137 C 
BRANCH  29  30
ATOM     30  C   UNL     1       1.990   5.327   4.178  0.00  0.00    +0.135 C 
ATOM     31  C   UNL     1       2.485   6.179   5.374  0.00  0.00    +0.035 C 
ATOM     32  C   UNL     1       2.365   5.155   6.536  0.00  0.00    +0.031 C 
ATOM     33  C   UNL     1       1.122   4.337   6.124  0.00  0.00    +0.160 C 
ATOM     34  O   UNL     1       0.942   4.503   4.713  0.00  0.00    -0.375 OA
ENDBRANCH  29  30
ENDBRANCH  17  29
TORSDOF 3
