REMARK  Name = ZINC09160789
REMARK  8 active torsions:
REMARK  status: ('A' for Active; 'I' for Inactive)
REMARK    1  A    between atoms: C_1  and  C_2
REMARK    2  A    between atoms: C_2  and  C_3
REMARK    3  A    between atoms: C_3  and  C_4
REMARK    4  A    between atoms: C_4  and  N_5
REMARK    5  A    between atoms: C_15  and  C_16
REMARK    6  A    between atoms: C_16  and  C_17
REMARK    7  A    between atoms: N_32  and  C_33
REMARK    8  A    between atoms: C_33  and  C_34
REMARK                            x       y       z     vdW  Elec       q    Type
REMARK                         _______ _______ _______ _____ _____    ______ ____
ROOT
ATOM      1  N   UNL     1       0.868  -2.853  -2.596  0.00  0.00    -0.269 N 
ATOM      2  C   UNL     1       0.395  -3.260  -3.845  0.00  0.00    +0.042 A 
ATOM      3  C   UNL     1      -0.905  -3.459  -4.306  0.00  0.00    +0.024 A 
ATOM      4  C   UNL     1      -1.125  -3.869  -5.604  0.00  0.00    +0.002 A 
ATOM      5  C   UNL     1      -0.059  -4.087  -6.458  0.00  0.00    +0.000 A 
ATOM      6  C   UNL     1       1.235  -3.893  -6.008  0.00  0.00    +0.008 A 
ATOM      7  C   UNL     1       1.458  -3.484  -4.713  0.00  0.00    +0.011 A 
ATOM      8  C   UNL     1       2.707  -3.189  -3.924  0.00  0.00    +0.174 C 
ATOM      9  C   UNL     1       2.212  -2.780  -2.561  0.00  0.00    +0.253 C 
ATOM     10  O   UNL     1       2.893  -2.450  -1.613  0.00  0.00    -0.272 OA
ATOM     11  C   UNL     1       3.598  -4.399  -3.842  0.00  0.00    +0.089 C 
ATOM     12  C   UNL     1       4.790  -4.035  -4.376  0.00  0.00    +0.250 C 
ATOM     13  O   UNL     1       5.874  -4.835  -4.494  0.00  0.00    -0.282 OA
ATOM     14  C   UNL     1       4.716  -2.622  -4.808  0.00  0.00    +0.288 C 
ATOM     15  O   UNL     1       5.624  -2.003  -5.325  0.00  0.00    -0.266 OA
ATOM     16  N   UNL     1       3.492  -2.124  -4.543  0.00  0.00    -0.270 N 
ENDROOT
BRANCH  11  17
ATOM     17  C   UNL     1       3.247  -5.713  -3.294  0.00  0.00    +0.196 C 
ATOM     18  O   UNL     1       2.545  -6.472  -3.936  0.00  0.00    -0.287 OA
BRANCH  17  19
ATOM     19  C   UNL     1       3.744  -6.114  -1.964  0.00  0.00    +0.026 A 
ATOM     20  C   UNL     1       4.601  -5.270  -1.251  0.00  0.00    +0.015 A 
ATOM     21  C   UNL     1       5.064  -5.647  -0.011  0.00  0.00    +0.050 A 
ATOM     22  C   UNL     1       4.682  -6.867   0.539  0.00  0.00    +0.162 A 
ATOM     23  C   UNL     1       3.827  -7.712  -0.165  0.00  0.00    +0.163 A 
ATOM     24  C   UNL     1       3.356  -7.337  -1.410  0.00  0.00    +0.061 A 
ATOM     25  O   UNL     1       3.438  -8.905   0.363  0.00  0.00    -0.485 OA
ATOM     26  C   UNL     1       4.219  -9.412   1.450  0.00  0.00    +0.270 C 
ATOM     27  C   UNL     1       4.458  -8.268   2.445  0.00  0.00    +0.270 C 
ATOM     28  O   UNL     1       5.155  -7.220   1.763  0.00  0.00    -0.485 OA
ENDBRANCH  17  19
ENDBRANCH  11  17
BRANCH   1  29
ATOM     29  C   UNL     1       0.002  -2.537  -1.457  0.00  0.00    +0.114 C 
BRANCH  29  30
ATOM     30  C   UNL     1      -0.453  -1.079  -1.553  0.00  0.00    +0.019 C 
BRANCH  30  32
ATOM     31  C   UNL     1      -1.812   0.710  -0.459  0.00  0.00    +0.004 C 
ATOM     32  C   UNL     1      -1.357  -0.748  -0.364  0.00  0.00    -0.002 C 
ENDBRANCH  30  32
ENDBRANCH  29  30
ENDBRANCH   1  29
BRANCH  16  33
ATOM     33  C   UNL     1       3.032  -0.762  -4.824  0.00  0.00    +0.141 C 
BRANCH  33  34
ATOM     34  C   UNL     1       3.326   0.134  -3.620  0.00  0.00    +0.136 C 
ATOM     35  C   UNL     1       2.737   1.541  -3.858  0.00  0.00    +0.035 C 
ATOM     36  C   UNL     1       3.837   2.463  -3.263  0.00  0.00    +0.031 C 
ATOM     37  C   UNL     1       5.114   1.658  -3.608  0.00  0.00    +0.160 C 
ATOM     38  O   UNL     1       4.741   0.277  -3.454  0.00  0.00    -0.375 OA
ENDBRANCH  33  34
ENDBRANCH  16  33
TORSDOF 7
