REMARK  Name = ZINC63385724
REMARK  2 active torsions:
REMARK  status: ('A' for Active; 'I' for Inactive)
REMARK    1  A    between atoms: C_2  and  C_3
REMARK    2  A    between atoms: C_3  and  N_4
REMARK                            x       y       z     vdW  Elec       q    Type
REMARK                         _______ _______ _______ _____ _____    ______ ____
ROOT
ATOM      1  N   UNL     1       1.367  -1.676   1.111  0.00  0.00    -0.265 N 
ATOM      2  C   UNL     1       1.854  -1.351   2.366  0.00  0.00    +0.042 A 
ATOM      3  C   UNL     1       2.377  -0.143   2.829  0.00  0.00    +0.025 A 
ATOM      4  C   UNL     1       2.794  -0.097   4.150  0.00  0.00    +0.017 A 
ATOM      5  C   UNL     1       2.703  -1.193   4.984  0.00  0.00    +0.018 A 
ATOM      6  C   UNL     1       2.185  -2.404   4.534  0.00  0.00    +0.023 A 
ATOM      7  C   UNL     1       1.768  -2.456   3.222  0.00  0.00    +0.006 A 
ATOM      8  C   UNL     1       1.173  -3.566   2.414  0.00  0.00    +0.148 C 
ATOM      9  C   UNL     1       0.940  -2.954   1.050  0.00  0.00    +0.247 C 
ATOM     10  O   UNL     1       0.461  -3.509   0.083  0.00  0.00    -0.273 OA
ATOM     11  C   UNL     1      -0.147  -4.037   3.012  0.00  0.00    +0.140 C 
ATOM     12  C   UNL     1      -0.594  -5.235   2.181  0.00  0.00    -0.035 C 
ATOM     13  C   UNL     1      -1.832  -4.976   1.786  0.00  0.00    -0.001 A 
ATOM     14  C   UNL     1      -2.814  -5.782   1.042  0.00  0.00    +0.010 A 
ATOM     15  C   UNL     1      -4.010  -5.187   0.790  0.00  0.00    +0.001 A 
ATOM     16  C   UNL     1      -4.324  -3.887   1.198  0.00  0.00    +0.002 A 
ATOM     17  C   UNL     1      -3.485  -3.078   1.892  0.00  0.00    +0.026 A 
ATOM     18  C   UNL     1      -2.199  -3.594   2.222  0.00  0.00    +0.043 A 
ATOM     19  N   UNL     1      -1.214  -3.045   2.900  0.00  0.00    -0.375 N 
ATOM     20  C   UNL     1       0.346  -6.375   1.868  0.00  0.00    +0.048 C 
ATOM     21  C   UNL     1       1.654  -5.732   1.372  0.00  0.00    +0.086 C 
ATOM     22  N   UNL     1       2.099  -4.699   2.312  0.00  0.00    -0.297 NA
ATOM     23 BR   UNL     1       3.294  -1.047   6.774  0.00  0.00    -0.050 Br
ATOM     24  H   UNL     1       3.032  -4.385   2.090  0.00  0.00    +0.123 HD
ATOM     25  H   UNL     1      -1.192  -2.144   3.260  0.00  0.00    +0.160 HD
ENDROOT
BRANCH   1  26
ATOM     26  C   UNL     1       1.317  -0.740  -0.015  0.00  0.00    +0.140 C 
BRANCH  26  28
ATOM     27  C   UNL     1      -0.016   1.306   0.009  0.00  0.00    +0.005 C 
ATOM     28  C   UNL     1       0.002  -0.004   0.002  0.00  0.00    -0.015 C 
ENDBRANCH  26  28
ENDBRANCH   1  26
TORSDOF 2
