REMARK  Name = ZINC40383888
REMARK  15 active torsions:
REMARK  status: ('A' for Active; 'I' for Inactive)
REMARK    1  A    between atoms: C_1  and  C_2
REMARK    2  A    between atoms: C_2  and  N_3
REMARK    3  A    between atoms: N_3  and  C_4
REMARK    4  A    between atoms: N_3  and  C_6
REMARK    5  A    between atoms: C_4  and  C_5
REMARK    6  A    between atoms: C_6  and  C_7
REMARK    7  A    between atoms: C_7  and  C_8
REMARK    8  A    between atoms: C_8  and  C_9
REMARK    9  A    between atoms: C_9  and  C_11
REMARK   10  A    between atoms: C_9  and  N_12
REMARK   11  A    between atoms: C_13  and  C_15
REMARK   12  A    between atoms: C_18  and  C_20
REMARK   13  A    between atoms: C_20  and  N_21
REMARK   14  A    between atoms: C_29  and  C_31
REMARK   15  A    between atoms: C_34  and  N_37
REMARK                            x       y       z     vdW  Elec       q    Type
REMARK                         _______ _______ _______ _____ _____    ______ ____
ROOT
ATOM      1  C   UNL     1      -5.484  -2.986   0.660  0.00  0.00    +0.189 A 
ATOM      2  C   UNL     1      -6.794  -2.645   0.843  0.00  0.00    +0.055 A 
ATOM      3  C   UNL     1      -6.972  -2.453   2.222  0.00  0.00    +0.047 A 
ATOM      4  C   UNL     1      -5.779  -2.683   2.813  0.00  0.00    +0.120 A 
ATOM      5  O   UNL     1      -4.886  -3.009   1.870  0.00  0.00    -0.454 OA
ENDROOT
BRANCH   1   7
ATOM      6  N   UNL     1      -3.536  -3.614  -0.664  0.00  0.00    -0.306 N 
ATOM      7  C   UNL     1      -4.842  -3.283  -0.624  0.00  0.00    +0.280 C 
ATOM      8  O   UNL     1      -5.488  -3.230  -1.654  0.00  0.00    -0.267 OA
ATOM      9  H   UNL     1      -3.021  -3.657   0.157  0.00  0.00    +0.149 HD
BRANCH   6  10
ATOM     10  C   UNL     1      -2.895  -3.910  -1.948  0.00  0.00    +0.070 C 
ATOM     11  C   UNL     1      -3.128  -5.379  -2.307  0.00  0.00    +0.028 C 
BRANCH  10  12
ATOM     12  C   UNL     1      -1.392  -3.644  -1.840  0.00  0.00    +0.020 C 
BRANCH  12  13
ATOM     13  C   UNL     1      -1.155  -2.151  -1.603  0.00  0.00    -0.017 C 
BRANCH  13  14
ATOM     14  C   UNL     1       0.348  -1.884  -1.496  0.00  0.00    -0.079 C 
BRANCH  14  15
ATOM     15  N   UNL     1       0.576  -0.451  -1.269  0.00  0.00    +0.379 N 
ATOM     16  H   UNL     1       0.124   0.081  -1.998  0.00  0.00    -0.082 HD
BRANCH  15  18
ATOM     17  C   UNL     1       0.128   1.449   0.210  0.00  0.00    -0.017 C 
ATOM     18  C   UNL     1       0.019  -0.067   0.035  0.00  0.00    -0.082 C 
ENDBRANCH  15  18
BRANCH  15  19
ATOM     19  C   UNL     1       2.019  -0.176  -1.285  0.00  0.00    -0.082 C 
ATOM     20  C   UNL     1       2.573  -0.440  -2.687  0.00  0.00    -0.017 C 
ENDBRANCH  15  19
ENDBRANCH  14  15
ENDBRANCH  13  14
ENDBRANCH  12  13
ENDBRANCH  10  12
ENDBRANCH   6  10
ENDBRANCH   1   7
BRANCH   4  21
ATOM     21  C   UNL     1      -5.500  -2.593   4.292  0.00  0.00    +0.159 C 
BRANCH  21  22
ATOM     22  N   UNL     1      -5.739  -3.901   4.916  0.00  0.00    -0.281 NA
ATOM     23  C   UNL     1      -4.774  -4.898   4.434  0.00  0.00    +0.107 C 
ATOM     24  C   UNL     1      -5.263  -6.308   4.788  0.00  0.00    +0.137 C 
ATOM     25  N   UNL     1      -5.615  -6.327   6.213  0.00  0.00    -0.348 N 
ATOM     26  C   UNL     1      -5.793  -7.407   7.016  0.00  0.00    +0.086 A 
ATOM     27  C   UNL     1      -6.102  -6.965   8.254  0.00  0.00    +0.019 A 
ATOM     28  C   UNL     1      -6.116  -5.555   8.209  0.00  0.00    +0.024 A 
ATOM     29  C   UNL     1      -5.817  -5.192   6.953  0.00  0.00    +0.041 A 
ATOM     30  C   UNL     1      -5.709  -3.798   6.386  0.00  0.00    +0.134 C 
BRANCH  30  31
ATOM     31  C   UNL     1      -6.870  -2.963   6.861  0.00  0.00    -0.024 A 
ATOM     32  C   UNL     1      -8.111  -3.103   6.269  0.00  0.00    +0.008 A 
ATOM     33  C   UNL     1      -9.175  -2.336   6.705  0.00  0.00    +0.033 A 
ATOM     34  C   UNL     1      -8.999  -1.431   7.735  0.00  0.00    +0.126 A 
ATOM     35  C   UNL     1      -7.758  -1.292   8.328  0.00  0.00    +0.033 A 
ATOM     36  C   UNL     1      -6.694  -2.061   7.894  0.00  0.00    +0.008 A 
BRANCH  34  37
ATOM     37  N   UNL     1     -10.139  -0.610   8.202  0.00  0.00    +0.056 N 
ATOM     38  O   UNL     1     -11.224  -0.731   7.683  0.00  0.00    -0.126 OA
ATOM     39  O   UNL     1      -9.984   0.182   9.102  0.00  0.00    -0.126 OA
ENDBRANCH  34  37
ENDBRANCH  30  31
ENDBRANCH  21  22
ENDBRANCH   4  21
TORSDOF 12
