REMARK  Name = ZINC33904228
REMARK  10 active torsions:
REMARK  status: ('A' for Active; 'I' for Inactive)
REMARK    1  A    between atoms: C_1  and  C_2
REMARK    2  A    between atoms: C_2  and  C_3
REMARK    3  A    between atoms: C_6  and  N_9
REMARK    4  A    between atoms: C_14  and  C_32
REMARK    5  A    between atoms: C_17  and  C_22
REMARK    6  A    between atoms: C_17  and  C_29
REMARK    7  A    between atoms: C_22  and  C_23
REMARK    8  A    between atoms: C_35  and  O_38
REMARK    9  A    between atoms: O_38  and  C_39
REMARK   10  A    between atoms: C_39  and  C_41
REMARK                            x       y       z     vdW  Elec       q    Type
REMARK                         _______ _______ _______ _____ _____    ______ ____
ROOT
ATOM      1  N   UNL     1      -5.225  -1.565  -1.290  0.00  0.00    -0.210 N 
ATOM      2  C   UNL     1      -5.583  -1.558   0.035  0.00  0.00    +0.229 C 
ATOM      3  O   UNL     1      -5.060  -0.945   0.941  0.00  0.00    -0.275 OA
ATOM      4  C   UNL     1      -6.722  -2.443   0.110  0.00  0.00    +0.077 C 
ATOM      5  C   UNL     1      -7.850  -2.757   0.998  0.00  0.00    -0.027 C 
ATOM      6  N   UNL     1      -8.824  -3.483   0.117  0.00  0.00    +0.395 N 
ATOM      7  C   UNL     1      -8.278  -3.454  -1.279  0.00  0.00    +0.048 C 
ATOM      8  C   UNL     1      -7.439  -2.158  -1.270  0.00  0.00    +0.086 C 
ATOM      9  C   UNL     1      -6.181  -2.120  -2.093  0.00  0.00    +0.229 C 
ATOM     10  O   UNL     1      -6.043  -2.506  -3.234  0.00  0.00    -0.275 OA
ATOM     11  H   UNL     1      -8.920  -4.439   0.427  0.00  0.00    -0.083 HD
ATOM     12  H   UNL     1      -9.720  -3.021   0.144  0.00  0.00    -0.083 HD
ENDROOT
BRANCH   1  16
ATOM     13  C   UNL     1      -1.617  -0.038  -2.714  0.00  0.00    -0.048 A 
ATOM     14  C   UNL     1      -1.897   0.003  -1.361  0.00  0.00    +0.005 A 
ATOM     15  C   UNL     1      -3.092  -0.502  -0.886  0.00  0.00    +0.024 A 
ATOM     16  C   UNL     1      -4.012  -1.051  -1.769  0.00  0.00    +0.044 A 
ATOM     17  C   UNL     1      -3.728  -1.091  -3.127  0.00  0.00    +0.024 A 
ATOM     18  C   UNL     1      -2.533  -0.580  -3.597  0.00  0.00    +0.005 A 
BRANCH  13  20
ATOM     19  C   UNL     1      -0.483   1.997  -3.563  0.00  0.00    +0.009 C 
ATOM     20  C   UNL     1      -0.312   0.513  -3.229  0.00  0.00    +0.032 C 
ENDBRANCH  13  20
ENDBRANCH   1  16
BRANCH   5  21
ATOM     21  C   UNL     1      -8.465  -1.491   1.536  0.00  0.00    -0.060 A 
ATOM     22  C   UNL     1      -9.347  -0.767   0.757  0.00  0.00    +0.005 A 
ATOM     23  C   UNL     1      -9.912   0.395   1.248  0.00  0.00    +0.046 A 
ATOM     24  C   UNL     1      -9.593   0.833   2.525  0.00  0.00    +0.132 A 
ATOM     25  C   UNL     1      -8.708   0.104   3.305  0.00  0.00    +0.046 A 
ATOM     26  C   UNL     1      -8.150  -1.060   2.811  0.00  0.00    +0.005 A 
BRANCH  24  27
ATOM     27  O   UNL     1     -10.147   1.975   3.010  0.00  0.00    -0.426 OA
BRANCH  27  28
ATOM     28  C   UNL     1     -11.419   1.928   3.436  0.00  0.00    +0.309 C 
ATOM     29  O   UNL     1     -12.065   0.916   3.298  0.00  0.00    -0.251 OA
ATOM     30  C   UNL     1     -12.043   3.137   4.084  0.00  0.00    +0.136 C 
ENDBRANCH  27  28
ENDBRANCH  24  27
ENDBRANCH   5  21
BRANCH   7  31
ATOM     31  C   UNL     1      -9.394  -3.351  -2.287  0.00  0.00    +0.346 C 
ATOM     32  O   UNL     1     -10.554  -3.330  -1.912  0.00  0.00    -0.248 OA
ATOM     33  O   UNL     1      -9.137  -3.288  -3.477  0.00  0.00    -0.248 OA
ENDBRANCH   7  31
BRANCH   7  34
ATOM     34  C   UNL     1      -7.414  -4.687  -1.549  0.00  0.00    +0.003 C 
BRANCH  34  35
ATOM     35  C   UNL     1      -8.316  -5.889  -1.838  0.00  0.00    -0.012 C 
ATOM     36  C   UNL     1      -9.177  -6.187  -0.610  0.00  0.00    +0.003 C 
ATOM     37  C   UNL     1     -10.079  -7.389  -0.898  0.00  0.00    +0.000 C 
ATOM     38  C   UNL     1      -9.214  -8.609  -1.224  0.00  0.00    +0.000 C 
ATOM     39  C   UNL     1      -8.354  -8.310  -2.453  0.00  0.00    +0.000 C 
ATOM     40  C   UNL     1      -7.452  -7.108  -2.164  0.00  0.00    +0.003 C 
ENDBRANCH  34  35
ENDBRANCH   7  34
TORSDOF 8
