REMARK  Name = ZINC29793718
REMARK  7 active torsions:
REMARK  status: ('A' for Active; 'I' for Inactive)
REMARK    1  A    between atoms: C_5  and  C_7
REMARK    2  A    between atoms: C_7  and  C_8
REMARK    3  A    between atoms: C_14  and  C_16
REMARK    4  A    between atoms: C_19  and  S_22
REMARK    5  A    between atoms: S_22  and  N_25
REMARK    6  A    between atoms: N_25  and  C_26
REMARK    7  A    between atoms: C_26  and  C_27
REMARK                            x       y       z     vdW  Elec       q    Type
REMARK                         _______ _______ _______ _____ _____    ______ ____
ROOT
ATOM      1  C   UNL     1       2.888  -8.757  -4.380  0.00  0.00    +0.015 A 
ATOM      2  C   UNL     1       1.687  -8.322  -4.833  0.00  0.00    +0.124 A 
ATOM      3  N   UNL     1       1.350  -7.066  -4.615  0.00  0.00    -0.233 NA
ATOM      4  C   UNL     1       2.157  -6.244  -3.973  0.00  0.00    +0.165 A 
ATOM      5  S   UNL     1       3.519  -7.264  -3.628  0.00  0.00    -0.057 S 
ATOM      6  N   UNL     1       1.968  -4.904  -3.658  0.00  0.00    -0.261 N 
ATOM      7  C   UNL     1       0.830  -4.281  -4.023  0.00  0.00    +0.250 C 
ATOM      8  O   UNL     1      -0.031  -4.890  -4.627  0.00  0.00    -0.270 OA
ATOM      9  H   UNL     1       2.747  -4.353  -3.112  0.00  0.00    +0.157 HD
ENDROOT
BRANCH   7  10
ATOM     10  C   UNL     1       0.629  -2.855  -3.688  0.00  0.00    +0.037 A 
ATOM     11  C   UNL     1      -0.548  -2.206  -4.064  0.00  0.00    +0.015 A 
ATOM     12  C   UNL     1      -0.729  -0.875  -3.749  0.00  0.00    +0.029 A 
ATOM     13  C   UNL     1       0.253  -0.184  -3.061  0.00  0.00    +0.105 A 
ATOM     14  C   UNL     1       1.424  -0.820  -2.691  0.00  0.00    +0.029 A 
ATOM     15  C   UNL     1       1.616  -2.152  -2.995  0.00  0.00    +0.015 A 
BRANCH  13  16
ATOM     16  S   UNL     1       0.013   1.515  -2.662  0.00  0.00    +0.058 S 
ATOM     17  O   UNL     1      -0.926   2.024  -3.599  0.00  0.00    -0.153 OA
ATOM     18  O   UNL     1       1.306   2.080  -2.496  0.00  0.00    -0.153 OA
BRANCH  16  19
ATOM     19  N   UNL     1      -0.721   1.571  -1.179  0.00  0.00    -0.187 NA
ATOM     20  H   UNL     1      -1.792   1.818  -1.118  0.00  0.00    +0.148 HD
BRANCH  19  21
ATOM     21  C   UNL     1      -0.013   1.086   0.008  0.00  0.00    +0.137 C 
BRANCH  21  22
ATOM     22  C   UNL     1      -0.729   1.579   1.267  0.00  0.00    +0.134 C 
ATOM     23  C   UNL     1       0.070   1.185   2.529  0.00  0.00    +0.035 C 
ATOM     24  C   UNL     1      -1.019   0.833   3.567  0.00  0.00    +0.031 C 
ATOM     25  C   UNL     1      -2.346   1.055   2.809  0.00  0.00    +0.160 C 
ATOM     26  O   UNL     1      -2.003   0.915   1.414  0.00  0.00    -0.375 OA
ENDBRANCH  21  22
ENDBRANCH  19  21
ENDBRANCH  16  19
ENDBRANCH  13  16
ENDBRANCH   7  10
BRANCH   1  27
ATOM     27  C   UNL     1       3.520 -10.121  -4.488  0.00  0.00    +0.080 C 
BRANCH  27  32
ATOM     28  C   UNL     1       6.447 -10.112  -6.873  0.00  0.00    +0.000 A 
ATOM     29  C   UNL     1       5.819 -10.346  -8.082  0.00  0.00    +0.001 A 
ATOM     30  C   UNL     1       4.447 -10.508  -8.129  0.00  0.00    +0.020 A 
ATOM     31  C   UNL     1       3.703 -10.440  -6.965  0.00  0.00    +0.044 A 
ATOM     32  C   UNL     1       4.331 -10.200  -5.756  0.00  0.00    -0.024 A 
ATOM     33  C   UNL     1       5.703 -10.039  -5.710  0.00  0.00    +0.005 A 
ATOM     34 CL   UNL     1       1.980 -10.650  -7.022  0.00  0.00    -0.083 Cl
ENDBRANCH  27  32
ENDBRANCH   1  27
TORSDOF 7
