REMARK  Name = ZINC39775637
REMARK  3 active torsions:
REMARK  status: ('A' for Active; 'I' for Inactive)
REMARK    1  A    between atoms: C_3  and  C_9
REMARK    2  A    between atoms: C_4  and  O_8
REMARK    3  A    between atoms: N_10  and  N_11
REMARK                            x       y       z     vdW  Elec       q    Type
REMARK                         _______ _______ _______ _____ _____    ______ ____
ROOT
ATOM      1  N   UNL     1       5.989   2.253  -0.044  0.00  0.00    -0.206 N 
ATOM      2  C   UNL     1       7.193   1.579  -0.059  0.00  0.00    +0.230 C 
ATOM      3  N   UNL     1       8.297   2.288  -0.061  0.00  0.00    -0.330 N 
ATOM      4  C   UNL     1       9.566   1.569  -0.157  0.00  0.00    +0.229 C 
ATOM      5  C   UNL     1       9.330   0.200   0.466  0.00  0.00    +0.115 C 
ATOM      6  C   UNL     1      10.360   0.012   1.337  0.00  0.00    +0.026 A 
ATOM      7  C   UNL     1      10.749  -1.098   2.125  0.00  0.00    +0.027 A 
ATOM      8  C   UNL     1      11.845  -0.950   2.919  0.00  0.00    +0.019 A 
ATOM      9  C   UNL     1      12.602   0.224   3.002  0.00  0.00    +0.017 A 
ATOM     10  C   UNL     1      12.325   1.347   2.288  0.00  0.00    +0.027 A 
ATOM     11  C   UNL     1      11.158   1.276   1.393  0.00  0.00    +0.046 A 
ATOM     12  N   UNL     1      10.667   2.166   0.586  0.00  0.00    -0.359 N 
ATOM     13 BR   UNL     1      12.377  -2.424   3.978  0.00  0.00    -0.050 Br
ATOM     14  N   UNL     1       8.212  -0.489   0.220  0.00  0.00    -0.146 NA
ATOM     15  N   UNL     1       7.168   0.225  -0.066  0.00  0.00    -0.113 NA
ATOM     16  H   UNL     1       5.975   3.223  -0.039  0.00  0.00    +0.177 HD
ATOM     17  H   UNL     1      10.982   3.079   0.492  0.00  0.00    +0.162 HD
ATOM     18  H   UNL     1       8.273   3.256  -0.001  0.00  0.00    +0.165 HD
ENDROOT
BRANCH   1  20
ATOM     19  C   UNL     1       3.652   2.169  -0.022  0.00  0.00    +0.142 C 
ATOM     20  N   UNL     1       4.785   1.535  -0.036  0.00  0.00    -0.187 NA
BRANCH  19  23
ATOM     21  C   UNL     1      -0.017   1.380   0.010  0.00  0.00    +0.002 A 
ATOM     22  C   UNL     1       1.165   2.092   0.002  0.00  0.00    +0.013 A 
ATOM     23  C   UNL     1       2.386   1.414  -0.013  0.00  0.00    +0.037 A 
ATOM     24  C   UNL     1       2.401   0.013  -0.021  0.00  0.00    +0.144 A 
ATOM     25  C   UNL     1       1.205  -0.687  -0.013  0.00  0.00    +0.083 A 
ATOM     26  C   UNL     1       0.002  -0.004   0.002  0.00  0.00    +0.024 A 
ATOM     27 CL   UNL     1       1.216  -2.423  -0.022  0.00  0.00    -0.080 Cl
BRANCH  24  28
ATOM     28  O   UNL     1       3.583  -0.657  -0.036  0.00  0.00    -0.505 OA
ATOM     29  H   UNL     1       3.934  -0.855   0.843  0.00  0.00    +0.292 HD
ENDBRANCH  24  28
ENDBRANCH  19  23
ENDBRANCH   1  20
TORSDOF 3
