REMARK  Name = ZINC08212469
REMARK  8 active torsions:
REMARK  status: ('A' for Active; 'I' for Inactive)
REMARK    1  A    between atoms: C_1  and  C_2
REMARK    2  A    between atoms: C_2  and  O_3
REMARK    3  A    between atoms: O_3  and  C_4
REMARK    4  A    between atoms: C_4  and  C_6
REMARK    5  A    between atoms: C_12  and  C_14
REMARK    6  A    between atoms: C_12  and  C_15
REMARK    7  A    between atoms: C_12  and  N_64
REMARK    8  A    between atoms: N_20  and  C_21
REMARK                            x       y       z     vdW  Elec       q    Type
REMARK                         _______ _______ _______ _____ _____    ______ ____
ROOT
ATOM      1  C   UNL     1      -1.405  -0.526   0.137  0.00  0.00    +0.207 C 
ATOM      2  O   UNL     1      -2.340   0.245   0.139  0.00  0.00    -0.277 OA
ATOM      3  N   UNL     1      -1.624  -1.851   0.254  0.00  0.00    -0.242 N 
ATOM      4  C   UNL     1      -2.882  -2.318   0.375  0.00  0.00    +0.306 C 
ATOM      5  O   UNL     1      -3.820  -1.545   0.377  0.00  0.00    -0.252 OA
ATOM      6  N   UNL     1      -3.101  -3.643   0.493  0.00  0.00    -0.294 N 
ATOM      7  H   UNL     1      -0.876  -2.468   0.253  0.00  0.00    +0.159 HD
ATOM      8  H   UNL     1      -2.353  -4.260   0.491  0.00  0.00    +0.151 HD
ENDROOT
BRANCH   6   9
ATOM      9  C   UNL     1      -4.469  -4.150   0.623  0.00  0.00    +0.037 C 
ATOM     10  C   UNL     1      -5.282  -3.750  -0.610  0.00  0.00    +0.029 C 
ATOM     11  C   UNL     1      -6.711  -4.280  -0.473  0.00  0.00    -0.008 C 
ATOM     12  C   UNL     1      -6.680  -5.805  -0.356  0.00  0.00    +0.007 C 
ATOM     13  C   UNL     1      -5.867  -6.206   0.877  0.00  0.00    -0.008 C 
ATOM     14  C   UNL     1      -4.438  -5.676   0.740  0.00  0.00    +0.029 C 
ATOM     15  C   UNL     1      -6.514  -5.611   2.129  0.00  0.00    +0.007 C 
ATOM     16  C   UNL     1      -6.545  -4.086   2.012  0.00  0.00    -0.008 C 
ATOM     17  C   UNL     1      -7.358  -3.685   0.779  0.00  0.00    +0.007 C 
ATOM     18  C   UNL     1      -5.116  -3.556   1.876  0.00  0.00    +0.029 C 
ENDBRANCH   6   9
BRANCH   1  19
ATOM     19  C   UNL     1       0.002  -0.004   0.002  0.00  0.00    +0.017 C 
ATOM     20  C   UNL     1       0.602   0.210   1.393  0.00  0.00    -0.004 C 
BRANCH  19  26
ATOM     21  C   UNL     1      -0.667   2.458  -2.767  0.00  0.00    +0.081 C 
ATOM     22  C   UNL     1       0.697   3.152  -2.798  0.00  0.00    +0.011 C 
ATOM     23  C   UNL     1       1.226   3.283  -1.367  0.00  0.00    -0.018 C 
ATOM     24  C   UNL     1       1.314   1.894  -0.731  0.00  0.00    -0.078 C 
ATOM     25  C   UNL     1      -0.525   1.093  -2.091  0.00  0.00    -0.063 C 
ATOM     26  N   UNL     1      -0.035   1.290  -0.710  0.00  0.00    +0.388 N 
ATOM     27  H   UNL     1      -0.676   1.923  -0.217  0.00  0.00    -0.081 HD
BRANCH  21  28
ATOM     28  C   UNL     1      -1.169   2.272  -4.176  0.00  0.00    +0.308 C 
ATOM     29  O   UNL     1      -1.391   1.161  -4.596  0.00  0.00    -0.251 OA
BRANCH  28  30
ATOM     30  O   UNL     1      -1.371   3.340  -4.964  0.00  0.00    -0.465 OA
BRANCH  30  32
ATOM     31  C   UNL     1      -2.023   4.413  -7.050  0.00  0.00    +0.048 C 
ATOM     32  C   UNL     1      -1.855   3.085  -6.309  0.00  0.00    +0.229 C 
ENDBRANCH  30  32
ENDBRANCH  28  30
ENDBRANCH  21  28
ENDBRANCH  19  26
ENDBRANCH   1  19
TORSDOF 6
