REMARK  Name = ZINC09248529
REMARK  13 active torsions:
REMARK  status: ('A' for Active; 'I' for Inactive)
REMARK    1  A    between atoms: C_1  and  C_2
REMARK    2  A    between atoms: C_4  and  C_34
REMARK    3  A    between atoms: C_5  and  N_9
REMARK    4  A    between atoms: C_6  and  C_8
REMARK    5  A    between atoms: C_10  and  C_12
REMARK    6  A    between atoms: C_12  and  N_13
REMARK    7  A    between atoms: C_14  and  C_16
REMARK    8  A    between atoms: C_16  and  O_17
REMARK    9  A    between atoms: O_17  and  C_18
REMARK   10  A    between atoms: C_18  and  C_20
REMARK   11  A    between atoms: C_23  and  N_26
REMARK   12  A    between atoms: C_27  and  C_33
REMARK   13  A    between atoms: C_29  and  C_31
REMARK                            x       y       z     vdW  Elec       q    Type
REMARK                         _______ _______ _______ _____ _____    ______ ____
ROOT
ATOM      1  N   UNL     1       5.156   2.084  -1.630  0.00  0.00    -0.304 N 
ATOM      2  C   UNL     1       3.921   2.603  -1.772  0.00  0.00    +0.251 C 
ATOM      3  O   UNL     1       3.596   3.579  -1.130  0.00  0.00    -0.272 OA
ATOM      4  H   UNL     1       5.416   1.303  -2.143  0.00  0.00    +0.149 HD
ENDROOT
BRANCH   1   5
ATOM      5  C   UNL     1       6.107   2.698  -0.700  0.00  0.00    +0.200 C 
BRANCH   5   7
ATOM      6  N   UNL     1       8.432   2.319   0.053  0.00  0.00    -0.284 N 
ATOM      7  C   UNL     1       7.404   1.933  -0.728  0.00  0.00    +0.234 C 
ATOM      8  O   UNL     1       7.523   0.968  -1.454  0.00  0.00    -0.274 OA
ATOM      9  H   UNL     1       8.356   3.121   0.594  0.00  0.00    +0.155 HD
BRANCH   6  14
ATOM     10  C   UNL     1      13.208  -0.740   0.179  0.00  0.00    +0.044 C 
ATOM     11  C   UNL     1      11.940   0.072   0.145  0.00  0.00    -0.050 A 
ATOM     12  C   UNL     1      11.997   1.432  -0.101  0.00  0.00    +0.008 A 
ATOM     13  C   UNL     1      10.836   2.180  -0.132  0.00  0.00    -0.029 A 
ATOM     14  C   UNL     1       9.610   1.565   0.084  0.00  0.00    +0.039 A 
ATOM     15  C   UNL     1       9.556   0.200   0.335  0.00  0.00    -0.029 A 
ATOM     16  C   UNL     1      10.720  -0.543   0.360  0.00  0.00    +0.008 A 
ATOM     17  C   UNL     1       8.228  -0.471   0.575  0.00  0.00    +0.045 C 
ATOM     18  C   UNL     1      10.900   3.661  -0.400  0.00  0.00    +0.045 C 
ENDBRANCH   6  14
ENDBRANCH   5   7
ENDBRANCH   1   5
BRANCH   2  19
ATOM     19  C   UNL     1       2.943   1.971  -2.729  0.00  0.00    +0.328 C 
BRANCH  19  20
ATOM     20  O   UNL     1       1.693   2.709  -2.701  0.00  0.00    -0.452 OA
BRANCH  20  21
ATOM     21  C   UNL     1       0.706   2.270  -3.506  0.00  0.00    +0.340 C 
ATOM     22  O   UNL     1       0.884   1.297  -4.212  0.00  0.00    -0.245 OA
BRANCH  21  23
ATOM     23  C   UNL     1      -0.591   2.974  -3.535  0.00  0.00    +0.059 A 
ATOM     24  C   UNL     1      -0.800   4.090  -2.720  0.00  0.00    +0.017 A 
ATOM     25  C   UNL     1      -2.009   4.747  -2.754  0.00  0.00    +0.028 A 
ATOM     26  C   UNL     1      -3.025   4.296  -3.590  0.00  0.00    +0.066 A 
ATOM     27  C   UNL     1      -2.822   3.183  -4.398  0.00  0.00    +0.028 A 
ATOM     28  C   UNL     1      -1.614   2.523  -4.374  0.00  0.00    +0.017 A 
BRANCH  26  29
ATOM     29  N   UNL     1      -4.253   4.963  -3.618  0.00  0.00    -0.235 N 
ATOM     30  C   UNL     1      -4.869   5.552  -2.558  0.00  0.00    +0.060 A 
ATOM     31  C   UNL     1      -6.030   6.086  -3.004  0.00  0.00    +0.085 A 
ATOM     32  C   UNL     1      -6.133   5.811  -4.373  0.00  0.00    +0.079 A 
ATOM     33  N   UNL     1      -5.072   5.140  -4.741  0.00  0.00    -0.170 NA
ATOM     34  C   UNL     1      -7.273   6.219  -5.271  0.00  0.00    +0.069 C 
ATOM     35 CL   UNL     1      -7.189   6.954  -2.047  0.00  0.00    -0.080 Cl
ATOM     36  C   UNL     1      -4.352   5.603  -1.143  0.00  0.00    +0.067 C 
ENDBRANCH  26  29
ENDBRANCH  21  23
ENDBRANCH  20  21
ENDBRANCH  19  20
ENDBRANCH   2  19
TORSDOF 8
