REMARK  Name = ZINC35483649
REMARK  6 active torsions:
REMARK  status: ('A' for Active; 'I' for Inactive)
REMARK    1  A    between atoms: C_1  and  C_2
REMARK    2  A    between atoms: C_9  and  C_12
REMARK    3  A    between atoms: C_10  and  C_11
REMARK    4  A    between atoms: C_12  and  C_13
REMARK    5  A    between atoms: C_14  and  C_26
REMARK    6  A    between atoms: C_29  and  N_32
REMARK                            x       y       z     vdW  Elec       q    Type
REMARK                         _______ _______ _______ _____ _____    ______ ____
ROOT
ATOM      1  C   UNL     1      -0.326  -0.120   5.507  0.00  0.00    +0.078 C 
ATOM      2  C   UNL     1      -0.566   1.237   4.889  0.00  0.00    +0.152 C 
ATOM      3  N   UNL     1      -0.408   2.214   5.973  0.00  0.00    -0.232 N 
ATOM      4  C   UNL     1      -0.112   1.538   7.098  0.00  0.00    +0.293 C 
ATOM      5  O   UNL     1       0.083   2.046   8.185  0.00  0.00    -0.266 OA
ATOM      6  C   UNL     1      -0.064   0.089   6.819  0.00  0.00    +0.250 C 
ATOM      7  O   UNL     1       0.201  -0.876   7.730  0.00  0.00    -0.282 OA
ATOM      8  C   UNL     1      -0.541   3.590   5.857  0.00  0.00    +0.168 A 
ATOM      9  N   UNL     1      -0.834   4.296   4.786  0.00  0.00    -0.233 NA
ATOM     10  C   UNL     1      -0.925   5.612   4.840  0.00  0.00    +0.120 A 
ATOM     11  C   UNL     1      -0.703   6.196   6.044  0.00  0.00    +0.068 A 
ATOM     12  S   UNL     1      -0.374   4.761   7.055  0.00  0.00    -0.060 S 
ENDROOT
BRANCH   2  13
ATOM     13  C   UNL     1      -1.962   1.310   4.325  0.00  0.00    -0.022 A 
ATOM     14  C   UNL     1      -3.045   1.426   5.175  0.00  0.00    +0.008 A 
ATOM     15  C   UNL     1      -4.325   1.493   4.657  0.00  0.00    +0.033 A 
ATOM     16  C   UNL     1      -4.522   1.443   3.290  0.00  0.00    +0.126 A 
ATOM     17  C   UNL     1      -3.438   1.328   2.440  0.00  0.00    +0.033 A 
ATOM     18  C   UNL     1      -2.157   1.265   2.957  0.00  0.00    +0.008 A 
BRANCH  16  19
ATOM     19  N   UNL     1      -5.892   1.514   2.736  0.00  0.00    +0.056 N 
ATOM     20  O   UNL     1      -6.840   1.614   3.479  0.00  0.00    -0.126 OA
ATOM     21  O   UNL     1      -6.064   1.471   1.540  0.00  0.00    -0.126 OA
ENDBRANCH  16  19
ENDBRANCH   2  13
BRANCH   1  22
ATOM     22  C   UNL     1      -0.372  -1.415   4.821  0.00  0.00    +0.215 C 
ATOM     23  O   UNL     1      -0.789  -1.484   3.679  0.00  0.00    -0.285 OA
BRANCH  22  32
ATOM     24  C   UNL     1       2.076  -3.672   9.272  0.00  0.00    +0.047 C 
ATOM     25  C   UNL     1       1.580  -4.532   8.138  0.00  0.00    -0.008 A 
ATOM     26  C   UNL     1       1.719  -5.883   8.190  0.00  0.00    +0.008 A 
ATOM     27  C   UNL     1       1.251  -6.673   7.126  0.00  0.00    +0.018 A 
ATOM     28  C   UNL     1       0.665  -6.098   6.056  0.00  0.00    +0.093 A 
ATOM     29  N   UNL     1       0.517  -4.740   5.989  0.00  0.00    -0.303 N 
ATOM     30  C   UNL     1       0.959  -3.942   7.015  0.00  0.00    +0.141 A 
ATOM     31  N   UNL     1       0.696  -2.682   6.713  0.00  0.00    -0.224 NA
ATOM     32  C   UNL     1       0.086  -2.635   5.514  0.00  0.00    +0.133 A 
ATOM     33  C   UNL     1      -0.026  -3.925   5.043  0.00  0.00    +0.051 A 
ATOM     34  C   UNL     1      -0.645  -4.353   3.738  0.00  0.00    +0.066 C 
ENDBRANCH  22  32
ENDBRANCH   1  22
TORSDOF 4
