REMARK  Name = ZINC59422518
REMARK  8 active torsions:
REMARK  status: ('A' for Active; 'I' for Inactive)
REMARK    1  A    between atoms: C_1  and  C_2
REMARK    2  A    between atoms: N_5  and  S_11
REMARK    3  A    between atoms: C_7  and  C_10
REMARK    4  A    between atoms: S_11  and  C_14
REMARK    5  A    between atoms: C_16  and  N_28
REMARK    6  A    between atoms: C_19  and  N_20
REMARK    7  A    between atoms: N_20  and  C_21
REMARK    8  A    between atoms: N_20  and  C_22
REMARK                            x       y       z     vdW  Elec       q    Type
REMARK                         _______ _______ _______ _____ _____    ______ ____
ROOT
ATOM      1  C   UNL     1      -1.011  -3.282  -2.339  0.00  0.00    +0.129 A 
ATOM      2  C   UNL     1      -0.512  -4.472  -2.833  0.00  0.00    +0.063 A 
ATOM      3  C   UNL     1       0.197  -4.486  -4.020  0.00  0.00    +0.128 A 
ATOM      4  C   UNL     1       0.408  -3.310  -4.717  0.00  0.00    +0.034 A 
ATOM      5  C   UNL     1      -0.088  -2.117  -4.229  0.00  0.00    +0.027 A 
ATOM      6  C   UNL     1      -0.805  -2.101  -3.039  0.00  0.00    +0.056 A 
ENDROOT
BRANCH   1   7
ATOM      7  S   UNL     1      -1.914  -3.266  -0.826  0.00  0.00    +0.063 S 
ATOM      8  O   UNL     1      -3.141  -2.601  -1.092  0.00  0.00    -0.153 OA
ATOM      9  O   UNL     1      -1.012  -2.826   0.180  0.00  0.00    -0.153 OA
BRANCH   7  13
ATOM     10  C   UNL     1      -0.428  -7.878   0.790  0.00  0.00    +0.039 C 
ATOM     11  C   UNL     1      -1.126  -6.960  -0.216  0.00  0.00    +0.131 C 
ATOM     12  C   UNL     1      -1.464  -5.625   0.458  0.00  0.00    +0.140 C 
ATOM     13  N   UNL     1      -2.295  -4.836  -0.466  0.00  0.00    -0.172 NA
ATOM     14  C   UNL     1      -3.475  -5.485  -1.059  0.00  0.00    +0.140 C 
ATOM     15  C   UNL     1      -3.039  -6.827  -1.659  0.00  0.00    +0.131 C 
ATOM     16  O   UNL     1      -2.332  -7.578  -0.669  0.00  0.00    -0.371 OA
ATOM     17  C   UNL     1      -4.273  -7.609  -2.112  0.00  0.00    +0.039 C 
ENDBRANCH   7  13
ENDBRANCH   1   7
BRANCH   3  18
ATOM     18  N   UNL     1       0.731  -5.762  -4.547  0.00  0.00    +0.056 N 
ATOM     19  O   UNL     1       0.547  -6.790  -3.938  0.00  0.00    -0.126 OA
ATOM     20  O   UNL     1       1.350  -5.776  -5.585  0.00  0.00    -0.126 OA
ENDBRANCH   3  18
BRANCH   6  21
ATOM     21  N   UNL     1      -1.314  -0.897  -2.545  0.00  0.00    -0.328 N 
ATOM     22  C   UNL     1      -2.602  -0.393  -3.028  0.00  0.00    +0.129 C 
BRANCH  21  23
ATOM     23  C   UNL     1      -0.559  -0.139  -1.544  0.00  0.00    +0.073 C 
ATOM     24  C   UNL     1      -1.450   0.128  -0.329  0.00  0.00    +0.022 C 
ATOM     25  C   UNL     1      -0.661   0.920   0.717  0.00  0.00    +0.002 C 
ATOM     26  C   UNL     1      -0.209   2.251   0.114  0.00  0.00    +0.000 C 
ATOM     27  C   UNL     1       0.681   1.984  -1.101  0.00  0.00    +0.002 C 
ATOM     28  C   UNL     1      -0.107   1.192  -2.147  0.00  0.00    +0.022 C 
ENDBRANCH  21  23
ENDBRANCH   6  21
TORSDOF 5
