REMARK  Name = ZINC45946621
REMARK  7 active torsions:
REMARK  status: ('A' for Active; 'I' for Inactive)
REMARK    1  A    between atoms: C_1  and  C_2
REMARK    2  A    between atoms: C_2  and  N_3
REMARK    3  A    between atoms: C_9  and  C_11
REMARK    4  A    between atoms: C_13  and  C_16
REMARK    5  A    between atoms: N_19  and  C_31
REMARK    6  A    between atoms: N_22  and  C_24
REMARK    7  A    between atoms: C_27  and  C_30
REMARK                            x       y       z     vdW  Elec       q    Type
REMARK                         _______ _______ _______ _____ _____    ______ ____
ROOT
ATOM      1  C   UNL     1      -5.503  -4.426  -0.524  0.00  0.00    +0.314 A 
ATOM      2  N   UNL     1      -5.857  -5.312  -1.420  0.00  0.00    -0.182 NA
ATOM      3  C   UNL     1      -5.276  -6.492  -1.155  0.00  0.00    +0.228 A 
ATOM      4  N   UNL     1      -4.538  -6.367  -0.076  0.00  0.00    -0.054 NA
ATOM      5  O   UNL     1      -4.670  -5.018   0.349  0.00  0.00    -0.328 OA
ENDROOT
BRANCH   1  12
ATOM      6  N   UNL     1      -5.839  -0.900   3.017  0.00  0.00    +0.382 N 
ATOM      7  C   UNL     1      -5.731  -2.364   3.003  0.00  0.00    -0.060 C 
ATOM      8  C   UNL     1      -4.959  -2.807   1.756  0.00  0.00    +0.089 C 
ATOM      9  N   UNL     1      -5.618  -2.236   0.572  0.00  0.00    -0.297 N 
ATOM     10  C   UNL     1      -5.913  -0.794   0.570  0.00  0.00    +0.089 C 
ATOM     11  C   UNL     1      -6.641  -0.447   1.873  0.00  0.00    -0.060 C 
ATOM     12  C   UNL     1      -5.941  -3.010  -0.482  0.00  0.00    +0.304 C 
ATOM     13  O   UNL     1      -6.592  -2.549  -1.399  0.00  0.00    -0.265 OA
ATOM     14  H   UNL     1      -4.916  -0.496   2.959  0.00  0.00    -0.082 HD
BRANCH   6  16
ATOM     15  C   UNL     1      -5.587  -0.831   5.452  0.00  0.00    -0.017 C 
ATOM     16  C   UNL     1      -6.483  -0.469   4.265  0.00  0.00    -0.082 C 
ENDBRANCH   6  16
ENDBRANCH   1  12
BRANCH   3  17
ATOM     17  C   UNL     1      -5.439  -7.733  -1.949  0.00  0.00    +0.196 A 
ATOM     18  C   UNL     1      -4.750  -8.972  -1.552  0.00  0.00    +0.286 A 
ATOM     19  O   UNL     1      -4.038  -8.993  -0.565  0.00  0.00    -0.265 OA
ATOM     20  N   UNL     1      -4.920 -10.084  -2.296  0.00  0.00    -0.261 N 
ATOM     21  C   UNL     1      -5.709 -10.054  -3.386  0.00  0.00    +0.353 A 
ATOM     22  O   UNL     1      -5.853 -11.064  -4.047  0.00  0.00    -0.244 OA
ATOM     23  N   UNL     1      -6.342  -8.927  -3.757  0.00  0.00    -0.181 N 
ATOM     24  N   UNL     1      -6.205  -7.747  -3.016  0.00  0.00    -0.153 NA
ATOM     25  C   UNL     1      -4.243 -11.327  -1.919  0.00  0.00    +0.157 C 
BRANCH  23  26
ATOM     26  C   UNL     1      -7.154  -8.935  -4.896  0.00  0.00    +0.071 A 
ATOM     27  C   UNL     1      -8.175  -9.870  -5.016  0.00  0.00    +0.028 A 
ATOM     28  C   UNL     1      -8.975  -9.875  -6.142  0.00  0.00    +0.005 A 
ATOM     29  C   UNL     1      -8.761  -8.951  -7.149  0.00  0.00    -0.050 A 
ATOM     30  C   UNL     1      -7.746  -8.020  -7.032  0.00  0.00    +0.005 A 
ATOM     31  C   UNL     1      -6.946  -8.005  -5.907  0.00  0.00    +0.028 A 
ATOM     32  C   UNL     1      -9.636  -8.960  -8.375  0.00  0.00    +0.044 C 
ENDBRANCH  23  26
ENDBRANCH   3  17
TORSDOF 4
