REMARK  Name = ZINC09087929
REMARK  9 active torsions:
REMARK  status: ('A' for Active; 'I' for Inactive)
REMARK    1  A    between atoms: C_1  and  C_2
REMARK    2  A    between atoms: C_2  and  C_3
REMARK    3  A    between atoms: C_3  and  C_4
REMARK    4  A    between atoms: C_11  and  N_32
REMARK    5  A    between atoms: C_12  and  C_30
REMARK    6  A    between atoms: C_13  and  C_15
REMARK    7  A    between atoms: C_20  and  O_21
REMARK    8  A    between atoms: O_21  and  C_22
REMARK    9  A    between atoms: C_22  and  C_23
REMARK                            x       y       z     vdW  Elec       q    Type
REMARK                         _______ _______ _______ _____ _____    ______ ____
ROOT
ATOM      1  C   UNL     1       0.762  -2.018   1.233  0.00  0.00    +0.044 A 
ATOM      2  C   UNL     1       1.657  -2.794   0.604  0.00  0.00    +0.049 A 
ATOM      3  C   UNL     1       1.319  -4.143   0.851  0.00  0.00    +0.245 A 
ATOM      4  N   UNL     1       0.256  -4.160   1.602  0.00  0.00    -0.135 NA
ATOM      5  N   UNL     1      -0.115  -2.832   1.864  0.00  0.00    -0.278 N 
ATOM      6  H   UNL     1      -0.870  -2.547   2.402  0.00  0.00    +0.189 HD
ATOM      7  O   UNL     1       2.048  -5.173   0.345  0.00  0.00    -0.421 OA
ATOM      8  C   UNL     1       3.257  -4.882  -0.175  0.00  0.00    +0.201 C 
ATOM      9  C   UNL     1       3.685  -3.636  -0.464  0.00  0.00    +0.098 C 
ATOM     10  C   UNL     1       2.844  -2.404  -0.240  0.00  0.00    +0.105 C 
ENDROOT
BRANCH  10  11
ATOM     11  C   UNL     1       2.371  -1.863  -1.564  0.00  0.00    +0.008 A 
ATOM     12  C   UNL     1       1.611  -2.655  -2.403  0.00  0.00    +0.028 A 
ATOM     13  C   UNL     1       1.176  -2.158  -3.619  0.00  0.00    +0.041 A 
ATOM     14  C   UNL     1       1.503  -0.868  -3.998  0.00  0.00    +0.023 A 
ATOM     15  C   UNL     1       2.263  -0.073  -3.162  0.00  0.00    +0.047 A 
ATOM     16  C   UNL     1       2.695  -0.567  -1.940  0.00  0.00    +0.125 A 
ATOM     17 CL   UNL     1       0.221  -3.155  -4.671  0.00  0.00    -0.084 Cl
BRANCH  16  18
ATOM     18  O   UNL     1       3.438   0.215  -1.113  0.00  0.00    -0.487 OA
BRANCH  18  19
ATOM     19  C   UNL     1       3.732   1.539  -1.565  0.00  0.00    +0.264 C 
BRANCH  19  20
ATOM     20  C   UNL     1       4.558   2.252  -0.525  0.00  0.00    -0.010 A 
ATOM     21  C   UNL     1       3.936   2.974   0.476  0.00  0.00    +0.007 A 
ATOM     22  C   UNL     1       4.694   3.628   1.429  0.00  0.00    +0.000 A 
ATOM     23  C   UNL     1       6.074   3.559   1.382  0.00  0.00    +0.000 A 
ATOM     24  C   UNL     1       6.696   2.835   0.382  0.00  0.00    +0.000 A 
ATOM     25  C   UNL     1       5.938   2.178  -0.569  0.00  0.00    +0.007 A 
ENDBRANCH  19  20
ENDBRANCH  18  19
ENDBRANCH  16  18
ENDBRANCH  10  11
BRANCH   8  26
ATOM     26  N   UNL     1       4.112  -5.926  -0.427  0.00  0.00    -0.328 N 
ATOM     27  H   UNL     1       3.838  -6.835  -0.231  0.00  0.00    +0.145 HD
ATOM     28  H   UNL     1       4.990  -5.754  -0.801  0.00  0.00    +0.145 HD
ENDBRANCH   8  26
BRANCH   9  29
ATOM     29  C   UNL     1       5.000  -3.475  -1.010  0.00  0.00    +0.101 C 
ATOM     30  N   UNL     1       6.042  -3.347  -1.442  0.00  0.00    -0.191 NA
ENDBRANCH   9  29
BRANCH   1  31
ATOM     31  C   UNL     1       0.742  -0.511   1.242  0.00  0.00    +0.055 C 
BRANCH  31  33
ATOM     32  C   UNL     1      -0.019   1.526   0.010  0.00  0.00    +0.004 C 
ATOM     33  C   UNL     1       0.002  -0.004   0.002  0.00  0.00    +0.003 C 
ENDBRANCH  31  33
ENDBRANCH   1  31
TORSDOF 8
