REMARK  Name = ZINC00940703
REMARK  4 active torsions:
REMARK  status: ('A' for Active; 'I' for Inactive)
REMARK    1  A    between atoms: C_1  and  C_2
REMARK    2  A    between atoms: C_3  and  C_24
REMARK    3  A    between atoms: C_4  and  C_19
REMARK    4  A    between atoms: C_10  and  C_12
REMARK                            x       y       z     vdW  Elec       q    Type
REMARK                         _______ _______ _______ _____ _____    ______ ____
ROOT
ATOM      1  C   UNL     1       0.540   1.415   0.152  0.00  0.00    +0.066 C 
ATOM      2  C   UNL     1       0.289  -0.064   0.009  0.00  0.00    +0.052 C 
ATOM      3  C   UNL     1      -0.999  -0.514  -0.060  0.00  0.00    +0.062 C 
ATOM      4  C   UNL     1      -1.204  -2.012  -0.204  0.00  0.00    +0.170 C 
ATOM      5  N   UNL     1       0.015  -2.827  -0.255  0.00  0.00    -0.207 N 
ATOM      6  C   UNL     1       1.237  -2.204  -0.170  0.00  0.00    +0.237 C 
ATOM      7  N   UNL     1       1.325  -0.887  -0.051  0.00  0.00    -0.218 NA
ATOM      8  N   UNL     1       2.180  -3.156  -0.239  0.00  0.00    -0.196 NA
ATOM      9  C   UNL     1       1.623  -4.345  -0.362  0.00  0.00    +0.147 C 
ATOM     10  N   UNL     1       0.261  -4.197  -0.377  0.00  0.00    -0.244 N 
ATOM     11  H   UNL     1      -0.400  -4.903  -0.457  0.00  0.00    +0.172 HD
ENDROOT
BRANCH   9  12
ATOM     12  C   UNL     1       2.348  -5.625  -0.466  0.00  0.00    +0.035 A 
ATOM     13  C   UNL     1       1.641  -6.824  -0.599  0.00  0.00    +0.013 A 
ATOM     14  C   UNL     1       2.326  -8.017  -0.696  0.00  0.00    +0.001 A 
ATOM     15  C   UNL     1       3.710  -8.030  -0.662  0.00  0.00    +0.001 A 
ATOM     16  C   UNL     1       4.417  -6.849  -0.531  0.00  0.00    +0.021 A 
ATOM     17  C   UNL     1       3.746  -5.645  -0.438  0.00  0.00    +0.051 A 
ATOM     18 CL   UNL     1       4.635  -4.163  -0.281  0.00  0.00    -0.083 Cl
ENDBRANCH   9  12
BRANCH   4  19
ATOM     19  C   UNL     1      -1.983  -2.260  -1.470  0.00  0.00    +0.017 A 
ATOM     20  C   UNL     1      -1.558  -2.212  -2.757  0.00  0.00    +0.013 A 
ATOM     21  C   UNL     1      -2.459  -2.480  -3.770  0.00  0.00    +0.008 A 
ATOM     22  C   UNL     1      -3.741  -2.782  -3.448  0.00  0.00    +0.045 A 
ATOM     23  S   UNL     1      -3.702  -2.700  -1.665  0.00  0.00    -0.099 S 
ENDBRANCH   4  19
BRANCH   3  24
ATOM     24  C   UNL     1      -2.090   0.373  -0.000  0.00  0.00    +0.241 C 
ATOM     25  O   UNL     1      -1.897   1.576   0.011  0.00  0.00    -0.271 OA
ATOM     26  N   UNL     1      -3.348  -0.108   0.045  0.00  0.00    -0.325 N 
ATOM     27  H   UNL     1      -3.499  -1.064   0.108  0.00  0.00    +0.145 HD
ATOM     28  H   UNL     1      -4.102   0.501   0.015  0.00  0.00    +0.145 HD
ENDBRANCH   3  24
TORSDOF 3
