REMARK  Name = ZINC67202238
REMARK  5 active torsions:
REMARK  status: ('A' for Active; 'I' for Inactive)
REMARK    1  A    between atoms: C_6  and  C_7
REMARK    2  A    between atoms: N_9  and  C_10
REMARK    3  A    between atoms: C_10  and  C_11
REMARK    4  A    between atoms: N_16  and  C_17
REMARK    5  A    between atoms: C_17  and  C_18
REMARK                            x       y       z     vdW  Elec       q    Type
REMARK                         _______ _______ _______ _____ _____    ______ ____
ROOT
ATOM      1  C   UNL     1      -0.961  -0.432   0.153  0.00  0.00    +0.244 C 
ATOM      2  O   UNL     1      -0.832  -1.641   0.144  0.00  0.00    -0.270 OA
ATOM      3  N   UNL     1      -2.192   0.114   0.118  0.00  0.00    -0.313 N 
ATOM      4  H   UNL     1      -2.295   1.079   0.126  0.00  0.00    +0.149 HD
ENDROOT
BRANCH   1  10
ATOM      5  C   UNL     1       0.084   1.826   0.213  0.00  0.00    +0.017 A 
ATOM      6  C   UNL     1       1.197   2.639   0.260  0.00  0.00    +0.048 A 
ATOM      7  C   UNL     1       2.465   2.079   0.297  0.00  0.00    +0.142 A 
ATOM      8  C   UNL     1       2.619   0.690   0.286  0.00  0.00    +0.076 A 
ATOM      9  C   UNL     1       1.509  -0.129   0.240  0.00  0.00    +0.040 A 
ATOM     10  C   UNL     1       0.231   0.437   0.203  0.00  0.00    +0.039 A 
ATOM     11  N   UNL     1       3.910   0.144   0.323  0.00  0.00    -0.280 N 
ATOM     12  C   UNL     1       4.945   0.934   0.683  0.00  0.00    +0.255 C 
ATOM     13  O   UNL     1       6.075   0.491   0.693  0.00  0.00    -0.272 OA
ATOM     14  C   UNL     1       4.691   2.368   1.071  0.00  0.00    +0.325 C 
ATOM     15  O   UNL     1       3.568   2.872   0.344  0.00  0.00    -0.481 OA
ATOM     16  H   UNL     1       4.058  -0.787   0.093  0.00  0.00    +0.155 HD
ENDBRANCH   1  10
BRANCH   3  17
ATOM     17  C   UNL     1      -3.375  -0.749   0.069  0.00  0.00    +0.089 C 
BRANCH  17  18
ATOM     18  C   UNL     1      -4.637   0.117   0.037  0.00  0.00    -0.051 C 
ATOM     19  C   UNL     1      -5.889  -0.776   0.156  0.00  0.00    -0.016 C 
ATOM     20  C   UNL     1      -6.233  -0.698   1.667  0.00  0.00    -0.020 C 
ATOM     21  C   UNL     1      -5.853   0.767   1.998  0.00  0.00    -0.078 C 
ATOM     22  N   UNL     1      -4.642   1.038   1.188  0.00  0.00    +0.383 N 
ATOM     23  H   UNL     1      -3.817   0.887   1.748  0.00  0.00    -0.081 HD
BRANCH  22  24
ATOM     24  C   UNL     1      -4.665   2.427   0.710  0.00  0.00    -0.075 C 
BRANCH  24  25
ATOM     25  C   UNL     1      -4.531   3.379   1.900  0.00  0.00    -0.028 C 
ATOM     26  C   UNL     1      -4.695   4.822   1.420  0.00  0.00    +0.002 C 
ATOM     27  C   UNL     1      -4.561   5.774   2.610  0.00  0.00    +0.000 C 
ATOM     28  C   UNL     1      -3.181   5.602   3.248  0.00  0.00    +0.000 C 
ATOM     29  C   UNL     1      -3.017   4.159   3.728  0.00  0.00    +0.000 C 
ATOM     30  C   UNL     1      -3.151   3.207   2.538  0.00  0.00    +0.002 C 
ENDBRANCH  24  25
ENDBRANCH  22  24
ENDBRANCH  17  18
ENDBRANCH   3  17
TORSDOF 5
