REMARK  Name = ZINC02339704
REMARK  9 active torsions:
REMARK  status: ('A' for Active; 'I' for Inactive)
REMARK    1  A    between atoms: C_1  and  C_2
REMARK    2  A    between atoms: C_6  and  C_8
REMARK    3  A    between atoms: C_8  and  O_9
REMARK    4  A    between atoms: O_9  and  C_10
REMARK    5  A    between atoms: C_13  and  C_16
REMARK    6  A    between atoms: N_17  and  N_18
REMARK    7  A    between atoms: C_19  and  C_21
REMARK    8  A    between atoms: C_22  and  C_32
REMARK    9  A    between atoms: C_32  and  N_33
REMARK                            x       y       z     vdW  Elec       q    Type
REMARK                         _______ _______ _______ _____ _____    ______ ____
ROOT
ATOM      1  N   UNL     1       3.604  -6.790   9.308  0.00  0.00    -0.202 N 
ATOM      2  C   UNL     1       4.855  -7.030   9.749  0.00  0.00    +0.285 C 
ATOM      3  O   UNL     1       5.812  -6.640   9.106  0.00  0.00    -0.267 OA
ATOM      4  H   UNL     1       2.842  -7.101   9.820  0.00  0.00    +0.178 HD
ENDROOT
BRANCH   2   5
ATOM      5  C   UNL     1       5.065  -7.765  11.010  0.00  0.00    +0.170 A 
ATOM      6  C   UNL     1       6.275  -8.066  11.567  0.00  0.00    +0.063 A 
ATOM      7  N   UNL     1       6.021  -8.741  12.711  0.00  0.00    -0.194 N 
ATOM      8  N   UNL     1       4.627  -8.835  12.824  0.00  0.00    -0.058 NA
ATOM      9  N   UNL     1       4.096  -8.246  11.809  0.00  0.00    -0.124 NA
ATOM     10  C   UNL     1       6.967  -9.248  13.608  0.00  0.00    +0.240 A 
ATOM     11  C   UNL     1       6.672  -9.982  14.842  0.00  0.00    +0.206 A 
ATOM     12  N   UNL     1       7.803 -10.294  15.414  0.00  0.00    -0.032 NA
ATOM     13  O   UNL     1       8.851  -9.792  14.605  0.00  0.00    -0.239 OA
ATOM     14  N   UNL     1       8.261  -9.152  13.487  0.00  0.00    -0.027 NA
ATOM     15  N   UNL     1       5.404 -10.294  15.320  0.00  0.00    -0.337 N 
ATOM     16  H   UNL     1       4.618 -10.020  14.824  0.00  0.00    +0.144 HD
ATOM     17  H   UNL     1       5.307 -10.786  16.150  0.00  0.00    +0.144 HD
BRANCH   6  18
ATOM     18  C   UNL     1       7.632  -7.715  11.013  0.00  0.00    -0.020 C 
BRANCH  18  19
ATOM     19  N   UNL     1       8.096  -8.796  10.134  0.00  0.00    +0.383 N 
ATOM     20  C   UNL     1       8.294 -10.017  10.924  0.00  0.00    -0.078 C 
ATOM     21  C   UNL     1       8.700 -11.167  10.000  0.00  0.00    -0.019 C 
ATOM     22  C   UNL     1      10.004 -10.803   9.284  0.00  0.00    -0.004 C 
ATOM     23  C   UNL     1       9.808  -9.489   8.523  0.00  0.00    -0.019 C 
ATOM     24  C   UNL     1       9.361  -8.401   9.502  0.00  0.00    -0.078 C 
ATOM     25  H   UNL     1       7.404  -8.968   9.420  0.00  0.00    -0.081 HD
ENDBRANCH  18  19
ENDBRANCH   6  18
ENDBRANCH   2   5
BRANCH   1  27
ATOM     26  C   UNL     1       2.201  -5.862   7.685  0.00  0.00    +0.138 C 
ATOM     27  N   UNL     1       3.406  -6.092   8.110  0.00  0.00    -0.187 NA
BRANCH  26  31
ATOM     28  C   UNL     1       1.599  -3.745   4.054  0.00  0.00    +0.121 A 
ATOM     29  C   UNL     1       0.505  -4.190   4.786  0.00  0.00    +0.046 A 
ATOM     30  C   UNL     1       0.696  -4.878   5.965  0.00  0.00    +0.013 A 
ATOM     31  C   UNL     1       1.992  -5.127   6.424  0.00  0.00    -0.005 A 
ATOM     32  C   UNL     1       3.089  -4.677   5.685  0.00  0.00    +0.013 A 
ATOM     33  C   UNL     1       2.889  -3.995   4.504  0.00  0.00    +0.046 A 
BRANCH  28  34
ATOM     34  O   UNL     1       1.406  -3.067   2.893  0.00  0.00    -0.487 OA
BRANCH  34  35
ATOM     35  C   UNL     1       0.054  -2.845   2.489  0.00  0.00    +0.264 C 
BRANCH  35  41
ATOM     36  C   UNL     1      -0.018   1.503   0.010  0.00  0.00    +0.044 C 
ATOM     37  C   UNL     1       0.002  -0.004   0.002  0.00  0.00    -0.050 A 
ATOM     38  C   UNL     1       0.006  -0.689  -1.199  0.00  0.00    +0.003 A 
ATOM     39  C   UNL     1       0.025  -2.071  -1.207  0.00  0.00    +0.001 A 
ATOM     40  C   UNL     1       0.040  -2.768  -0.013  0.00  0.00    +0.007 A 
ATOM     41  C   UNL     1       0.037  -2.084   1.188  0.00  0.00    -0.010 A 
ATOM     42  C   UNL     1       0.023  -0.702   1.195  0.00  0.00    +0.010 A 
ENDBRANCH  35  41
ENDBRANCH  34  35
ENDBRANCH  28  34
ENDBRANCH  26  31
ENDBRANCH   1  27
TORSDOF 8
