REMARK  Name = ZINC36647954
REMARK  11 active torsions:
REMARK  status: ('A' for Active; 'I' for Inactive)
REMARK    1  A    between atoms: C_1  and  C_2
REMARK    2  A    between atoms: C_2  and  C_3
REMARK    3  A    between atoms: N_12  and  C_13
REMARK    4  A    between atoms: C_13  and  C_14
REMARK    5  A    between atoms: C_14  and  C_15
REMARK    6  A    between atoms: C_15  and  N_16
REMARK    7  A    between atoms: N_16  and  C_17
REMARK    8  A    between atoms: N_16  and  C_18
REMARK    9  A    between atoms: C_19  and  C_21
REMARK   10  A    between atoms: N_26  and  S_28
REMARK   11  A    between atoms: S_28  and  C_31
REMARK                            x       y       z     vdW  Elec       q    Type
REMARK                         _______ _______ _______ _____ _____    ______ ____
ROOT
ATOM      1  C   UNL     1       0.640  -0.681  -1.095  0.00  0.00    -0.021 A 
ATOM      2  C   UNL     1      -0.126  -0.883  -2.214  0.00  0.00    +0.006 A 
ATOM      3  C   UNL     1       0.436  -0.903  -3.482  0.00  0.00    +0.001 A 
ATOM      4  C   UNL     1       1.798  -0.715  -3.623  0.00  0.00    +0.017 A 
ATOM      5  C   UNL     1       2.573  -0.512  -2.508  0.00  0.00    +0.041 A 
ATOM      6  C   UNL     1       2.035  -0.479  -1.201  0.00  0.00    +0.083 A 
ATOM      7  N   UNL     1       2.924  -0.264  -0.208  0.00  0.00    -0.224 NA
ATOM      8  C   UNL     1       4.206  -0.090  -0.434  0.00  0.00    +0.168 A 
ATOM      9  S   UNL     1       4.303  -0.234  -2.213  0.00  0.00    -0.052 S 
ATOM     10  N   UNL     1       5.225   0.139   0.476  0.00  0.00    -0.250 N 
ATOM     11  C   UNL     1       4.950   0.207   1.794  0.00  0.00    +0.226 C 
ATOM     12  O   UNL     1       3.826  -0.016   2.191  0.00  0.00    -0.275 OA
ENDROOT
BRANCH  11  13
ATOM     13  C   UNL     1       6.038   0.561   2.774  0.00  0.00    +0.091 C 
ATOM     14  C   UNL     1       6.986  -0.630   2.937  0.00  0.00    +0.015 C 
ATOM     15  C   UNL     1       8.110  -0.261   3.907  0.00  0.00    +0.018 C 
ATOM     16  C   UNL     1       7.509   0.070   5.277  0.00  0.00    +0.109 C 
ATOM     17  N   UNL     1       6.491   1.115   5.106  0.00  0.00    -0.175 NA
ATOM     18  C   UNL     1       5.414   0.901   4.131  0.00  0.00    +0.122 C 
BRANCH  17  19
ATOM     19  S   UNL     1       6.557   2.510   5.998  0.00  0.00    +0.067 S 
ATOM     20  O   UNL     1       5.233   3.025   6.043  0.00  0.00    -0.152 OA
ATOM     21  O   UNL     1       7.297   2.206   7.172  0.00  0.00    -0.152 OA
BRANCH  19  22
ATOM     22  C   UNL     1       7.517   3.669   5.082  0.00  0.00    +0.143 A 
ATOM     23  C   UNL     1       7.110   4.580   4.166  0.00  0.00    +0.036 A 
ATOM     24  C   UNL     1       8.051   5.396   3.567  0.00  0.00    +0.010 A 
ATOM     25  C   UNL     1       9.354   5.261   3.915  0.00  0.00    +0.047 A 
ATOM     26  S   UNL     1       9.279   3.953   5.128  0.00  0.00    -0.077 S 
ENDBRANCH  19  22
ENDBRANCH  17  19
ENDBRANCH  11  13
BRANCH   1  28
ATOM     27  C   UNL     1      -0.338   0.775   0.658  0.00  0.00    +0.009 C 
ATOM     28  C   UNL     1      -0.014  -0.667   0.263  0.00  0.00    +0.034 C 
ENDBRANCH   1  28
BRANCH  10  29
ATOM     29  C   UNL     1       6.602   0.307   0.006  0.00  0.00    +0.114 C 
BRANCH  29  30
ATOM     30  C   UNL     1       6.824   1.762  -0.414  0.00  0.00    +0.001 C 
BRANCH  30  31
ATOM     31  C   UNL     1       8.263   1.937  -0.904  0.00  0.00    -0.078 C 
BRANCH  31  32
ATOM     32  N   UNL     1       8.476   3.334  -1.307  0.00  0.00    +0.376 N 
ATOM     33  C   UNL     1       9.887   3.530  -1.665  0.00  0.00    -0.097 C 
ATOM     34  C   UNL     1       7.629   3.643  -2.467  0.00  0.00    -0.097 C 
ATOM     35  H   UNL     1       8.234   3.945  -0.542  0.00  0.00    -0.083 HD
ENDBRANCH  31  32
ENDBRANCH  30  31
ENDBRANCH  29  30
ENDBRANCH  10  29
TORSDOF 8
