REMARK  Name = ZINC10751120
REMARK  9 active torsions:
REMARK  status: ('A' for Active; 'I' for Inactive)
REMARK    1  A    between atoms: C_1  and  C_2
REMARK    2  A    between atoms: C_2  and  O_3
REMARK    3  A    between atoms: O_3  and  C_4
REMARK    4  A    between atoms: C_4  and  C_6
REMARK    5  A    between atoms: C_10  and  N_11
REMARK    6  A    between atoms: C_12  and  C_14
REMARK    7  A    between atoms: N_19  and  S_21
REMARK    8  A    between atoms: S_21  and  C_24
REMARK    9  A    between atoms: C_32  and  N_59
REMARK                            x       y       z     vdW  Elec       q    Type
REMARK                         _______ _______ _______ _____ _____    ______ ____
ROOT
ATOM      1  N   UNL     1       0.585  -0.664  -1.018  0.00  0.00    -0.279 N 
ATOM      2  C   UNL     1       0.002  -0.004   0.002  0.00  0.00    +0.222 C 
ATOM      3  O   UNL     1      -0.506  -0.622   0.913  0.00  0.00    -0.275 OA
ATOM      4  H   UNL     1       0.992  -0.170  -1.747  0.00  0.00    +0.155 HD
ENDROOT
BRANCH   1   9
ATOM      5  C   UNL     1       1.146  -2.901  -1.981  0.00  0.00    +0.091 A 
ATOM      6  C   UNL     1       1.034  -4.329  -1.746  0.00  0.00    -0.025 A 
ATOM      7  C   UNL     1       0.394  -4.678  -0.607  0.00  0.00    -0.021 A 
ATOM      8  S   UNL     1      -0.050  -3.143   0.151  0.00  0.00    -0.079 S 
ATOM      9  C   UNL     1       0.604  -2.050  -1.026  0.00  0.00    +0.086 A 
ATOM     10  C   UNL     1       0.134  -6.071  -0.126  0.00  0.00    -0.036 C 
ATOM     11  C   UNL     1       1.651  -6.720  -1.899  0.00  0.00    -0.074 C 
ATOM     12  C   UNL     1       1.575  -5.405  -2.680  0.00  0.00    +0.018 C 
ATOM     13  C   UNL     1       0.288  -8.395  -0.804  0.00  0.00    -0.096 C 
ATOM     14  N   UNL     1       0.343  -6.992  -1.268  0.00  0.00    +0.381 N 
ATOM     15  H   UNL     1      -0.400  -6.841  -1.961  0.00  0.00    -0.082 HD
BRANCH   5  16
ATOM     16  C   UNL     1       1.808  -2.377  -3.178  0.00  0.00    +0.342 C 
ATOM     17  O   UNL     1       3.003  -2.151  -3.162  0.00  0.00    -0.245 OA
BRANCH  16  18
ATOM     18  O   UNL     1       1.092  -2.147  -4.298  0.00  0.00    -0.461 OA
BRANCH  18  20
ATOM     19  C   UNL     1       0.843  -1.431  -6.612  0.00  0.00    +0.048 C 
ATOM     20  C   UNL     1       1.814  -1.628  -5.446  0.00  0.00    +0.229 C 
ENDBRANCH  18  20
ENDBRANCH  16  18
ENDBRANCH   5  16
ENDBRANCH   1   9
BRANCH   2  21
ATOM     21  C   UNL     1      -0.018   1.503   0.010  0.00  0.00    +0.091 C 
ATOM     22  C   UNL     1      -0.760   2.010  -1.228  0.00  0.00    +0.015 C 
ATOM     23  C   UNL     1      -0.753   3.541  -1.238  0.00  0.00    +0.018 C 
ATOM     24  C   UNL     1      -1.480   4.059   0.008  0.00  0.00    +0.109 C 
ATOM     25  N   UNL     1      -0.863   3.460   1.199  0.00  0.00    -0.175 NA
ATOM     26  C   UNL     1      -0.737   1.998   1.270  0.00  0.00    +0.122 C 
BRANCH  25  27
ATOM     27  S   UNL     1      -0.319   4.414   2.438  0.00  0.00    +0.067 S 
ATOM     28  O   UNL     1      -1.046   5.633   2.361  0.00  0.00    -0.152 OA
ATOM     29  O   UNL     1      -0.313   3.603   3.604  0.00  0.00    -0.152 OA
BRANCH  27  30
ATOM     30  C   UNL     1       1.363   4.809   2.091  0.00  0.00    +0.143 A 
ATOM     31  C   UNL     1       1.868   5.859   1.398  0.00  0.00    +0.036 A 
ATOM     32  C   UNL     1       3.238   5.968   1.250  0.00  0.00    +0.010 A 
ATOM     33  C   UNL     1       4.037   5.022   1.804  0.00  0.00    +0.047 A 
ATOM     34  S   UNL     1       2.845   3.935   2.569  0.00  0.00    -0.077 S 
ENDBRANCH  27  30
ENDBRANCH  25  27
ENDBRANCH   2  21
TORSDOF 7
