REMARK  Name = ZINC62297417
REMARK  8 active torsions:
REMARK  status: ('A' for Active; 'I' for Inactive)
REMARK    1  A    between atoms: C_1  and  C_2
REMARK    2  A    between atoms: C_2  and  N_3
REMARK    3  A    between atoms: C_4  and  C_10
REMARK    4  A    between atoms: C_5  and  C_8
REMARK    5  A    between atoms: C_10  and  O_11
REMARK    6  A    between atoms: O_11  and  C_12
REMARK    7  A    between atoms: C_13  and  C_19
REMARK    8  A    between atoms: C_17  and  C_18
REMARK                            x       y       z     vdW  Elec       q    Type
REMARK                         _______ _______ _______ _____ _____    ______ ____
ROOT
ATOM      1  C   UNL     1      -1.696  -0.640   2.540  0.00  0.00    +0.286 C 
ENDROOT
BRANCH   1   3
ATOM      2  N   UNL     1      -1.372  -0.511   0.012  0.00  0.00    -0.245 N 
ATOM      3  C   UNL     1      -2.116  -0.789   1.101  0.00  0.00    +0.107 A 
ATOM      4  C   UNL     1      -3.337  -1.238   0.641  0.00  0.00    +0.151 A 
ATOM      5  N   UNL     1      -3.310  -1.224  -0.705  0.00  0.00    -0.126 NA
ATOM      6  N   UNL     1      -2.166  -0.793  -1.108  0.00  0.00    -0.065 NA
BRANCH   2   8
ATOM      7  C   UNL     1      -0.019   1.526   0.010  0.00  0.00    +0.029 C 
ATOM      8  C   UNL     1       0.002  -0.004   0.002  0.00  0.00    +0.142 C 
ENDBRANCH   2   8
BRANCH   4   9
ATOM      9  C   UNL     1      -4.469  -1.659   1.475  0.00  0.00    +0.282 C 
ATOM     10  O   UNL     1      -5.498  -2.037   0.955  0.00  0.00    -0.294 OA
ENDBRANCH   4   9
ENDBRANCH   1   3
BRANCH   1  11
ATOM     11  O   UNL     1      -2.029   0.671   3.000  0.00  0.00    -0.485 OA
BRANCH  11  12
ATOM     12  C   UNL     1      -1.714   0.972   4.288  0.00  0.00    +0.127 A 
ATOM     13  C   UNL     1      -2.627   0.722   5.302  0.00  0.00    -0.009 A 
ATOM     14  C   UNL     1      -2.305   1.028   6.610  0.00  0.00    +0.007 A 
ATOM     15  C   UNL     1      -1.075   1.583   6.909  0.00  0.00    +0.001 A 
ATOM     16  C   UNL     1      -0.163   1.833   5.900  0.00  0.00    +0.007 A 
ATOM     17  C   UNL     1      -0.478   1.523   4.591  0.00  0.00    -0.009 A 
ATOM     18  C   UNL     1       0.518   1.790   3.492  0.00  0.00    +0.047 C 
ATOM     19  C   UNL     1      -3.969   0.118   4.977  0.00  0.00    +0.047 C 
ENDBRANCH  11  12
ENDBRANCH   1  11
TORSDOF 5
