REMARK  Name = ZINC64518014
REMARK  7 active torsions:
REMARK  status: ('A' for Active; 'I' for Inactive)
REMARK    1  A    between atoms: C_1  and  C_2
REMARK    2  A    between atoms: C_8  and  C_10
REMARK    3  A    between atoms: C_10  and  C_11
REMARK    4  A    between atoms: C_11  and  C_12
REMARK    5  A    between atoms: C_14  and  C_17
REMARK    6  A    between atoms: C_17  and  S_18
REMARK    7  A    between atoms: S_18  and  C_19
REMARK                            x       y       z     vdW  Elec       q    Type
REMARK                         _______ _______ _______ _____ _____    ______ ____
ROOT
ATOM      1  C   UNL     1      -5.989  -5.200   0.001  0.00  0.00    +0.228 A 
ATOM      2  N   UNL     1      -6.430  -5.827   1.056  0.00  0.00    -0.195 NA
ATOM      3  C   UNL     1      -7.175  -6.876   0.690  0.00  0.00    +0.182 A 
ATOM      4  N   UNL     1      -7.216  -6.930  -0.611  0.00  0.00    -0.060 NA
ATOM      5  O   UNL     1      -6.448  -5.834  -1.085  0.00  0.00    -0.338 OA
ENDROOT
BRANCH   1   6
ATOM      6  C   UNL     1      -5.117  -3.971   0.004  0.00  0.00    +0.108 C 
BRANCH   6   7
ATOM      7  C   UNL     1      -3.646  -4.389  -0.006  0.00  0.00    +0.105 C 
BRANCH   7  15
ATOM      8  C   UNL     1      -0.018   1.503   0.010  0.00  0.00    +0.089 C 
ATOM      9  C   UNL     1       0.002  -0.004   0.002  0.00  0.00    +0.136 A 
ATOM     10  C   UNL     1      -1.076  -0.808   0.003  0.00  0.00    +0.091 A 
ATOM     11  C   UNL     1      -0.625  -2.147  -0.007  0.00  0.00    +0.168 A 
ATOM     12  N   UNL     1       0.683  -2.130  -0.013  0.00  0.00    -0.063 NA
ATOM     13  O   UNL     1       1.100  -0.776  -0.013  0.00  0.00    -0.358 OA
ATOM     14  N   UNL     1      -1.432  -3.285  -0.010  0.00  0.00    -0.268 N 
ATOM     15  C   UNL     1      -2.774  -3.159  -0.003  0.00  0.00    +0.219 C 
ATOM     16  O   UNL     1      -3.280  -2.057   0.006  0.00  0.00    -0.275 OA
ATOM     17  H   UNL     1      -1.027  -4.166  -0.017  0.00  0.00    +0.156 HD
ENDBRANCH   7  15
ENDBRANCH   6   7
ENDBRANCH   1   6
BRANCH   3  18
ATOM     18  C   UNL     1      -7.854  -7.839   1.629  0.00  0.00    +0.152 C 
BRANCH  18  19
ATOM     19  S   UNL     1      -9.522  -7.237   2.010  0.00  0.00    -0.107 S 
BRANCH  19  20
ATOM     20  C   UNL     1     -10.195  -8.491   3.135  0.00  0.00    +0.236 C 
ATOM     21  N   UNL     1     -10.176  -9.809   2.489  0.00  0.00    -0.355 N 
ATOM     22  C   UNL     1      -9.421 -10.586   3.209  0.00  0.00    +0.061 A 
ATOM     23  C   UNL     1      -9.024 -11.995   3.076  0.00  0.00    +0.029 A 
ATOM     24  C   UNL     1      -8.210 -12.547   3.998  0.00  0.00    +0.022 A 
ATOM     25  C   UNL     1      -7.714 -11.825   5.101  0.00  0.00    +0.043 A 
ATOM     26  C   UNL     1      -8.016 -10.527   5.315  0.00  0.00    +0.047 A 
ATOM     27  C   UNL     1      -8.897  -9.823   4.374  0.00  0.00    +0.062 A 
ATOM     28  N   UNL     1      -9.350  -8.602   4.330  0.00  0.00    -0.355 N 
ATOM     29 CL   UNL     1      -6.672 -12.636   6.228  0.00  0.00    -0.083 Cl
ATOM     30  H   UNL     1     -10.642 -10.056   1.674  0.00  0.00    +0.162 HD
ATOM     31  H   UNL     1      -9.162  -7.895   4.968  0.00  0.00    +0.162 HD
ENDBRANCH  19  20
ENDBRANCH  18  19
ENDBRANCH   3  18
TORSDOF 6
