REMARK  Name = ZINC00494077
REMARK  4 active torsions:
REMARK  status: ('A' for Active; 'I' for Inactive)
REMARK    1  A    between atoms: C_1  and  C_2
REMARK    2  A    between atoms: C_7  and  N_8
REMARK    3  A    between atoms: C_14  and  C_21
REMARK    4  A    between atoms: N_19  and  C_20
REMARK                            x       y       z     vdW  Elec       q    Type
REMARK                         _______ _______ _______ _____ _____    ______ ____
ROOT
ATOM      1  N   UNL     1       0.025  -0.015   2.417  0.00  0.00    -0.262 N 
ATOM      2  C   UNL     1      -1.158   0.394   3.189  0.00  0.00    +0.165 C 
ATOM      3  C   UNL     1      -0.602   1.098   4.407  0.00  0.00    +0.042 C 
ATOM      4  C   UNL     1       0.740   1.062   4.285  0.00  0.00    +0.058 C 
ATOM      5  C   UNL     1       1.108   0.393   3.101  0.00  0.00    +0.251 C 
ATOM      6  O   UNL     1       2.258   0.211   2.742  0.00  0.00    -0.270 OA
ATOM      7  C   UNL     1       1.564   1.706   5.383  0.00  0.00    +0.142 C 
ATOM      8  N   UNL     1       0.824   2.321   6.498  0.00  0.00    -0.288 N 
ATOM      9  C   UNL     1      -0.523   2.276   6.477  0.00  0.00    +0.307 C 
ATOM     10  O   UNL     1      -1.142   2.781   7.393  0.00  0.00    -0.252 OA
ATOM     11  N   UNL     1      -1.201   1.692   5.481  0.00  0.00    -0.260 N 
ATOM     12  C   UNL     1      -2.664   1.693   5.545  0.00  0.00    +0.139 C 
ATOM     13  H   UNL     1       1.295   2.748   7.230  0.00  0.00    +0.151 HD
ENDROOT
BRANCH   1  20
ATOM     14  C   UNL     1      -0.018   1.503   0.010  0.00  0.00    +0.045 C 
ATOM     15  C   UNL     1       0.002  -0.004   0.002  0.00  0.00    -0.029 A 
ATOM     16  C   UNL     1       0.006  -0.689  -1.198  0.00  0.00    +0.005 A 
ATOM     17  C   UNL     1       0.025  -2.071  -1.206  0.00  0.00    +0.000 A 
ATOM     18  C   UNL     1       0.041  -2.773  -0.014  0.00  0.00    +0.002 A 
ATOM     19  C   UNL     1       0.037  -2.095   1.188  0.00  0.00    +0.024 A 
ATOM     20  C   UNL     1       0.023  -0.706   1.200  0.00  0.00    +0.040 A 
ENDBRANCH   1  20
BRANCH   7  21
ATOM     21  C   UNL     1       2.477   0.654   5.956  0.00  0.00    -0.023 A 
ATOM     22  C   UNL     1       1.990  -0.260   6.872  0.00  0.00    +0.006 A 
ATOM     23  C   UNL     1       2.828  -1.226   7.398  0.00  0.00    +0.000 A 
ATOM     24  C   UNL     1       4.153  -1.278   7.008  0.00  0.00    +0.000 A 
ATOM     25  C   UNL     1       4.640  -0.364   6.092  0.00  0.00    +0.000 A 
ATOM     26  C   UNL     1       3.801   0.598   5.563  0.00  0.00    +0.006 A 
ENDBRANCH   7  21
TORSDOF 2
