REMARK  Name = ZINC54440423
REMARK  3 active torsions:
REMARK  status: ('A' for Active; 'I' for Inactive)
REMARK    1  A    between atoms: C_1  and  N_2
REMARK    2  A    between atoms: C_3  and  C_15
REMARK    3  A    between atoms: C_18  and  N_21
REMARK                            x       y       z     vdW  Elec       q    Type
REMARK                         _______ _______ _______ _____ _____    ______ ____
ROOT
ATOM      1  C   UNL     1      -0.018   1.461   0.010  0.00  0.00    +0.134 C 
ATOM      2  N   UNL     1       0.002  -0.004   0.002  0.00  0.00    -0.278 N 
ATOM      3  C   UNL     1      -1.262  -0.739   0.004  0.00  0.00    +0.192 C 
ATOM      4  N   UNL     1      -1.105  -2.020   0.705  0.00  0.00    -0.321 N 
ATOM      5  C   UNL     1       0.022  -2.788   0.439  0.00  0.00    +0.042 A 
ATOM      6  C   UNL     1       0.007  -4.168   0.531  0.00  0.00    +0.043 A 
ATOM      7  C   UNL     1       1.156  -4.886   0.250  0.00  0.00    +0.043 A 
ATOM      8  C   UNL     1       2.322  -4.232  -0.121  0.00  0.00    +0.021 A 
ATOM      9  C   UNL     1       2.354  -2.856  -0.215  0.00  0.00    +0.016 A 
ATOM     10  C   UNL     1       1.204  -2.122   0.067  0.00  0.00    +0.058 A 
ATOM     11  C   UNL     1       1.186  -0.650  -0.013  0.00  0.00    +0.250 C 
ATOM     12  O   UNL     1       2.227  -0.025  -0.087  0.00  0.00    -0.270 OA
ATOM     13 CL   UNL     1       1.139  -6.618   0.365  0.00  0.00    -0.083 Cl
ATOM     14  H   UNL     1      -1.774  -2.323   1.339  0.00  0.00    +0.148 HD
ENDROOT
BRANCH   3  15
ATOM     15  C   UNL     1      -1.690  -1.001  -1.417  0.00  0.00    -0.009 A 
ATOM     16  C   UNL     1      -1.335  -0.118  -2.419  0.00  0.00    +0.009 A 
ATOM     17  C   UNL     1      -1.727  -0.358  -3.723  0.00  0.00    +0.033 A 
ATOM     18  C   UNL     1      -2.473  -1.482  -4.025  0.00  0.00    +0.126 A 
ATOM     19  C   UNL     1      -2.827  -2.366  -3.023  0.00  0.00    +0.033 A 
ATOM     20  C   UNL     1      -2.432  -2.128  -1.720  0.00  0.00    +0.009 A 
BRANCH  18  21
ATOM     21  N   UNL     1      -2.894  -1.738  -5.420  0.00  0.00    +0.056 N 
ATOM     22  O   UNL     1      -2.584  -0.965  -6.297  0.00  0.00    -0.126 OA
ATOM     23  O   UNL     1      -3.546  -2.721  -5.684  0.00  0.00    -0.126 OA
ENDBRANCH  18  21
ENDBRANCH   3  15
TORSDOF 2
