REMARK  Name = ZINC22210268
REMARK  3 active torsions:
REMARK  status: ('A' for Active; 'I' for Inactive)
REMARK    1  A    between atoms: C_8  and  N_13
REMARK    2  A    between atoms: N_13  and  C_14
REMARK    3  A    between atoms: C_14  and  C_15
REMARK                            x       y       z     vdW  Elec       q    Type
REMARK                         _______ _______ _______ _____ _____    ______ ____
ROOT
ATOM      1  C   UNL     1      -0.017   1.378   0.010  0.00  0.00    +0.003 A 
ATOM      2  C   UNL     1       1.164   2.092   0.002  0.00  0.00    +0.024 A 
ATOM      3  C   UNL     1       2.386   1.424  -0.013  0.00  0.00    +0.040 A 
ATOM      4  C   UNL     1       2.393   0.034  -0.021  0.00  0.00    +0.014 A 
ATOM      5  C   UNL     1       1.213  -0.676  -0.014  0.00  0.00    +0.025 A 
ATOM      6  C   UNL     1       0.002  -0.004   0.002  0.00  0.00    +0.016 A 
ATOM      7 BR   UNL     1       1.247  -2.567  -0.025  0.00  0.00    -0.050 Br
ATOM      8  C   UNL     1       3.845  -0.384  -0.037  0.00  0.00    +0.175 C 
ATOM      9  C   UNL     1       4.605   0.925  -0.037  0.00  0.00    +0.239 C 
ATOM     10  O   UNL     1       5.811   1.058  -0.047  0.00  0.00    -0.273 OA
ATOM     11  N   UNL     1       3.693   1.912  -0.023  0.00  0.00    -0.284 N 
ATOM     12  H   UNL     1       3.918   2.856  -0.020  0.00  0.00    +0.155 HD
ENDROOT
BRANCH   8  13
ATOM     13  N   UNL     1       4.145  -1.157  -1.250  0.00  0.00    -0.294 NA
ATOM     14  H   UNL     1       3.337  -1.677  -1.556  0.00  0.00    +0.123 HD
BRANCH  13  15
ATOM     15  C   UNL     1       5.294  -2.046  -1.036  0.00  0.00    +0.178 C 
BRANCH  15  16
ATOM     16  C   UNL     1       5.571  -2.820  -2.299  0.00  0.00    +0.224 C 
ATOM     17  O   UNL     1       4.879  -2.648  -3.280  0.00  0.00    -0.275 OA
ATOM     18  N   UNL     1       6.588  -3.704  -2.338  0.00  0.00    -0.328 N 
ATOM     19  H   UNL     1       7.142  -3.842  -1.554  0.00  0.00    +0.145 HD
ATOM     20  H   UNL     1       6.766  -4.202  -3.151  0.00  0.00    +0.145 HD
ENDBRANCH  15  16
ENDBRANCH  13  15
ENDBRANCH   8  13
TORSDOF 3
