REMARK  Name = ZINC09314842
REMARK  6 active torsions:
REMARK  status: ('A' for Active; 'I' for Inactive)
REMARK    1  A    between atoms: C_1  and  C_2
REMARK    2  A    between atoms: C_2  and  C_3
REMARK    3  A    between atoms: C_2  and  C_4
REMARK    4  A    between atoms: C_4  and  C_6
REMARK    5  A    between atoms: C_4  and  N_22
REMARK    6  A    between atoms: N_8  and  C_9
REMARK                            x       y       z     vdW  Elec       q    Type
REMARK                         _______ _______ _______ _____ _____    ______ ____
ROOT
ATOM      1  C   UNL     1       5.931   2.892  -0.041  0.00  0.00    +0.161 C 
ENDROOT
BRANCH   1   2
ATOM      2  N   UNL     1       4.824   1.933  -0.033  0.00  0.00    -0.316 N 
ATOM      3  C   UNL     1       3.522   2.384  -0.025  0.00  0.00    +0.150 C 
ATOM      4  N   UNL     1       3.269   3.654  -0.025  0.00  0.00    -0.113 NA
ATOM      5  S   UNL     1       1.601   3.787  -0.014  0.00  0.00    +0.101 S 
ATOM      6  O   UNL     1       1.218   4.336   1.240  0.00  0.00    -0.146 OA
ATOM      7  O   UNL     1       1.202   4.335  -1.263  0.00  0.00    -0.146 OA
ATOM      8  C   UNL     1       1.159   2.071  -0.011  0.00  0.00    +0.123 A 
ATOM      9  C   UNL     1       2.404   1.428  -0.018  0.00  0.00    +0.043 A 
ATOM     10  C   UNL     1       2.405   0.025  -0.016  0.00  0.00    +0.013 A 
ATOM     11  C   UNL     1       1.217  -0.671  -0.006  0.00  0.00    +0.001 A 
ATOM     12  C   UNL     1       0.003  -0.008   0.001  0.00  0.00    +0.002 A 
ATOM     13  C   UNL     1      -0.017   1.380  -0.001  0.00  0.00    +0.030 A 
ATOM     14  H   UNL     1       5.008   0.980  -0.033  0.00  0.00    +0.148 HD
ENDBRANCH   1   2
BRANCH   1  15
ATOM     15  C   UNL     1       7.151   2.247  -0.648  0.00  0.00    +0.238 C 
ATOM     16  O   UNL     1       7.099   1.099  -1.036  0.00  0.00    -0.273 OA
ATOM     17  N   UNL     1       8.298   2.946  -0.760  0.00  0.00    -0.284 N 
ATOM     18  H   UNL     1       8.321   3.883  -0.512  0.00  0.00    +0.155 HD
BRANCH  17  19
ATOM     19  C   UNL     1       9.457   2.318  -1.234  0.00  0.00    +0.037 A 
ATOM     20  C   UNL     1       9.364   1.339  -2.214  0.00  0.00    +0.027 A 
ATOM     21  C   UNL     1      10.507   0.719  -2.685  0.00  0.00    +0.051 A 
ATOM     22  C   UNL     1      11.745   1.073  -2.180  0.00  0.00    +0.167 A 
ATOM     23  C   UNL     1      11.841   2.056  -1.195  0.00  0.00    +0.169 A 
ATOM     24  C   UNL     1      10.698   2.679  -0.728  0.00  0.00    +0.073 A 
ATOM     25  O   UNL     1      13.164   2.215  -0.873  0.00  0.00    -0.447 OA
ATOM     26  C   UNL     1      13.775   0.994  -1.311  0.00  0.00    +0.254 C 
ATOM     27  O   UNL     1      13.010   0.627  -2.468  0.00  0.00    -0.448 OA
ATOM     28  C   UNL     1      15.250   1.209  -1.668  0.00  0.00    +0.093 C 
ATOM     29  C   UNL     1      16.015   0.709  -0.414  0.00  0.00    +0.008 C 
ATOM     30  C   UNL     1      15.173  -0.510   0.040  0.00  0.00    +0.008 C 
ATOM     31  C   UNL     1      13.712  -0.086  -0.231  0.00  0.00    +0.093 C 
ENDBRANCH  17  19
ENDBRANCH   1  15
BRANCH   1  33
ATOM     32  C   UNL     1       5.006   3.977   2.011  0.00  0.00    +0.009 C 
ATOM     33  C   UNL     1       6.244   3.322   1.394  0.00  0.00    +0.012 C 
ATOM     34  C   UNL     1       6.637   2.096   2.220  0.00  0.00    +0.009 C 
ENDBRANCH   1  33
TORSDOF 4
