REMARK  Name = ZINC40131262
REMARK  9 active torsions:
REMARK  status: ('A' for Active; 'I' for Inactive)
REMARK    1  A    between atoms: C_1  and  C_2
REMARK    2  A    between atoms: C_3  and  S_25
REMARK    3  A    between atoms: C_5  and  C_7
REMARK    4  A    between atoms: N_9  and  C_10
REMARK    5  A    between atoms: N_9  and  C_11
REMARK    6  A    between atoms: C_11  and  C_13
REMARK    7  A    between atoms: C_11  and  C_14
REMARK    8  A    between atoms: C_17  and  N_20
REMARK    9  A    between atoms: S_25  and  N_28
REMARK                            x       y       z     vdW  Elec       q    Type
REMARK                         _______ _______ _______ _____ _____    ______ ____
ROOT
ATOM      1  C   UNL     1       1.956  -2.616  -0.020  0.00  0.00    +0.282 C 
ATOM      2  O   UNL     1       1.255  -3.588  -0.235  0.00  0.00    -0.267 OA
ATOM      3  N   UNL     1       3.271  -2.775   0.226  0.00  0.00    -0.291 N 
ATOM      4  C   UNL     1       4.138  -1.602   0.364  0.00  0.00    +0.133 C 
ENDROOT
BRANCH   1   9
ATOM      5  C   UNL     1       1.548   2.373   0.112  0.00  0.00    +0.088 C 
ATOM      6  C   UNL     1       1.183   0.913   0.029  0.00  0.00    +0.129 A 
ATOM      7  C   UNL     1      -0.068   0.421  -0.103  0.00  0.00    +0.147 A 
ATOM      8  C   UNL     1       0.040  -0.978  -0.142  0.00  0.00    +0.083 A 
ATOM      9  C   UNL     1       1.369  -1.273  -0.029  0.00  0.00    +0.192 A 
ATOM     10  O   UNL     1       2.047  -0.110   0.068  0.00  0.00    -0.453 OA
BRANCH   7  11
ATOM     11  S   UNL     1      -1.556   1.359  -0.208  0.00  0.00    +0.064 S 
ATOM     12  O   UNL     1      -1.313   2.402  -1.141  0.00  0.00    -0.153 OA
ATOM     13  O   UNL     1      -2.615   0.424  -0.368  0.00  0.00    -0.153 OA
BRANCH  11  14
ATOM     14  N   UNL     1      -1.783   2.083   1.264  0.00  0.00    -0.176 NA
ATOM     15  C   UNL     1      -2.413   1.460   2.437  0.00  0.00    +0.109 C 
ATOM     16  C   UNL     1      -2.428   2.516   3.563  0.00  0.00    +0.018 C 
ATOM     17  C   UNL     1      -2.318   3.854   2.786  0.00  0.00    +0.018 C 
ATOM     18  C   UNL     1      -1.380   3.457   1.616  0.00  0.00    +0.109 C 
ENDBRANCH  11  14
ENDBRANCH   7  11
ENDBRANCH   1   9
BRANCH   3  19
ATOM     19  C   UNL     1       3.835  -4.121   0.355  0.00  0.00    +0.103 C 
ATOM     20  C   UNL     1       4.605  -4.228   1.673  0.00  0.00    +0.033 C 
BRANCH  19  21
ATOM     21  C   UNL     1       4.771  -4.386  -0.796  0.00  0.00    -0.027 A 
ATOM     22  C   UNL     1       4.567  -5.484  -1.613  0.00  0.00    +0.007 A 
ATOM     23  C   UNL     1       5.423  -5.729  -2.669  0.00  0.00    +0.028 A 
ATOM     24  C   UNL     1       6.489  -4.873  -2.910  0.00  0.00    +0.067 A 
ATOM     25  C   UNL     1       6.691  -3.772  -2.088  0.00  0.00    +0.028 A 
ATOM     26  C   UNL     1       5.829  -3.529  -1.037  0.00  0.00    +0.007 A 
BRANCH  24  27
ATOM     27  N   UNL     1       7.360  -5.119  -3.981  0.00  0.00    -0.220 N 
ATOM     28  C   UNL     1       8.433  -4.386  -4.334  0.00  0.00    +0.225 A 
ATOM     29  N   UNL     1       8.979  -4.947  -5.383  0.00  0.00    -0.222 NA
ATOM     30  C   UNL     1       8.287  -6.032  -5.727  0.00  0.00    +0.245 A 
ATOM     31  N   UNL     1       7.290  -6.183  -4.895  0.00  0.00    -0.154 NA
ENDBRANCH  24  27
ENDBRANCH  19  21
ENDBRANCH   3  19
TORSDOF 6
