REMARK  Name = ZINC39034878
REMARK  2 active torsions:
REMARK  status: ('A' for Active; 'I' for Inactive)
REMARK    1  A    between atoms: C_4  and  C_7
REMARK    2  A    between atoms: C_9  and  C_13
REMARK                            x       y       z     vdW  Elec       q    Type
REMARK                         _______ _______ _______ _____ _____    ______ ____
ROOT
ATOM      1  C   UNL     1       5.763  -2.987  -1.332  0.00  0.00    +0.229 C 
ATOM      2  N   UNL     1       5.075  -4.286  -1.426  0.00  0.00    -0.243 N 
ATOM      3  N   UNL     1       6.077  -5.261  -1.410  0.00  0.00    -0.168 NA
ATOM      4  C   UNL     1       7.261  -4.732  -1.319  0.00  0.00    +0.168 C 
ATOM      5  N   UNL     1       7.190  -3.340  -1.266  0.00  0.00    -0.181 N 
ATOM      6  N   UNL     1       8.339  -2.554  -1.169  0.00  0.00    -0.184 NA
ATOM      7  C   UNL     1       9.532  -3.056  -1.123  0.00  0.00    +0.139 C 
ATOM      8  C   UNL     1       9.732  -4.510  -1.171  0.00  0.00    +0.005 A 
ATOM      9  C   UNL     1       8.600  -5.357  -1.268  0.00  0.00    +0.027 A 
ATOM     10  C   UNL     1       8.761  -6.737  -1.317  0.00  0.00    +0.012 A 
ATOM     11  C   UNL     1      10.032  -7.277  -1.267  0.00  0.00    +0.001 A 
ATOM     12  C   UNL     1      11.143  -6.455  -1.169  0.00  0.00    +0.001 A 
ATOM     13  C   UNL     1      11.007  -5.071  -1.123  0.00  0.00    +0.010 A 
ATOM     14  H   UNL     1       4.118  -4.435  -1.488  0.00  0.00    +0.170 HD
ENDROOT
BRANCH   1  17
ATOM     15  C   UNL     1       3.699  -0.689  -0.037  0.00  0.00    +0.091 C 
ATOM     16  C   UNL     1       3.832  -2.029  -0.051  0.00  0.00    +0.035 C 
ATOM     17  C   UNL     1       5.335  -2.245  -0.065  0.00  0.00    +0.194 C 
ATOM     18  N   UNL     1       5.871  -0.874  -0.056  0.00  0.00    -0.176 NA
ATOM     19  N   UNL     1       4.919  -0.090  -0.047  0.00  0.00    -0.154 NA
BRANCH  15  23
ATOM     20  C   UNL     1      -0.017   1.379   0.010  0.00  0.00    +0.000 A 
ATOM     21  C   UNL     1       1.169   2.092   0.002  0.00  0.00    +0.001 A 
ATOM     22  C   UNL     1       2.377   1.426  -0.013  0.00  0.00    +0.010 A 
ATOM     23  C   UNL     1       2.402   0.033  -0.021  0.00  0.00    +0.002 A 
ATOM     24  C   UNL     1       1.205  -0.680  -0.013  0.00  0.00    +0.010 A 
ATOM     25  C   UNL     1       0.002  -0.004   0.002  0.00  0.00    +0.001 A 
ENDBRANCH  15  23
ENDBRANCH   1  17
TORSDOF 2
