REMARK  Name = ZINC49853349
REMARK  4 active torsions:
REMARK  status: ('A' for Active; 'I' for Inactive)
REMARK    1  A    between atoms: C_1  and  N_2
REMARK    2  A    between atoms: C_5  and  N_17
REMARK    3  A    between atoms: N_7  and  C_8
REMARK    4  A    between atoms: C_8  and  C_9
REMARK                            x       y       z     vdW  Elec       q    Type
REMARK                         _______ _______ _______ _____ _____    ______ ____
ROOT
ATOM      1  C   UNL     1      -0.013   1.086   0.008  0.00  0.00    +0.137 C 
ATOM      2  N   UNL     1      -0.721   1.571  -1.179  0.00  0.00    -0.281 N 
ATOM      3  C   UNL     1      -1.276   0.774  -2.140  0.00  0.00    +0.186 C 
ATOM      4  N   UNL     1      -1.844   1.435  -3.085  0.00  0.00    -0.237 NA
ATOM      5  C   UNL     1      -1.696   2.870  -2.795  0.00  0.00    +0.346 C 
ATOM      6  C   UNL     1      -0.931   2.898  -1.486  0.00  0.00    +0.128 C 
ATOM      7  N   UNL     1      -0.557   3.935  -0.810  0.00  0.00    -0.369 N 
ATOM      8  H   UNL     1      -0.767   4.825  -1.133  0.00  0.00    +0.161 HD
ENDROOT
BRANCH   5   9
ATOM      9  N   UNL     1      -0.935   3.533  -3.856  0.00  0.00    +0.055 N 
ATOM     10  O   UNL     1      -0.323   2.874  -4.664  0.00  0.00    -0.129 OA
ATOM     11  O   UNL     1      -0.918   4.740  -3.924  0.00  0.00    -0.129 OA
ENDBRANCH   5   9
BRANCH   7  12
ATOM     12  C   UNL     1       0.184   3.765   0.442  0.00  0.00    +0.150 C 
BRANCH  12  13
ATOM     13  C   UNL     1       0.498   5.118   1.027  0.00  0.00    -0.010 A 
ATOM     14  C   UNL     1       1.752   5.672   0.853  0.00  0.00    +0.008 A 
ATOM     15  C   UNL     1       2.041   6.912   1.389  0.00  0.00    +0.020 A 
ATOM     16  C   UNL     1       1.074   7.601   2.101  0.00  0.00    +0.042 A 
ATOM     17  C   UNL     1      -0.181   7.047   2.275  0.00  0.00    +0.040 A 
ATOM     18  C   UNL     1      -0.471   5.808   1.734  0.00  0.00    +0.047 A 
ATOM     19 CL   UNL     1      -2.048   5.114   1.947  0.00  0.00    -0.083 Cl
ATOM     20 CL   UNL     1       1.437   9.159   2.775  0.00  0.00    -0.083 Cl
ENDBRANCH  12  13
ENDBRANCH   7  12
TORSDOF 3
