REMARK  Name = ZINC13211615
REMARK  8 active torsions:
REMARK  status: ('A' for Active; 'I' for Inactive)
REMARK    1  A    between atoms: C_1  and  N_2
REMARK    2  A    between atoms: N_2  and  C_3
REMARK    3  A    between atoms: N_2  and  C_11
REMARK    4  A    between atoms: C_3  and  C_4
REMARK    5  A    between atoms: C_14  and  N_28
REMARK    6  A    between atoms: C_16  and  S_17
REMARK    7  A    between atoms: S_17  and  N_20
REMARK    8  A    between atoms: C_23  and  C_26
REMARK                            x       y       z     vdW  Elec       q    Type
REMARK                         _______ _______ _______ _____ _____    ______ ____
ROOT
ATOM      1  C   UNL     1       0.955  -3.862  -1.538  0.00  0.00    +0.057 A 
ATOM      2  C   UNL     1       1.813  -4.893  -1.177  0.00  0.00    +0.027 A 
ATOM      3  C   UNL     1       1.347  -6.192  -1.130  0.00  0.00    +0.034 A 
ATOM      4  C   UNL     1       0.028  -6.467  -1.441  0.00  0.00    +0.128 A 
ATOM      5  C   UNL     1      -0.829  -5.443  -1.800  0.00  0.00    +0.063 A 
ATOM      6  C   UNL     1      -0.371  -4.141  -1.844  0.00  0.00    +0.129 A 
ENDROOT
BRANCH   6   7
ATOM      7  S   UNL     1      -1.466  -2.836  -2.296  0.00  0.00    +0.063 S 
ATOM      8  O   UNL     1      -0.772  -2.033  -3.241  0.00  0.00    -0.153 OA
ATOM      9  O   UNL     1      -2.720  -3.438  -2.582  0.00  0.00    -0.153 OA
BRANCH   7  10
ATOM     10  N   UNL     1      -1.688  -1.896  -0.950  0.00  0.00    -0.176 NA
ATOM     11  C   UNL     1      -2.749  -2.211   0.016  0.00  0.00    +0.110 C 
ATOM     12  C   UNL     1      -3.615  -0.970   0.226  0.00  0.00    +0.032 C 
ATOM     13  C   UNL     1      -2.725   0.207   0.631  0.00  0.00    +0.105 C 
ATOM     14  C   UNL     1      -1.722   0.499  -0.487  0.00  0.00    +0.032 C 
ATOM     15  C   UNL     1      -0.831  -0.728  -0.703  0.00  0.00    +0.110 C 
BRANCH  13  16
ATOM     16  C   UNL     1      -3.580   1.425   0.869  0.00  0.00    +0.359 C 
ATOM     17  O   UNL     1      -3.406   2.424   0.212  0.00  0.00    -0.246 OA
ATOM     18  O   UNL     1      -4.536   1.400   1.811  0.00  0.00    -0.246 OA
ENDBRANCH  13  16
ENDBRANCH   7  10
ENDBRANCH   6   7
BRANCH   4  19
ATOM     19  N   UNL     1      -0.468  -7.861  -1.388  0.00  0.00    +0.056 N 
ATOM     20  O   UNL     1       0.285  -8.764  -1.071  0.00  0.00    -0.126 OA
ATOM     21  O   UNL     1      -1.630  -8.104  -1.662  0.00  0.00    -0.126 OA
ENDBRANCH   4  19
BRANCH   1  23
ATOM     22  C   UNL     1       1.880  -2.201  -2.940  0.00  0.00    +0.129 C 
ATOM     23  N   UNL     1       1.423  -2.547  -1.587  0.00  0.00    -0.327 N 
BRANCH  23  24
ATOM     24  C   UNL     1       2.488  -2.330  -0.600  0.00  0.00    +0.140 C 
BRANCH  24  25
ATOM     25  C   UNL     1       2.738  -0.852  -0.447  0.00  0.00    -0.030 A 
ATOM     26  C   UNL     1       2.141  -0.153   0.586  0.00  0.00    +0.006 A 
ATOM     27  C   UNL     1       2.370   1.202   0.728  0.00  0.00    +0.020 A 
ATOM     28  C   UNL     1       3.196   1.861  -0.166  0.00  0.00    +0.041 A 
ATOM     29  C   UNL     1       3.794   1.161  -1.199  0.00  0.00    +0.020 A 
ATOM     30  C   UNL     1       3.564  -0.194  -1.339  0.00  0.00    +0.006 A 
ATOM     31 CL   UNL     1       3.484   3.564   0.011  0.00  0.00    -0.084 Cl
ENDBRANCH  24  25
ENDBRANCH  23  24
ENDBRANCH   1  23
TORSDOF 7
