REMARK  Name = ZINC08712148
REMARK  9 active torsions:
REMARK  status: ('A' for Active; 'I' for Inactive)
REMARK    1  A    between atoms: C_1  and  C_2
REMARK    2  A    between atoms: C_2  and  C_3
REMARK    3  A    between atoms: C_2  and  C_4
REMARK    4  A    between atoms: C_2  and  C_5
REMARK    5  A    between atoms: C_8  and  N_11
REMARK    6  A    between atoms: C_15  and  C_16
REMARK    7  A    between atoms: C_19  and  O_23
REMARK    8  A    between atoms: O_23  and  C_24
REMARK    9  A    between atoms: C_24  and  C_25
REMARK                            x       y       z     vdW  Elec       q    Type
REMARK                         _______ _______ _______ _____ _____    ______ ____
ROOT
ATOM      1  N   UNL     1       3.621  -0.587  -0.608  0.00  0.00    -0.190 N 
ATOM      2  C   UNL     1       4.766   0.045  -0.274  0.00  0.00    +0.263 C 
ATOM      3  O   UNL     1       4.743   1.134   0.267  0.00  0.00    -0.269 OA
ATOM      4  C   UNL     1       6.045  -0.624  -0.581  0.00  0.00    +0.100 C 
ATOM      5  C   UNL     1       7.258  -0.039  -0.269  0.00  0.00    +0.026 C 
ATOM      6  C   UNL     1       5.972  -1.944  -1.237  0.00  0.00    +0.257 C 
ATOM      7  O   UNL     1       6.983  -2.557  -1.522  0.00  0.00    -0.270 OA
ATOM      8  N   UNL     1       4.753  -2.452  -1.512  0.00  0.00    -0.235 N 
ATOM      9  C   UNL     1       3.631  -1.790  -1.198  0.00  0.00    +0.320 C 
ATOM     10  O   UNL     1       2.564  -2.306  -1.469  0.00  0.00    -0.251 OA
ATOM     11  H   UNL     1       4.687  -3.319  -1.942  0.00  0.00    +0.159 HD
ENDROOT
BRANCH   5  12
ATOM     12  C   UNL     1       8.494  -0.811  -0.389  0.00  0.00    -0.021 A 
ATOM     13  C   UNL     1       8.561  -2.118   0.118  0.00  0.00    +0.031 A 
ATOM     14  C   UNL     1       9.726  -2.841  -0.002  0.00  0.00    +0.085 A 
ATOM     15  C   UNL     1      10.840  -2.274  -0.615  0.00  0.00    +0.157 A 
ATOM     16  C   UNL     1      10.781  -0.976  -1.116  0.00  0.00    +0.085 A 
ATOM     17  C   UNL     1       9.621  -0.245  -1.007  0.00  0.00    +0.031 A 
ATOM     18 CL   UNL     1      12.175  -0.279  -1.880  0.00  0.00    -0.080 Cl
ATOM     19 CL   UNL     1       9.808  -4.460   0.619  0.00  0.00    -0.080 Cl
BRANCH  15  20
ATOM     20  O   UNL     1      11.987  -2.990  -0.726  0.00  0.00    -0.484 OA
BRANCH  20  21
ATOM     21  C   UNL     1      12.926  -2.881   0.346  0.00  0.00    +0.264 C 
BRANCH  21  22
ATOM     22  C   UNL     1      14.129  -3.739   0.050  0.00  0.00    -0.010 A 
ATOM     23  C   UNL     1      14.159  -5.055   0.472  0.00  0.00    +0.008 A 
ATOM     24  C   UNL     1      15.260  -5.844   0.195  0.00  0.00    +0.020 A 
ATOM     25  C   UNL     1      16.336  -5.313  -0.494  0.00  0.00    +0.041 A 
ATOM     26  C   UNL     1      16.307  -3.994  -0.910  0.00  0.00    +0.020 A 
ATOM     27  C   UNL     1      15.204  -3.208  -0.639  0.00  0.00    +0.008 A 
ATOM     28 CL   UNL     1      17.721  -6.302  -0.835  0.00  0.00    -0.084 Cl
ENDBRANCH  21  22
ENDBRANCH  20  21
ENDBRANCH  15  20
ENDBRANCH   5  12
BRANCH   1  32
ATOM     29  C   UNL     1      -0.031   1.240   0.229  0.00  0.00    -0.042 A 
ATOM     30  C   UNL     1       0.785   0.822   1.264  0.00  0.00    +0.006 A 
ATOM     31  C   UNL     1       1.996   0.217   0.990  0.00  0.00    +0.024 A 
ATOM     32  C   UNL     1       2.393   0.028  -0.327  0.00  0.00    +0.046 A 
ATOM     33  C   UNL     1       1.572   0.448  -1.364  0.00  0.00    +0.024 A 
ATOM     34  C   UNL     1       0.362   1.052  -1.083  0.00  0.00    +0.006 A 
BRANCH  29  36
ATOM     35  C   UNL     1      -2.486   1.087  -0.083  0.00  0.00    +0.015 C 
ATOM     36  C   UNL     1      -1.349   1.905   0.532  0.00  0.00    -0.013 C 
ATOM     37  C   UNL     1      -1.542   1.989   2.047  0.00  0.00    +0.015 C 
ATOM     38  C   UNL     1      -1.356   3.315  -0.062  0.00  0.00    +0.015 C 
ENDBRANCH  29  36
ENDBRANCH   1  32
TORSDOF 6
