REMARK  Name = ZINC63136810
REMARK  12 active torsions:
REMARK  status: ('A' for Active; 'I' for Inactive)
REMARK    1  A    between atoms: C_1  and  C_2
REMARK    2  A    between atoms: C_2  and  C_3
REMARK    3  A    between atoms: C_2  and  C_4
REMARK    4  A    between atoms: C_2  and  C_5
REMARK    5  A    between atoms: C_7  and  C_32
REMARK    6  A    between atoms: N_8  and  C_10
REMARK    7  A    between atoms: C_13  and  C_16
REMARK    8  A    between atoms: N_18  and  C_19
REMARK    9  A    between atoms: C_19  and  C_20
REMARK   10  A    between atoms: C_20  and  C_21
REMARK   11  A    between atoms: C_24  and  O_30
REMARK   12  A    between atoms: O_30  and  C_31
REMARK                            x       y       z     vdW  Elec       q    Type
REMARK                         _______ _______ _______ _____ _____    ______ ____
ROOT
ATOM      1  C   UNL     1       0.923  -1.924  -4.543  0.00  0.00    +0.283 C 
ATOM      2  N   UNL     1      -0.343  -1.457  -5.145  0.00  0.00    -0.246 NA
ATOM      3  C   UNL     1      -0.372  -1.046  -6.333  0.00  0.00    +0.110 C 
ATOM      4  C   UNL     1       0.922  -1.038  -7.135  0.00  0.00    +0.133 C 
ATOM      5  S   UNL     1       2.144  -1.279  -5.769  0.00  0.00    -0.105 S 
ENDROOT
BRANCH   1   9
ATOM      6  C   UNL     1       0.707  -0.490  -1.238  0.00  0.00    +0.069 A 
ATOM      7  C   UNL     1       2.089  -0.472  -1.456  0.00  0.00    +0.057 A 
ATOM      8  C   UNL     1       2.324  -0.992  -2.683  0.00  0.00    +0.145 A 
ATOM      9  N   UNL     1       1.133  -1.327  -3.222  0.00  0.00    -0.225 N 
ATOM     10  N   UNL     1       0.134  -1.007  -2.294  0.00  0.00    -0.173 NA
BRANCH   6  12
ATOM     11  C   UNL     1      -0.019   1.526   0.010  0.00  0.00    +0.017 C 
ATOM     12  C   UNL     1       0.002  -0.004   0.002  0.00  0.00    +0.006 C 
ATOM     13  C   UNL     1       0.742  -0.511   1.242  0.00  0.00    +0.017 C 
ATOM     14  C   UNL     1      -1.433  -0.534   0.013  0.00  0.00    +0.017 C 
ENDBRANCH   6  12
BRANCH   8  15
ATOM     15  C   UNL     1       3.673  -1.165  -3.331  0.00  0.00    +0.434 C 
ATOM     16  F   UNL     1       4.676  -0.810  -2.423  0.00  0.00    -0.164 F 
ATOM     17  F   UNL     1       3.840  -2.501  -3.711  0.00  0.00    -0.164 F 
ATOM     18  F   UNL     1       3.756  -0.345  -4.462  0.00  0.00    -0.164 F 
ENDBRANCH   8  15
ENDBRANCH   1   9
BRANCH   3  19
ATOM     19  C   UNL     1      -1.641  -0.578  -6.941  0.00  0.00    +0.259 C 
ATOM     20  O   UNL     1      -1.655  -0.184  -8.089  0.00  0.00    -0.269 OA
ATOM     21  N   UNL     1      -2.779  -0.591  -6.218  0.00  0.00    -0.310 N 
ATOM     22  H   UNL     1      -2.768  -0.905  -5.301  0.00  0.00    +0.149 HD
BRANCH  21  23
ATOM     23  C   UNL     1      -4.033  -0.129  -6.819  0.00  0.00    +0.109 C 
BRANCH  23  24
ATOM     24  C   UNL     1      -5.163  -0.246  -5.794  0.00  0.00    +0.052 C 
BRANCH  24  25
ATOM     25  C   UNL     1      -6.452   0.230  -6.412  0.00  0.00    -0.040 C 
ATOM     26  C   UNL     1      -7.401  -0.533  -7.000  0.00  0.00    +0.002 A 
ATOM     27  C   UNL     1      -7.514  -1.977  -7.234  0.00  0.00    +0.055 A 
ATOM     28  C   UNL     1      -8.608  -2.467  -7.867  0.00  0.00    +0.121 A 
ATOM     29  C   UNL     1      -9.651  -1.637  -8.313  0.00  0.00    +0.047 A 
ATOM     30  C   UNL     1      -9.638  -0.297  -8.144  0.00  0.00    +0.029 A 
ATOM     31  C   UNL     1      -8.502   0.340  -7.471  0.00  0.00    +0.043 A 
ATOM     32  N   UNL     1      -8.243   1.591  -7.185  0.00  0.00    -0.380 N 
ATOM     33  C   UNL     1      -6.950   1.655  -6.493  0.00  0.00    +0.144 C 
ATOM     34  H   UNL     1      -8.812   2.349  -7.392  0.00  0.00    +0.160 HD
BRANCH  28  35
ATOM     35  O   UNL     1      -8.699  -3.806  -8.077  0.00  0.00    -0.495 OA
ATOM     36  C   UNL     1      -9.868  -4.280  -8.748  0.00  0.00    +0.277 C 
ENDBRANCH  28  35
ENDBRANCH  24  25
ENDBRANCH  23  24
ENDBRANCH  21  23
ENDBRANCH   3  19
TORSDOF 8
