REMARK  Name = ZINC02749546
REMARK  11 active torsions:
REMARK  status: ('A' for Active; 'I' for Inactive)
REMARK    1  A    between atoms: C_1  and  C_2
REMARK    2  A    between atoms: C_2  and  O_3
REMARK    3  A    between atoms: O_3  and  C_4
REMARK    4  A    between atoms: C_4  and  C_6
REMARK    5  A    between atoms: C_7  and  N_35
REMARK    6  A    between atoms: C_11  and  C_13
REMARK    7  A    between atoms: C_15  and  C_21
REMARK    8  A    between atoms: C_16  and  C_20
REMARK    9  A    between atoms: C_18  and  C_19
REMARK   10  A    between atoms: C_21  and  O_22
REMARK   11  A    between atoms: O_22  and  C_23
REMARK                            x       y       z     vdW  Elec       q    Type
REMARK                         _______ _______ _______ _____ _____    ______ ____
ROOT
ATOM      1  C   UNL     1      -3.286   3.107  -0.564  0.00  0.00    +0.105 C 
ATOM      2  C   UNL     1      -4.512   3.559  -0.191  0.00  0.00    +0.195 C 
ATOM      3  O   UNL     1      -5.395   2.756   0.421  0.00  0.00    -0.446 OA
ATOM      4  C   UNL     1      -5.286   1.420   0.292  0.00  0.00    +0.115 C 
ATOM      5  C   UNL     1      -4.120   0.841  -0.044  0.00  0.00    +0.045 C 
ATOM      6  C   UNL     1      -2.891   1.680  -0.302  0.00  0.00    +0.098 C 
ATOM      7  C   UNL     1      -4.003  -0.557  -0.163  0.00  0.00    +0.163 C 
ATOM      8  O   UNL     1      -2.936  -1.042  -0.480  0.00  0.00    -0.292 OA
ATOM      9  C   UNL     1      -5.178  -1.462   0.096  0.00  0.00    +0.080 C 
ATOM     10  C   UNL     1      -6.117  -0.780   1.097  0.00  0.00    +0.016 C 
ATOM     11  C   UNL     1      -6.521   0.583   0.532  0.00  0.00    +0.075 C 
ENDROOT
BRANCH   6  12
ATOM     12  C   UNL     1      -1.986   1.625   0.901  0.00  0.00    -0.032 A 
ATOM     13  C   UNL     1      -2.466   1.993   2.145  0.00  0.00    +0.012 A 
ATOM     14  C   UNL     1      -1.634   1.948   3.248  0.00  0.00    -0.007 A 
ATOM     15  C   UNL     1      -0.324   1.530   3.108  0.00  0.00    -0.044 A 
ATOM     16  C   UNL     1       0.155   1.158   1.866  0.00  0.00    +0.007 A 
ATOM     17  C   UNL     1      -0.677   1.203   0.763  0.00  0.00    -0.046 A 
ATOM     18  C   UNL     1      -0.155   0.798  -0.592  0.00  0.00    +0.044 C 
ATOM     19  C   UNL     1       0.584   1.480   4.311  0.00  0.00    +0.044 C 
BRANCH  14  20
ATOM     20  C   UNL     1      -2.156   2.353   4.602  0.00  0.00    +0.264 C 
BRANCH  20  21
ATOM     21  O   UNL     1      -3.526   2.741   4.488  0.00  0.00    -0.486 OA
BRANCH  21  22
ATOM     22  C   UNL     1      -4.152   3.138   5.627  0.00  0.00    +0.135 A 
ATOM     23  C   UNL     1      -3.463   3.147   6.831  0.00  0.00    +0.047 A 
ATOM     24  C   UNL     1      -4.100   3.557   7.987  0.00  0.00    +0.004 A 
ATOM     25  C   UNL     1      -5.426   3.946   7.947  0.00  0.00    +0.001 A 
ATOM     26  C   UNL     1      -6.117   3.932   6.750  0.00  0.00    +0.019 A 
ATOM     27  C   UNL     1      -5.483   3.529   5.589  0.00  0.00    +0.059 A 
ATOM     28 BR   UNL     1      -6.428   3.511   3.952  0.00  0.00    -0.047 Br
ENDBRANCH  21  22
ENDBRANCH  20  21
ENDBRANCH  14  20
ENDBRANCH   6  12
BRANCH   2  29
ATOM     29  N   UNL     1      -4.852   4.861  -0.444  0.00  0.00    -0.329 N 
ATOM     30  H   UNL     1      -5.841   5.239  -0.146  0.00  0.00    +0.145 HD
ATOM     31  H   UNL     1      -4.136   5.529  -0.945  0.00  0.00    +0.145 HD
ENDBRANCH   2  29
BRANCH   1  32
ATOM     32  C   UNL     1      -2.385   3.976  -1.198  0.00  0.00    +0.341 C 
ATOM     33  O   UNL     1      -2.191   3.883  -2.397  0.00  0.00    -0.245 OA
BRANCH  32  34
ATOM     34  O   UNL     1      -1.732   4.914  -0.479  0.00  0.00    -0.462 OA
BRANCH  34  36
ATOM     35  C   UNL     1      -0.189   6.756  -0.216  0.00  0.00    +0.048 C 
ATOM     36  C   UNL     1      -0.830   5.764  -1.190  0.00  0.00    +0.229 C 
ENDBRANCH  34  36
ENDBRANCH  32  34
ENDBRANCH   1  32
TORSDOF 8
