REMARK  Name = ZINC59768781
REMARK  11 active torsions:
REMARK  status: ('A' for Active; 'I' for Inactive)
REMARK    1  A    between atoms: C_1  and  C_2
REMARK    2  A    between atoms: C_4  and  C_25
REMARK    3  A    between atoms: C_7  and  N_8
REMARK    4  A    between atoms: C_9  and  C_11
REMARK    5  A    between atoms: C_15  and  S_17
REMARK    6  A    between atoms: S_17  and  N_20
REMARK    7  A    between atoms: N_20  and  C_21
REMARK    8  A    between atoms: C_21  and  C_22
REMARK    9  A    between atoms: C_21  and  C_23
REMARK   10  A    between atoms: C_21  and  C_24
REMARK   11  A    between atoms: N_27  and  C_28
REMARK                            x       y       z     vdW  Elec       q    Type
REMARK                         _______ _______ _______ _____ _____    ______ ____
ROOT
ATOM      1  N   UNL     1      -1.938   2.919   2.067  0.00  0.00    -0.281 N 
ATOM      2  C   UNL     1      -2.441   1.978   2.891  0.00  0.00    +0.248 C 
ATOM      3  O   UNL     1      -3.235   1.160   2.467  0.00  0.00    -0.270 OA
ATOM      4  H   UNL     1      -1.258   3.531   2.388  0.00  0.00    +0.155 HD
ENDROOT
BRANCH   1  11
ATOM      5  C   UNL     1      -1.944   5.479   0.837  0.00  0.00    +0.045 C 
ATOM      6  C   UNL     1      -2.416   4.246   0.112  0.00  0.00    -0.029 A 
ATOM      7  C   UNL     1      -2.861   4.340  -1.188  0.00  0.00    +0.018 A 
ATOM      8  C   UNL     1      -3.298   3.195  -1.859  0.00  0.00    +0.037 A 
ATOM      9  C   UNL     1      -3.281   1.958  -1.210  0.00  0.00    +0.015 A 
ATOM     10  C   UNL     1      -2.834   1.870   0.089  0.00  0.00    +0.024 A 
ATOM     11  C   UNL     1      -2.395   3.011   0.754  0.00  0.00    +0.037 A 
BRANCH   8  12
ATOM     12  C   UNL     1      -3.777   3.292  -3.252  0.00  0.00    +0.244 C 
ATOM     13  O   UNL     1      -3.791   4.370  -3.816  0.00  0.00    -0.270 OA
ATOM     14  N   UNL     1      -4.198   2.188  -3.899  0.00  0.00    -0.308 N 
ATOM     15  H   UNL     1      -4.186   1.328  -3.449  0.00  0.00    +0.149 HD
BRANCH  14  16
ATOM     16  C   UNL     1      -4.673   2.284  -5.281  0.00  0.00    +0.073 C 
ATOM     17  C   UNL     1      -6.153   2.672  -5.286  0.00  0.00    +0.022 C 
ATOM     18  C   UNL     1      -6.649   2.773  -6.730  0.00  0.00    +0.002 C 
ATOM     19  C   UNL     1      -6.474   1.422  -7.425  0.00  0.00    +0.000 C 
ATOM     20  C   UNL     1      -4.995   1.033  -7.420  0.00  0.00    +0.002 C 
ATOM     21  C   UNL     1      -4.498   0.932  -5.976  0.00  0.00    +0.022 C 
ENDBRANCH  14  16
ENDBRANCH   8  12
ENDBRANCH   1  11
BRANCH   2  22
ATOM     22  C   UNL     1      -2.029   1.941   4.310  0.00  0.00    +0.039 A 
ATOM     23  C   UNL     1      -1.122   2.882   4.801  0.00  0.00    +0.013 A 
ATOM     24  C   UNL     1      -0.741   2.842   6.126  0.00  0.00    +0.003 A 
ATOM     25  C   UNL     1      -1.256   1.871   6.968  0.00  0.00    +0.028 A 
ATOM     26  C   UNL     1      -2.154   0.936   6.487  0.00  0.00    +0.106 A 
ATOM     27  C   UNL     1      -2.548   0.968   5.165  0.00  0.00    +0.041 A 
BRANCH  26  28
ATOM     28  S   UNL     1      -2.803  -0.295   7.568  0.00  0.00    +0.059 S 
ATOM     29  O   UNL     1      -2.964  -1.474   6.790  0.00  0.00    -0.153 OA
ATOM     30  O   UNL     1      -2.009  -0.262   8.745  0.00  0.00    -0.153 OA
BRANCH  28  31
ATOM     31  N   UNL     1      -4.323   0.192   8.009  0.00  0.00    -0.185 NA
ATOM     32  H   UNL     1      -5.098  -0.320   7.727  0.00  0.00    +0.149 HD
BRANCH  31  33
ATOM     33  C   UNL     1      -4.498   1.396   8.825  0.00  0.00    +0.032 C 
ATOM     34  C   UNL     1      -3.756   2.565   8.174  0.00  0.00    +0.029 C 
ATOM     35  C   UNL     1      -5.988   1.731   8.926  0.00  0.00    +0.029 C 
ATOM     36  C   UNL     1      -3.935   1.150  10.225  0.00  0.00    +0.029 C 
ENDBRANCH  31  33
ENDBRANCH  28  31
ENDBRANCH  26  28
ENDBRANCH   2  22
TORSDOF 7
