REMARK  Name = ZINC36017383
REMARK  14 active torsions:
REMARK  status: ('A' for Active; 'I' for Inactive)
REMARK    1  A    between atoms: C_1  and  C_2
REMARK    2  A    between atoms: C_2  and  N_3
REMARK    3  A    between atoms: C_4  and  C_24
REMARK    4  A    between atoms: C_5  and  C_19
REMARK    5  A    between atoms: C_6  and  C_11
REMARK    6  A    between atoms: C_13  and  C_18
REMARK    7  A    between atoms: C_16  and  C_17
REMARK    8  A    between atoms: C_19  and  O_21
REMARK    9  A    between atoms: O_21  and  C_22
REMARK   10  A    between atoms: C_22  and  C_23
REMARK   11  A    between atoms: C_24  and  N_25
REMARK   12  A    between atoms: N_34  and  C_35
REMARK   13  A    between atoms: C_35  and  C_36
REMARK   14  A    between atoms: C_35  and  C_37
REMARK                            x       y       z     vdW  Elec       q    Type
REMARK                         _______ _______ _______ _____ _____    ______ ____
ROOT
ATOM      1  N   UNL     1       1.372  -0.403   1.298  0.00  0.00    -0.261 N 
ATOM      2  C   UNL     1       2.278  -1.421   1.215  0.00  0.00    +0.010 C 
ATOM      3  C   UNL     1       2.528  -2.221   2.275  0.00  0.00    +0.076 C 
ATOM      4  C   UNL     1       1.768  -1.950   3.557  0.00  0.00    +0.144 C 
ATOM      5  N   UNL     1       0.814  -0.828   3.543  0.00  0.00    -0.288 N 
ATOM      6  C   UNL     1       0.677  -0.116   2.407  0.00  0.00    +0.307 C 
ATOM      7  O   UNL     1      -0.105   0.814   2.386  0.00  0.00    -0.252 OA
ATOM      8  H   UNL     1       0.298  -0.605   4.333  0.00  0.00    +0.151 HD
ENDROOT
BRANCH   4   9
ATOM      9  C   UNL     1       2.775  -1.688   4.647  0.00  0.00    -0.019 A 
ATOM     10  C   UNL     1       4.066  -1.313   4.321  0.00  0.00    +0.009 A 
ATOM     11  C   UNL     1       4.989  -1.073   5.320  0.00  0.00    -0.050 A 
ATOM     12  C   UNL     1       4.623  -1.206   6.646  0.00  0.00    +0.003 A 
ATOM     13  C   UNL     1       3.333  -1.580   6.973  0.00  0.00    +0.004 A 
ATOM     14  C   UNL     1       2.408  -1.816   5.973  0.00  0.00    -0.045 A 
ATOM     15  C   UNL     1       1.000  -2.218   6.329  0.00  0.00    +0.044 C 
ATOM     16  C   UNL     1       6.396  -0.665   4.964  0.00  0.00    +0.044 C 
ENDBRANCH   4   9
BRANCH   1  18
ATOM     17  C   UNL     1       2.077   1.642   0.158  0.00  0.00    +0.025 C 
ATOM     18  C   UNL     1       1.151   0.425   0.110  0.00  0.00    +0.111 C 
ENDBRANCH   1  18
BRANCH   3  19
ATOM     19  C   UNL     1       3.466  -3.276   2.189  0.00  0.00    +0.339 C 
ATOM     20  O   UNL     1       4.126  -3.423   1.178  0.00  0.00    -0.245 OA
BRANCH  19  21
ATOM     21  O   UNL     1       3.629  -4.120   3.230  0.00  0.00    -0.462 OA
BRANCH  21  22
ATOM     22  C   UNL     1       4.669  -5.093   3.119  0.00  0.00    +0.229 C 
ATOM     23  C   UNL     1       4.622  -6.029   4.329  0.00  0.00    +0.048 C 
ENDBRANCH  21  22
ENDBRANCH  19  21
ENDBRANCH   3  19
BRANCH   2  24
ATOM     24  C   UNL     1       3.012  -1.656  -0.080  0.00  0.00    -0.026 C 
BRANCH  24  25
ATOM     25  N   UNL     1       2.384  -2.770  -0.803  0.00  0.00    +0.384 N 
ATOM     26  C   UNL     1       3.257  -3.150  -1.912  0.00  0.00    -0.077 C 
ATOM     27  C   UNL     1       3.076  -4.623  -2.207  0.00  0.00    +0.000 C 
ATOM     28  C   UNL     1       2.018  -4.798  -3.312  0.00  0.00    +0.107 C 
ATOM     29  N   UNL     1       0.898  -3.853  -3.129  0.00  0.00    -0.287 N 
ATOM     30  C   UNL     1       0.331  -3.566  -1.827  0.00  0.00    +0.091 C 
ATOM     31  C   UNL     1       1.080  -2.378  -1.179  0.00  0.00    -0.059 C 
ATOM     32  C   UNL     1       0.385  -3.236  -4.212  0.00  0.00    +0.302 C 
ATOM     33  O   UNL     1       0.782  -3.528  -5.323  0.00  0.00    -0.253 OA
ATOM     34  N   UNL     1      -0.570  -2.296  -4.062  0.00  0.00    -0.297 N 
ATOM     35  H   UNL     1      -0.835  -2.011  -3.174  0.00  0.00    +0.150 HD
ATOM     36  H   UNL     1       2.312  -3.556  -0.174  0.00  0.00    -0.081 HD
BRANCH  34  37
ATOM     37  C   UNL     1      -1.205  -1.704  -5.242  0.00  0.00    +0.068 C 
ATOM     38  C   UNL     1      -2.362  -2.595  -5.699  0.00  0.00    +0.027 C 
ATOM     39  C   UNL     1      -1.741  -0.315  -4.889  0.00  0.00    +0.027 C 
ENDBRANCH  34  37
ENDBRANCH  24  25
ENDBRANCH   2  24
TORSDOF 8
