REMARK  Name = ZINC07209219
REMARK  3 active torsions:
REMARK  status: ('A' for Active; 'I' for Inactive)
REMARK    1  A    between atoms: C_3  and  C_21
REMARK    2  A    between atoms: C_6  and  C_7
REMARK    3  A    between atoms: N_14  and  C_15
REMARK                            x       y       z     vdW  Elec       q    Type
REMARK                         _______ _______ _______ _____ _____    ______ ____
ROOT
ATOM      1  C   UNL     1      -3.345  -5.197  -1.735  0.00  0.00    +0.028 C 
ATOM      2  C   UNL     1      -2.576  -4.283  -1.092  0.00  0.00    +0.079 C 
ATOM      3  C   UNL     1      -1.105  -4.084  -1.128  0.00  0.00    +0.276 C 
ATOM      4  O   UNL     1      -0.376  -4.791  -1.804  0.00  0.00    -0.267 OA
ATOM      5  N   UNL     1      -0.634  -3.100  -0.395  0.00  0.00    -0.154 NA
ATOM      6  C   UNL     1      -1.414  -2.329   0.346  0.00  0.00    +0.152 C 
ATOM      7  S   UNL     1      -3.048  -2.978   0.036  0.00  0.00    -0.052 S 
ATOM      8  N   UNL     1      -1.055  -1.282   1.151  0.00  0.00    -0.322 N 
ATOM      9  H   UNL     1      -1.733  -0.792   1.641  0.00  0.00    +0.148 HD
ENDROOT
BRANCH   1  15
ATOM     10  C   UNL     1      -5.307  -4.604  -0.328  0.00  0.00    +0.009 A 
ATOM     11  C   UNL     1      -6.638  -4.704  -0.035  0.00  0.00    +0.019 A 
ATOM     12  C   UNL     1      -7.466  -5.516  -0.815  0.00  0.00    +0.052 A 
ATOM     13  C   UNL     1      -6.935  -6.223  -1.898  0.00  0.00    +0.019 A 
ATOM     14  C   UNL     1      -5.606  -6.121  -2.196  0.00  0.00    +0.009 A 
ATOM     15  C   UNL     1      -4.775  -5.308  -1.416  0.00  0.00    -0.024 A 
BRANCH  12  16
ATOM     16  C   UNL     1      -8.860  -5.625  -0.504  0.00  0.00    +0.099 C 
ATOM     17  N   UNL     1      -9.965  -5.711  -0.257  0.00  0.00    -0.191 NA
ENDBRANCH  12  16
ENDBRANCH   1  15
BRANCH   8  18
ATOM     18  C   UNL     1       0.355  -0.901   1.272  0.00  0.00    +0.072 C 
ATOM     19  C   UNL     1       0.452   0.573   1.669  0.00  0.00    +0.022 C 
ATOM     20  C   UNL     1       1.924   0.971   1.796  0.00  0.00    +0.002 C 
ATOM     21  C   UNL     1       2.595   0.109   2.867  0.00  0.00    +0.000 C 
ATOM     22  C   UNL     1       2.498  -1.365   2.469  0.00  0.00    +0.002 C 
ATOM     23  C   UNL     1       1.026  -1.763   2.343  0.00  0.00    +0.022 C 
ENDBRANCH   8  18
TORSDOF 3
