REMARK  Name = ZINC39711511
REMARK  12 active torsions:
REMARK  status: ('A' for Active; 'I' for Inactive)
REMARK    1  A    between atoms: C_1  and  C_2
REMARK    2  A    between atoms: C_2  and  O_3
REMARK    3  A    between atoms: O_3  and  C_4
REMARK    4  A    between atoms: C_11  and  C_16
REMARK    5  A    between atoms: C_16  and  C_18
REMARK    6  A    between atoms: C_16  and  N_28
REMARK    7  A    between atoms: N_23  and  C_24
REMARK    8  A    between atoms: C_24  and  C_25
REMARK    9  A    between atoms: C_24  and  C_26
REMARK   10  A    between atoms: C_24  and  C_27
REMARK   11  A    between atoms: N_31  and  C_34
REMARK   12  A    between atoms: C_34  and  C_35
REMARK                            x       y       z     vdW  Elec       q    Type
REMARK                         _______ _______ _______ _____ _____    ______ ____
ROOT
ATOM      1  C   UNL     1       1.496  -6.222  -4.990  0.00  0.00    -0.009 C 
ENDROOT
BRANCH   1   9
ATOM      2  C   UNL     1       0.559  -1.354  -1.907  0.00  0.00    +0.121 A 
ATOM      3  C   UNL     1       0.144  -2.086  -0.789  0.00  0.00    +0.047 A 
ATOM      4  C   UNL     1       0.325  -3.428  -0.686  0.00  0.00    +0.027 A 
ATOM      5  C   UNL     1       0.949  -4.148  -1.721  0.00  0.00    +0.041 A 
ATOM      6  N   UNL     1       1.120  -5.465  -1.606  0.00  0.00    -0.285 N 
ATOM      7  C   UNL     1       1.698  -6.203  -2.540  0.00  0.00    +0.223 C 
ATOM      8  O   UNL     1       1.825  -7.402  -2.378  0.00  0.00    -0.275 OA
ATOM      9  C   UNL     1       2.199  -5.550  -3.808  0.00  0.00    +0.088 C 
ATOM     10  C   UNL     1       2.007  -4.052  -3.944  0.00  0.00    -0.006 C 
ATOM     11  C   UNL     1       1.396  -3.404  -2.912  0.00  0.00    -0.004 A 
ATOM     12  C   UNL     1       1.167  -1.960  -2.964  0.00  0.00    +0.055 A 
ATOM     13  H   UNL     1       0.806  -5.903  -0.800  0.00  0.00    +0.155 HD
BRANCH   2  14
ATOM     14  O   UNL     1       0.345  -0.012  -1.942  0.00  0.00    -0.492 OA
BRANCH  14  16
ATOM     15  C   UNL     1      -0.451   2.079  -1.026  0.00  0.00    +0.048 C 
ATOM     16  C   UNL     1      -0.297   0.572  -0.806  0.00  0.00    +0.225 C 
ENDBRANCH  14  16
ENDBRANCH   2  14
ENDBRANCH   1   9
BRANCH   1  17
ATOM     17  N   UNL     1       1.816  -7.655  -5.000  0.00  0.00    +0.386 N 
ATOM     18  C   UNL     1       1.304  -8.263  -6.235  0.00  0.00    -0.063 C 
ATOM     19  C   UNL     1       1.621  -9.760  -6.237  0.00  0.00    +0.066 C 
ATOM     20  N   UNL     1       3.075  -9.951  -6.143  0.00  0.00    -0.302 NA
ATOM     21  C   UNL     1       3.606  -9.326  -4.923  0.00  0.00    +0.066 C 
ATOM     22  C   UNL     1       3.273  -7.832  -4.932  0.00  0.00    -0.063 C 
ATOM     23  H   UNL     1       1.386  -8.101  -4.203  0.00  0.00    -0.081 HD
BRANCH  20  24
ATOM     24  C   UNL     1       3.424 -11.377  -6.199  0.00  0.00    +0.119 C 
BRANCH  24  25
ATOM     25  C   UNL     1       4.916 -11.523  -6.347  0.00  0.00    -0.033 A 
ATOM     26  C   UNL     1       5.485 -11.567  -7.606  0.00  0.00    +0.005 A 
ATOM     27  C   UNL     1       6.854 -11.701  -7.743  0.00  0.00    +0.000 A 
ATOM     28  C   UNL     1       7.654 -11.792  -6.619  0.00  0.00    +0.000 A 
ATOM     29  C   UNL     1       7.086 -11.747  -5.360  0.00  0.00    +0.000 A 
ATOM     30  C   UNL     1       5.718 -11.608  -5.224  0.00  0.00    +0.005 A 
ENDBRANCH  24  25
ENDBRANCH  20  24
ENDBRANCH   1  17
BRANCH   1  31
ATOM     31  C   UNL     1      -0.017  -6.037  -4.857  0.00  0.00    +0.205 C 
ATOM     32  N   UNL     1      -0.540  -6.873  -3.768  0.00  0.00    -0.152 NA
ATOM     33  N   UNL     1      -1.352  -7.675  -4.235  0.00  0.00    -0.070 NA
ATOM     34  N   UNL     1      -1.514  -7.541  -5.614  0.00  0.00    -0.179 N 
ATOM     35  N   UNL     1      -0.705  -6.529  -6.069  0.00  0.00    -0.183 NA
ATOM     36  H   UNL     1      -2.105  -8.078  -6.164  0.00  0.00    +0.191 HD
BRANCH  35  37
ATOM     37  C   UNL     1      -1.496  -5.461  -6.695  0.00  0.00    +0.035 C 
ATOM     38  C   UNL     1      -0.574  -4.303  -7.080  0.00  0.00    +0.029 C 
ATOM     39  C   UNL     1      -2.184  -6.004  -7.949  0.00  0.00    +0.029 C 
ATOM     40  C   UNL     1      -2.554  -4.964  -5.707  0.00  0.00    +0.029 C 
ENDBRANCH  35  37
ENDBRANCH   1  31
TORSDOF 8
