REMARK  Name = ZINC06755544
REMARK  5 active torsions:
REMARK  status: ('A' for Active; 'I' for Inactive)
REMARK    1  A    between atoms: C_1  and  C_2
REMARK    2  A    between atoms: C_5  and  C_7
REMARK    3  A    between atoms: C_5  and  O_10
REMARK    4  A    between atoms: C_11  and  C_13
REMARK    5  A    between atoms: C_16  and  N_19
REMARK                            x       y       z     vdW  Elec       q    Type
REMARK                         _______ _______ _______ _____ _____    ______ ____
ROOT
ATOM      1  C   UNL     1      -5.416  -0.064  -0.203  0.00  0.00    +0.062 C 
ATOM      2  C   UNL     1      -5.004   1.385  -0.163  0.00  0.00    +0.039 C 
ATOM      3  N   UNL     1      -3.808   1.802  -0.073  0.00  0.00    -0.184 NA
ATOM      4  N   UNL     1      -3.681   3.189  -0.049  0.00  0.00    -0.152 N 
ATOM      5  C   UNL     1      -5.022   3.788  -0.151  0.00  0.00    +0.222 C 
ATOM      6  C   UNL     1      -5.952   2.561  -0.230  0.00  0.00    +0.115 C 
ATOM      7  C   UNL     1      -2.521   3.870   0.045  0.00  0.00    +0.269 C 
ATOM      8  O   UNL     1      -2.534   5.082   0.146  0.00  0.00    -0.268 OA
ENDROOT
BRANCH   7   9
ATOM      9  C   UNL     1      -1.234   3.144   0.025  0.00  0.00    +0.039 A 
ATOM     10  C   UNL     1      -0.031   3.851  -0.002  0.00  0.00    +0.015 A 
ATOM     11  C   UNL     1       1.167   3.167  -0.025  0.00  0.00    +0.033 A 
ATOM     12  C   UNL     1       1.177   1.784  -0.011  0.00  0.00    +0.126 A 
ATOM     13  C   UNL     1      -0.011   1.077   0.021  0.00  0.00    +0.033 A 
ATOM     14  C   UNL     1      -1.216   1.748   0.039  0.00  0.00    +0.015 A 
BRANCH  12  15
ATOM     15  N   UNL     1       2.467   1.056  -0.031  0.00  0.00    +0.056 N 
ATOM     16  O   UNL     1       3.515   1.676  -0.059  0.00  0.00    -0.126 OA
ATOM     17  O   UNL     1       2.479  -0.162  -0.019  0.00  0.00    -0.126 OA
ENDBRANCH  12  15
ENDBRANCH   7   9
BRANCH   5  18
ATOM     18  C   UNL     1      -5.139   4.637  -1.418  0.00  0.00    +0.393 C 
ATOM     19  F   UNL     1      -4.884   3.840  -2.539  0.00  0.00    -0.204 F 
ATOM     20  F   UNL     1      -6.431   5.167  -1.507  0.00  0.00    -0.204 F 
ENDBRANCH   5  18
BRANCH   5  21
ATOM     21  O   UNL     1      -5.313   4.572   1.008  0.00  0.00    -0.365 OA
ATOM     22  H   UNL     1      -4.710   5.316   1.142  0.00  0.00    +0.212 HD
ENDBRANCH   5  21
TORSDOF 4
