REMARK  Name = ZINC40141648
REMARK  7 active torsions:
REMARK  status: ('A' for Active; 'I' for Inactive)
REMARK    1  A    between atoms: C_1  and  C_2
REMARK    2  A    between atoms: C_5  and  C_8
REMARK    3  A    between atoms: N_12  and  C_16
REMARK    4  A    between atoms: C_16  and  C_17
REMARK    5  A    between atoms: C_23  and  C_25
REMARK    6  A    between atoms: C_25  and  C_26
REMARK    7  A    between atoms: C_30  and  N_32
REMARK                            x       y       z     vdW  Elec       q    Type
REMARK                         _______ _______ _______ _____ _____    ______ ____
ROOT
ATOM      1  C   UNL     1       2.031  -8.556   2.965  0.00  0.00    +0.236 C 
ATOM      2  O   UNL     1       2.868  -7.703   2.764  0.00  0.00    -0.274 OA
ATOM      3  N   UNL     1       2.410  -9.824   3.221  0.00  0.00    -0.263 N 
ATOM      4  C   UNL     1       3.760 -10.153   3.254  0.00  0.00    +0.165 A 
ATOM      5  N   UNL     1       4.798  -9.367   3.067  0.00  0.00    -0.233 NA
ATOM      6  C   UNL     1       6.030  -9.836   3.132  0.00  0.00    +0.124 A 
ATOM      7  C   UNL     1       6.172 -11.158   3.398  0.00  0.00    +0.015 A 
ATOM      8  S   UNL     1       4.464 -11.653   3.550  0.00  0.00    -0.057 S 
ATOM      9  H   UNL     1       1.740 -10.507   3.382  0.00  0.00    +0.157 HD
ENDROOT
BRANCH   1  10
ATOM     10  C   UNL     1       0.567  -8.200   2.929  0.00  0.00    +0.211 C 
BRANCH  10  15
ATOM     11  C   UNL     1       0.060  -4.244  -0.021  0.00  0.00    +0.028 C 
ATOM     12  C   UNL     1       0.177  -4.927   1.144  0.00  0.00    +0.077 C 
ATOM     13  C   UNL     1       0.324  -6.380   1.375  0.00  0.00    +0.259 C 
ATOM     14  O   UNL     1       0.356  -7.174   0.453  0.00  0.00    -0.269 OA
ATOM     15  N   UNL     1       0.419  -6.773   2.634  0.00  0.00    -0.246 N 
ATOM     16  C   UNL     1       0.383  -5.889   3.652  0.00  0.00    +0.121 C 
ATOM     17  S   UNL     1       0.491  -6.200   5.333  0.00  0.00    -0.027 S 
ATOM     18  S   UNL     1       0.205  -4.317   2.825  0.00  0.00    -0.061 S 
BRANCH  11  23
ATOM     19  C   UNL     1      -1.204   1.362   0.048  0.00  0.00    +0.044 C 
ATOM     20  C   UNL     1      -0.873  -0.108   0.029  0.00  0.00    -0.050 A 
ATOM     21  C   UNL     1      -0.513  -0.718  -1.160  0.00  0.00    +0.004 A 
ATOM     22  C   UNL     1      -0.208  -2.062  -1.185  0.00  0.00    +0.008 A 
ATOM     23  C   UNL     1      -0.263  -2.810  -0.004  0.00  0.00    -0.024 A 
ATOM     24  C   UNL     1      -0.627  -2.186   1.195  0.00  0.00    +0.008 A 
ATOM     25  C   UNL     1      -0.924  -0.839   1.203  0.00  0.00    +0.004 A 
ENDBRANCH  11  23
ENDBRANCH  10  15
ENDBRANCH   1  10
BRANCH   7  26
ATOM     26  C   UNL     1       7.428 -11.981   3.534  0.00  0.00    +0.079 C 
BRANCH  26  27
ATOM     27  C   UNL     1       7.882 -11.971   4.971  0.00  0.00    -0.040 A 
ATOM     28  C   UNL     1       8.748 -10.990   5.415  0.00  0.00    +0.004 A 
ATOM     29  C   UNL     1       9.165 -10.981   6.733  0.00  0.00    +0.002 A 
ATOM     30  C   UNL     1       8.715 -11.953   7.606  0.00  0.00    +0.033 A 
ATOM     31  C   UNL     1       7.849 -12.934   7.162  0.00  0.00    +0.126 A 
ATOM     32  C   UNL     1       7.428 -12.941   5.845  0.00  0.00    +0.036 A 
BRANCH  31  33
ATOM     33  N   UNL     1       7.368 -13.976   8.098  0.00  0.00    +0.056 N 
ATOM     34  O   UNL     1       7.733 -13.968   9.250  0.00  0.00    -0.126 OA
ATOM     35  O   UNL     1       6.610 -14.834   7.709  0.00  0.00    -0.126 OA
ENDBRANCH  31  33
ENDBRANCH  26  27
ENDBRANCH   7  26
TORSDOF 6
