REMARK  Name = ZINC58900039
REMARK  8 active torsions:
REMARK  status: ('A' for Active; 'I' for Inactive)
REMARK    1  A    between atoms: C_1  and  C_2
REMARK    2  A    between atoms: N_5  and  C_7
REMARK    3  A    between atoms: C_7  and  N_9
REMARK    4  A    between atoms: C_11  and  N_29
REMARK    5  A    between atoms: C_12  and  C_27
REMARK    6  A    between atoms: C_13  and  C_15
REMARK    7  A    between atoms: C_24  and  O_25
REMARK    8  A    between atoms: O_25  and  C_26
REMARK                            x       y       z     vdW  Elec       q    Type
REMARK                         _______ _______ _______ _____ _____    ______ ____
ROOT
ATOM      1  C   UNL     1      -0.215   1.150   0.230  0.00  0.00    +0.068 C 
ATOM      2  C   UNL     1      -0.137  -0.342   0.030  0.00  0.00    +0.068 A 
ATOM      3  C   UNL     1      -0.046  -0.996  -1.193  0.00  0.00    +0.050 A 
ATOM      4  C   UNL     1       0.005  -2.339  -0.953  0.00  0.00    +0.231 A 
ATOM      5  N   UNL     1      -0.054  -2.515   0.389  0.00  0.00    -0.179 N 
ATOM      6  N   UNL     1      -0.136  -1.244   0.981  0.00  0.00    -0.167 NA
ATOM      7  O   UNL     1       0.099  -3.259  -1.944  0.00  0.00    -0.423 OA
ATOM      8  C   UNL     1       0.419  -2.816  -3.178  0.00  0.00    +0.200 C 
ATOM      9  C   UNL     1       0.394  -1.514  -3.539  0.00  0.00    +0.098 C 
ATOM     10  C   UNL     1      -0.005  -0.417  -2.584  0.00  0.00    +0.105 C 
ENDROOT
BRANCH  10  11
ATOM     11  C   UNL     1      -1.367   0.111  -2.956  0.00  0.00    +0.015 A 
ATOM     12  C   UNL     1      -1.523   1.452  -3.343  0.00  0.00    -0.010 A 
ATOM     13  C   UNL     1      -0.425   2.329  -3.393  0.00  0.00    +0.009 A 
ATOM     14  C   UNL     1      -0.614   3.622  -3.773  0.00  0.00    +0.001 A 
ATOM     15  C   UNL     1      -1.881   4.092  -4.114  0.00  0.00    +0.001 A 
ATOM     16  C   UNL     1      -2.966   3.272  -4.077  0.00  0.00    +0.008 A 
ATOM     17  C   UNL     1      -2.811   1.930  -3.689  0.00  0.00    -0.017 A 
ATOM     18  C   UNL     1      -3.910   1.054  -3.640  0.00  0.00    +0.012 A 
ATOM     19  C   UNL     1      -3.726  -0.238  -3.261  0.00  0.00    +0.046 A 
ATOM     20  C   UNL     1      -2.455  -0.714  -2.924  0.00  0.00    +0.125 A 
BRANCH  20  21
ATOM     21  O   UNL     1      -2.301  -2.013  -2.554  0.00  0.00    -0.495 OA
ATOM     22  C   UNL     1      -3.476  -2.827  -2.540  0.00  0.00    +0.277 C 
ENDBRANCH  20  21
ENDBRANCH  10  11
BRANCH   8  23
ATOM     23  N   UNL     1       0.791  -3.742  -4.120  0.00  0.00    -0.328 N 
ATOM     24  H   UNL     1       0.819  -4.684  -3.891  0.00  0.00    +0.145 HD
ATOM     25  H   UNL     1       1.027  -3.454  -5.016  0.00  0.00    +0.145 HD
ENDBRANCH   8  23
BRANCH   5  26
ATOM     26  C   UNL     1      -0.033  -3.695   1.039  0.00  0.00    +0.167 C 
ATOM     27  S   UNL     1       0.078  -5.157   0.155  0.00  0.00    -0.014 S 
BRANCH  26  28
ATOM     28  N   UNL     1      -0.099  -3.725   2.385  0.00  0.00    -0.337 N 
ATOM     29  H   UNL     1      -0.162  -2.897   2.886  0.00  0.00    +0.144 HD
ATOM     30  H   UNL     1      -0.083  -4.575   2.853  0.00  0.00    +0.144 HD
ENDBRANCH  26  28
ENDBRANCH   5  26
BRANCH   9  31
ATOM     31  C   UNL     1       0.759  -1.163  -4.878  0.00  0.00    +0.101 C 
ATOM     32  N   UNL     1       1.049  -0.885  -5.941  0.00  0.00    -0.191 NA
ENDBRANCH   9  31
TORSDOF 6
