REMARK  Name = ZINC08660869
REMARK  6 active torsions:
REMARK  status: ('A' for Active; 'I' for Inactive)
REMARK    1  A    between atoms: C_1  and  O_2
REMARK    2  A    between atoms: O_2  and  C_3
REMARK    3  A    between atoms: C_6  and  N_12
REMARK    4  A    between atoms: C_7  and  N_9
REMARK    5  A    between atoms: C_21  and  C_35
REMARK    6  A    between atoms: C_35  and  O_36
REMARK                            x       y       z     vdW  Elec       q    Type
REMARK                         _______ _______ _______ _____ _____    ______ ____
ROOT
ATOM      1  N   UNL     1       2.459  -2.458  -4.303  0.00  0.00    -0.208 N 
ATOM      2  C   UNL     1       1.800  -2.791  -5.452  0.00  0.00    +0.231 C 
ATOM      3  O   UNL     1       0.600  -2.845  -5.616  0.00  0.00    -0.274 OA
ATOM      4  C   UNL     1       2.882  -3.082  -6.487  0.00  0.00    +0.101 C 
ATOM      5  C   UNL     1       3.870  -3.699  -5.460  0.00  0.00    +0.106 C 
ATOM      6  C   UNL     1       3.797  -2.789  -4.324  0.00  0.00    +0.231 C 
ATOM      7  O   UNL     1       4.684  -2.418  -3.585  0.00  0.00    -0.274 OA
ATOM      8  C   UNL     1       4.926  -4.592  -6.035  0.00  0.00    +0.056 C 
ATOM      9  C   UNL     1       4.007  -5.847  -6.113  0.00  0.00    -0.030 A 
ATOM     10  C   UNL     1       4.354  -7.070  -5.635  0.00  0.00    +0.005 A 
ATOM     11  C   UNL     1       3.410  -8.091  -5.694  0.00  0.00    +0.000 A 
ATOM     12  C   UNL     1       2.157  -7.840  -6.221  0.00  0.00    +0.000 A 
ATOM     13  C   UNL     1       1.831  -6.591  -6.728  0.00  0.00    +0.004 A 
ATOM     14  C   UNL     1       2.779  -5.594  -6.707  0.00  0.00    -0.035 A 
ATOM     15  C   UNL     1       2.555  -4.268  -7.442  0.00  0.00    +0.062 C 
ATOM     16  C   UNL     1       3.853  -4.191  -8.276  0.00  0.00    -0.035 A 
ATOM     17  C   UNL     1       5.043  -4.291  -7.543  0.00  0.00    -0.030 A 
ATOM     18  C   UNL     1       6.257  -4.150  -8.164  0.00  0.00    +0.005 A 
ATOM     19  C   UNL     1       6.285  -3.935  -9.535  0.00  0.00    +0.000 A 
ATOM     20  C   UNL     1       5.111  -3.869 -10.263  0.00  0.00    +0.000 A 
ATOM     21  C   UNL     1       3.867  -3.998  -9.627  0.00  0.00    +0.004 A 
ENDROOT
BRANCH   1  25
ATOM     22  C   UNL     1       0.606  -0.607  -1.056  0.00  0.00    +0.122 A 
ATOM     23  C   UNL     1       1.173   0.162  -2.062  0.00  0.00    +0.047 A 
ATOM     24  C   UNL     1       1.786  -0.450  -3.137  0.00  0.00    +0.030 A 
ATOM     25  C   UNL     1       1.836  -1.836  -3.211  0.00  0.00    +0.074 A 
ATOM     26  C   UNL     1       1.269  -2.605  -2.204  0.00  0.00    +0.151 A 
ATOM     27  C   UNL     1       0.660  -1.992  -1.127  0.00  0.00    +0.080 A 
BRANCH  26  28
ATOM     28  N   UNL     1       1.321  -4.082  -2.283  0.00  0.00    +0.058 N 
ATOM     29  O   UNL     1       0.827  -4.752  -1.406  0.00  0.00    -0.126 OA
ATOM     30  O   UNL     1       1.858  -4.619  -3.223  0.00  0.00    -0.126 OA
ENDBRANCH  26  28
BRANCH  22  32
ATOM     31  C   UNL     1      -0.017   1.425   0.010  0.00  0.00    +0.277 C 
ATOM     32  O   UNL     1       0.002  -0.004   0.002  0.00  0.00    -0.495 OA
ENDBRANCH  22  32
ENDBRANCH   1  25
BRANCH   8  33
ATOM     33  C   UNL     1       6.239  -4.692  -5.258  0.00  0.00    +0.172 C 
BRANCH  33  34
ATOM     34  O   UNL     1       7.130  -5.578  -5.939  0.00  0.00    -0.394 OA
ATOM     35  H   UNL     1       7.985  -5.690  -5.501  0.00  0.00    +0.209 HD
ENDBRANCH  33  34
ENDBRANCH   8  33
TORSDOF 5
