REMARK  Name = ZINC37525538
REMARK  6 active torsions:
REMARK  status: ('A' for Active; 'I' for Inactive)
REMARK    1  A    between atoms: C_10  and  N_12
REMARK    2  A    between atoms: C_13  and  C_15
REMARK    3  A    between atoms: C_20  and  N_21
REMARK    4  A    between atoms: C_24  and  N_27
REMARK    5  A    between atoms: C_28  and  C_30
REMARK    6  A    between atoms: C_33  and  N_36
REMARK                            x       y       z     vdW  Elec       q    Type
REMARK                         _______ _______ _______ _____ _____    ______ ____
ROOT
ATOM      1  C   UNL     1       6.233   1.806  -1.448  0.00  0.00    +0.058 A 
ATOM      2  C   UNL     1       6.450   1.307  -2.735  0.00  0.00    +0.015 A 
ATOM      3  C   UNL     1       7.279   1.982  -3.604  0.00  0.00    +0.001 A 
ATOM      4  C   UNL     1       7.903   3.155  -3.208  0.00  0.00    +0.002 A 
ATOM      5  C   UNL     1       7.699   3.661  -1.941  0.00  0.00    +0.024 A 
ATOM      6  C   UNL     1       6.861   2.998  -1.053  0.00  0.00    +0.042 A 
ENDROOT
BRANCH   6   7
ATOM      7  N   UNL     1       6.650   3.508   0.221  0.00  0.00    -0.329 N 
ATOM      8  C   UNL     1       5.495   4.373   0.499  0.00  0.00    +0.107 C 
ATOM      9  C   UNL     1       5.994   5.670   1.144  0.00  0.00    +0.041 C 
ATOM     10  C   UNL     1       6.837   5.332   2.375  0.00  0.00    +0.076 C 
ATOM     11  C   UNL     1       8.053   4.504   1.952  0.00  0.00    +0.041 C 
ATOM     12  C   UNL     1       7.574   3.189   1.318  0.00  0.00    +0.107 C 
BRANCH  10  13
ATOM     13  N   UNL     1       7.289   6.571   3.013  0.00  0.00    -0.308 N 
ATOM     14  C   UNL     1       7.593   6.581   4.326  0.00  0.00    +0.244 C 
ATOM     15  O   UNL     1       7.492   5.562   4.981  0.00  0.00    -0.270 OA
ATOM     16  H   UNL     1       7.369   7.384   2.490  0.00  0.00    +0.149 HD
BRANCH  14  17
ATOM     17  C   UNL     1       8.048   7.832   4.970  0.00  0.00    +0.037 A 
ATOM     18  C   UNL     1       8.159   9.005   4.222  0.00  0.00    +0.015 A 
ATOM     19  C   UNL     1       8.585  10.168   4.829  0.00  0.00    +0.033 A 
ATOM     20  C   UNL     1       8.902  10.174   6.176  0.00  0.00    +0.126 A 
ATOM     21  C   UNL     1       8.794   9.014   6.923  0.00  0.00    +0.033 A 
ATOM     22  C   UNL     1       8.364   7.845   6.329  0.00  0.00    +0.015 A 
BRANCH  20  23
ATOM     23  N   UNL     1       9.358  11.426   6.820  0.00  0.00    +0.056 N 
ATOM     24  O   UNL     1       9.453  12.441   6.170  0.00  0.00    -0.126 OA
ATOM     25  O   UNL     1       9.635  11.434   7.997  0.00  0.00    -0.126 OA
ENDBRANCH  20  23
ENDBRANCH  14  17
ENDBRANCH  10  13
ENDBRANCH   6   7
BRANCH   1  27
ATOM     26  N   UNL     1       4.654   0.013  -0.934  0.00  0.00    -0.304 N 
ATOM     27  C   UNL     1       5.347   1.089  -0.514  0.00  0.00    +0.246 C 
ATOM     28  O   UNL     1       5.240   1.470   0.636  0.00  0.00    -0.270 OA
ATOM     29  H   UNL     1       4.739  -0.291  -1.852  0.00  0.00    +0.150 HD
BRANCH  26  39
ATOM     30  C   UNL     1       0.015   1.341   0.088  0.00  0.00    +0.000 A 
ATOM     31  C   UNL     1       1.204   2.046   0.071  0.00  0.00    +0.000 A 
ATOM     32  C   UNL     1       2.404   1.367   0.039  0.00  0.00    +0.006 A 
ATOM     33  C   UNL     1       2.428  -0.022   0.022  0.00  0.00    -0.024 A 
ATOM     34  C   UNL     1       1.244  -0.725   0.034  0.00  0.00    -0.042 A 
ATOM     35  C   UNL     1       0.037  -0.038   0.070  0.00  0.00    +0.004 A 
ATOM     36  C   UNL     1       1.195  -2.230  -0.000  0.00  0.00    +0.035 C 
ATOM     37  C   UNL     1       2.547  -2.821   0.393  0.00  0.00    +0.007 C 
ATOM     38  C   UNL     1       3.633  -2.152  -0.458  0.00  0.00    +0.027 C 
ATOM     39  C   UNL     1       3.773  -0.700  -0.006  0.00  0.00    +0.104 C 
ENDBRANCH  26  39
ENDBRANCH   1  27
TORSDOF 6
