REMARK  Name = ZINC06822361
REMARK  4 active torsions:
REMARK  status: ('A' for Active; 'I' for Inactive)
REMARK    1  A    between atoms: C_4  and  N_7
REMARK    2  A    between atoms: C_10  and  C_15
REMARK    3  A    between atoms: C_15  and  N_57
REMARK    4  A    between atoms: C_19  and  C_21
REMARK                            x       y       z     vdW  Elec       q    Type
REMARK                         _______ _______ _______ _____ _____    ______ ____
ROOT
ATOM      1  C   UNL     1      -0.757  -0.793  -2.003  0.00  0.00    -0.000 C 
ENDROOT
BRANCH   1   5
ATOM      2  N   UNL     1      -3.878   0.658  -5.347  0.00  0.00    -0.284 N 
ATOM      3  C   UNL     1      -3.394  -0.348  -4.533  0.00  0.00    +0.224 A 
ATOM      4  N   UNL     1      -2.375  -0.108  -3.711  0.00  0.00    -0.201 NA
ATOM      5  C   UNL     1      -1.912  -1.069  -2.932  0.00  0.00    +0.120 A 
ATOM      6  N   UNL     1      -2.455  -2.274  -2.968  0.00  0.00    -0.202 NA
ATOM      7  C   UNL     1      -3.478  -2.520  -3.784  0.00  0.00    +0.217 A 
ATOM      8  N   UNL     1      -3.946  -1.556  -4.569  0.00  0.00    -0.181 NA
ATOM      9  N   UNL     1      -4.047  -3.776  -3.817  0.00  0.00    -0.327 N 
ATOM     10  H   UNL     1      -3.529   1.559  -5.264  0.00  0.00    +0.155 HD
ATOM     11  H   UNL     1      -4.790  -3.956  -4.415  0.00  0.00    +0.145 HD
ATOM     12  H   UNL     1      -3.705  -4.480  -3.244  0.00  0.00    +0.145 HD
BRANCH   2  16
ATOM     13  C   UNL     1      -6.833  -0.180  -8.160  0.00  0.00    +0.000 A 
ATOM     14  C   UNL     1      -6.800   1.057  -7.542  0.00  0.00    +0.002 A 
ATOM     15  C   UNL     1      -5.821   1.337  -6.608  0.00  0.00    +0.023 A 
ATOM     16  C   UNL     1      -4.870   0.376  -6.291  0.00  0.00    +0.034 A 
ATOM     17  C   UNL     1      -4.903  -0.863  -6.918  0.00  0.00    +0.023 A 
ATOM     18  C   UNL     1      -5.887  -1.139  -7.847  0.00  0.00    +0.002 A 
ENDBRANCH   2  16
ENDBRANCH   1   5
BRANCH   1  23
ATOM     19  C   UNL     1      -1.961  -1.414   0.009  0.00  0.00    -0.077 C 
ATOM     20  C   UNL     1      -1.270  -1.567   1.381  0.00  0.00    -0.020 C 
ATOM     21  C   UNL     1      -0.599  -0.184   1.590  0.00  0.00    -0.013 C 
ATOM     22  C   UNL     1      -0.175   0.180   0.145  0.00  0.00    -0.037 C 
ATOM     23  N   UNL     1      -1.282  -0.316  -0.697  0.00  0.00    +0.389 N 
ATOM     24  H   UNL     1      -1.950   0.446  -0.863  0.00  0.00    -0.080 HD
BRANCH  22  25
ATOM     25  C   UNL     1      -0.042   1.673  -0.002  0.00  0.00    -0.057 A 
ATOM     26  C   UNL     1      -1.176   2.460  -0.095  0.00  0.00    +0.006 A 
ATOM     27  C   UNL     1      -1.062   3.833  -0.225  0.00  0.00    +0.049 A 
ATOM     28  C   UNL     1       0.193   4.416  -0.273  0.00  0.00    +0.162 A 
ATOM     29  C   UNL     1       1.331   3.626  -0.186  0.00  0.00    +0.162 A 
ATOM     30  C   UNL     1       1.213   2.253  -0.050  0.00  0.00    +0.051 A 
ATOM     31  O   UNL     1       2.563   4.210  -0.235  0.00  0.00    -0.488 OA
ATOM     32  C   UNL     1       2.914   5.023   0.886  0.00  0.00    +0.232 C 
ATOM     33  C   UNL     1       2.363   6.431   0.726  0.00  0.00    +0.082 C 
ATOM     34  C   UNL     1       0.843   6.461   0.728  0.00  0.00    +0.232 C 
ATOM     35  O   UNL     1       0.320   5.768  -0.406  0.00  0.00    -0.488 OA
ENDBRANCH  22  25
ENDBRANCH   1  23
TORSDOF 4
