REMARK  Name = ZINC63761301
REMARK  6 active torsions:
REMARK  status: ('A' for Active; 'I' for Inactive)
REMARK    1  A    between atoms: C_1  and  C_2
REMARK    2  A    between atoms: C_2  and  C_3
REMARK    3  A    between atoms: C_7  and  N_9
REMARK    4  A    between atoms: N_9  and  C_10
REMARK    5  A    between atoms: N_13  and  S_14
REMARK    6  A    between atoms: S_14  and  C_17
REMARK                            x       y       z     vdW  Elec       q    Type
REMARK                         _______ _______ _______ _____ _____    ______ ____
ROOT
ATOM      1  C   UNL     1      -5.370  -2.095  -2.361  0.00  0.00    +0.237 C 
ATOM      2  C   UNL     1      -6.233  -1.336  -3.343  0.00  0.00    +0.192 C 
ATOM      3  N   UNL     1      -6.416  -0.056  -3.208  0.00  0.00    -0.110 NA
ATOM      4  N   UNL     1      -6.808  -2.003  -4.356  0.00  0.00    -0.226 NA
ATOM      5  C   UNL     1      -6.639  -3.299  -4.514  0.00  0.00    +0.089 A 
ATOM      6  C   UNL     1      -7.261  -3.972  -5.596  0.00  0.00    +0.030 A 
ATOM      7  C   UNL     1      -7.091  -5.301  -5.763  0.00  0.00    +0.002 A 
ATOM      8  C   UNL     1      -6.307  -6.081  -4.897  0.00  0.00    +0.002 A 
ATOM      9  C   UNL     1      -5.670  -5.541  -3.834  0.00  0.00    +0.027 A 
ATOM     10  C   UNL     1      -5.804  -4.099  -3.583  0.00  0.00    +0.063 A 
ATOM     11  N   UNL     1      -5.204  -3.542  -2.569  0.00  0.00    -0.359 N 
ATOM     12  H   UNL     1      -4.659  -4.071  -1.966  0.00  0.00    +0.162 HD
ENDROOT
BRANCH   3  13
ATOM     13  S   UNL     1      -7.363   0.764  -4.291  0.00  0.00    +0.100 S 
ATOM     14  O   UNL     1      -6.689   0.713  -5.541  0.00  0.00    -0.146 OA
ATOM     15  O   UNL     1      -8.688   0.279  -4.120  0.00  0.00    -0.146 OA
BRANCH  13  16
ATOM     16  C   UNL     1      -7.378   2.455  -3.795  0.00  0.00    +0.114 A 
ATOM     17  C   UNL     1      -8.341   2.908  -2.913  0.00  0.00    +0.029 A 
ATOM     18  C   UNL     1      -8.353   4.234  -2.524  0.00  0.00    +0.003 A 
ATOM     19  C   UNL     1      -7.402   5.108  -3.016  0.00  0.00    +0.020 A 
ATOM     20  C   UNL     1      -6.438   4.655  -3.899  0.00  0.00    +0.043 A 
ATOM     21  C   UNL     1      -6.423   3.326  -4.284  0.00  0.00    +0.049 A 
ATOM     22 CL   UNL     1      -5.243   5.752  -4.518  0.00  0.00    -0.083 Cl
ENDBRANCH  13  16
ENDBRANCH   3  13
BRANCH   1  23
ATOM     23  N   UNL     1      -4.038  -1.486  -2.371  0.00  0.00    -0.318 N 
ATOM     24  H   UNL     1      -3.575  -1.346  -3.212  0.00  0.00    +0.148 HD
BRANCH  23  29
ATOM     25  C   UNL     1      -3.416  -1.079   1.228  0.00  0.00    -0.046 A 
ATOM     26  C   UNL     1      -2.241  -0.350   1.209  0.00  0.00    +0.004 A 
ATOM     27  C   UNL     1      -1.661   0.002   0.004  0.00  0.00    +0.002 A 
ATOM     28  C   UNL     1      -2.255  -0.373  -1.186  0.00  0.00    +0.023 A 
ATOM     29  C   UNL     1      -3.435  -1.105  -1.170  0.00  0.00    +0.029 A 
ATOM     30  C   UNL     1      -4.012  -1.462   0.042  0.00  0.00    +0.026 A 
BRANCH  25  32
ATOM     31  C   UNL     1      -3.491  -2.812   2.999  0.00  0.00    +0.009 C 
ATOM     32  C   UNL     1      -4.044  -1.460   2.543  0.00  0.00    +0.032 C 
ENDBRANCH  25  32
ENDBRANCH  23  29
ENDBRANCH   1  23
TORSDOF 5
