REMARK  Name = ZINC01233398
REMARK  6 active torsions:
REMARK  status: ('A' for Active; 'I' for Inactive)
REMARK    1  A    between atoms: C_3  and  O_10
REMARK    2  A    between atoms: C_6  and  O_7
REMARK    3  A    between atoms: O_7  and  C_8
REMARK    4  A    between atoms: O_10  and  C_11
REMARK    5  A    between atoms: C_14  and  O_17
REMARK    6  A    between atoms: O_17  and  C_18
REMARK                            x       y       z     vdW  Elec       q    Type
REMARK                         _______ _______ _______ _____ _____    ______ ____
ROOT
ATOM      1  O   UNL     1       1.231  -2.041  -0.020  0.00  0.00    -0.456 OA
ENDROOT
BRANCH   1   4
ATOM      2  C   UNL     1       1.519   1.384  -1.214  0.00  0.00    +0.051 A 
ATOM      3  C   UNL     1       1.541   0.004  -1.197  0.00  0.00    +0.050 A 
ATOM      4  C   UNL     1       1.210  -0.681  -0.037  0.00  0.00    +0.129 A 
ATOM      5  C   UNL     1       0.858   0.021   1.107  0.00  0.00    +0.050 A 
ATOM      6  C   UNL     1       0.837   1.402   1.090  0.00  0.00    +0.051 A 
ATOM      7  C   UNL     1       1.167   2.086  -0.070  0.00  0.00    +0.143 A 
BRANCH   7   8
ATOM      8  O   UNL     1       1.146   3.446  -0.086  0.00  0.00    -0.387 OA
BRANCH   8   9
ATOM      9  C   UNL     1       0.786   4.006   1.094  0.00  0.00    +0.292 C 
ATOM     10  N   UNL     1       0.484   4.475   2.083  0.00  0.00    -0.149 NA
ENDBRANCH   8   9
ENDBRANCH   7   8
ENDBRANCH   1   4
BRANCH   1  11
ATOM     11  C   UNL     1       2.435  -2.662  -0.140  0.00  0.00    +0.129 A 
ATOM     12  C   UNL     1       3.603  -1.914  -0.151  0.00  0.00    +0.050 A 
ATOM     13  C   UNL     1       4.826  -2.546  -0.267  0.00  0.00    +0.051 A 
ATOM     14  C   UNL     1       4.885  -3.927  -0.384  0.00  0.00    +0.143 A 
ATOM     15  C   UNL     1       3.716  -4.674  -0.377  0.00  0.00    +0.051 A 
ATOM     16  C   UNL     1       2.494  -4.043  -0.256  0.00  0.00    +0.050 A 
BRANCH  14  17
ATOM     17  O   UNL     1       6.088  -4.548  -0.503  0.00  0.00    -0.387 OA
BRANCH  17  18
ATOM     18  C   UNL     1       7.148  -3.704  -0.495  0.00  0.00    +0.292 C 
ATOM     19  N   UNL     1       8.036  -2.996  -0.488  0.00  0.00    -0.149 NA
ENDBRANCH  17  18
ENDBRANCH  14  17
ENDBRANCH   1  11
TORSDOF 6
