REMARK  Name = ZINC15142269
REMARK  8 active torsions:
REMARK  status: ('A' for Active; 'I' for Inactive)
REMARK    1  A    between atoms: C_1  and  C_2
REMARK    2  A    between atoms: C_5  and  C_35
REMARK    3  A    between atoms: C_10  and  C_12
REMARK    4  A    between atoms: C_12  and  N_69
REMARK    5  A    between atoms: N_15  and  C_18
REMARK    6  A    between atoms: C_21  and  S_27
REMARK    7  A    between atoms: C_23  and  N_24
REMARK    8  A    between atoms: S_27  and  N_30
REMARK                            x       y       z     vdW  Elec       q    Type
REMARK                         _______ _______ _______ _____ _____    ______ ____
ROOT
ATOM      1  C   UNL     1       0.182   1.316  -0.021  0.00  0.00    -0.059 C 
ATOM      2  C   UNL     1      -0.500   1.799   1.260  0.00  0.00    +0.086 C 
ATOM      3  N   UNL     1      -0.801   3.232   1.143  0.00  0.00    -0.332 N 
ATOM      4  C   UNL     1      -1.681   3.490  -0.005  0.00  0.00    +0.086 C 
ATOM      5  C   UNL     1      -0.998   3.008  -1.287  0.00  0.00    -0.059 C 
ATOM      6  N   UNL     1      -0.722   1.562  -1.165  0.00  0.00    +0.387 N 
ATOM      7  H   UNL     1      -1.606   1.066  -1.003  0.00  0.00    -0.081 HD
ENDROOT
BRANCH   3   8
ATOM      8  C   UNL     1      -1.361   3.725   2.324  0.00  0.00    +0.060 A 
ATOM      9  C   UNL     1      -2.595   3.255   2.758  0.00  0.00    +0.027 A 
ATOM     10  C   UNL     1      -3.143   3.740   3.929  0.00  0.00    +0.030 A 
ATOM     11  C   UNL     1      -2.471   4.700   4.663  0.00  0.00    +0.108 A 
ATOM     12  C   UNL     1      -1.246   5.175   4.230  0.00  0.00    +0.063 A 
ATOM     13  C   UNL     1      -0.690   4.690   3.063  0.00  0.00    +0.149 A 
BRANCH  13  14
ATOM     14  N   UNL     1       0.622   5.197   2.601  0.00  0.00    +0.058 N 
ATOM     15  O   UNL     1       1.210   6.043   3.250  0.00  0.00    -0.126 OA
ATOM     16  O   UNL     1       1.112   4.769   1.572  0.00  0.00    -0.126 OA
ENDBRANCH  13  14
BRANCH  11  17
ATOM     17  S   UNL     1      -3.178   5.322   6.152  0.00  0.00    +0.061 S 
ATOM     18  O   UNL     1      -4.072   4.324   6.626  0.00  0.00    -0.153 OA
ATOM     19  O   UNL     1      -2.101   5.815   6.938  0.00  0.00    -0.153 OA
BRANCH  17  20
ATOM     20  N   UNL     1      -4.105   6.633   5.745  0.00  0.00    -0.177 NA
ATOM     21  C   UNL     1      -3.641   8.027   5.690  0.00  0.00    +0.109 C 
ATOM     22  C   UNL     1      -4.851   8.897   5.290  0.00  0.00    +0.018 C 
ATOM     23  C   UNL     1      -6.061   8.016   5.701  0.00  0.00    +0.018 C 
ATOM     24  C   UNL     1      -5.534   6.595   5.383  0.00  0.00    +0.109 C 
ENDBRANCH  17  20
ENDBRANCH  11  17
ENDBRANCH   3   8
BRANCH   6  25
ATOM     25  C   UNL     1      -0.109   1.057  -2.412  0.00  0.00    +0.019 C 
BRANCH  25  33
ATOM     26  C   UNL     1       3.433  -0.435  -3.351  0.00  0.00    +0.009 C 
ATOM     27  C   UNL     1       2.651  -0.890  -4.584  0.00  0.00    +0.004 C 
ATOM     28  C   UNL     1       2.700  -2.417  -4.685  0.00  0.00    +0.009 C 
ATOM     29  C   UNL     1       2.109  -3.033  -3.415  0.00  0.00    +0.004 C 
ATOM     30  C   UNL     1       0.644  -2.605  -3.278  0.00  0.00    +0.111 C 
ATOM     31  N   UNL     1       0.574  -1.138  -3.326  0.00  0.00    -0.303 N 
ATOM     32  C   UNL     1       1.187  -0.438  -4.463  0.00  0.00    +0.111 C 
ATOM     33  C   UNL     1      -0.045  -0.448  -2.348  0.00  0.00    +0.199 C 
ATOM     34  O   UNL     1      -0.552  -1.037  -1.417  0.00  0.00    -0.278 OA
ATOM     35  C   UNL     1       2.188  -4.559  -3.503  0.00  0.00    +0.009 C 
ENDBRANCH  25  33
ENDBRANCH   6  25
TORSDOF 6
