REMARK  Name = ZINC44857331
REMARK  12 active torsions:
REMARK  status: ('A' for Active; 'I' for Inactive)
REMARK    1  A    between atoms: C_1  and  C_2
REMARK    2  A    between atoms: C_5  and  N_8
REMARK    3  A    between atoms: N_8  and  C_9
REMARK    4  A    between atoms: N_8  and  S_26
REMARK    5  A    between atoms: C_9  and  C_10
REMARK    6  A    between atoms: N_12  and  C_13
REMARK    7  A    between atoms: C_13  and  C_14
REMARK    8  A    between atoms: C_17  and  C_20
REMARK    9  A    between atoms: C_20  and  N_21
REMARK   10  A    between atoms: S_26  and  C_29
REMARK   11  A    between atoms: C_32  and  S_35
REMARK   12  A    between atoms: S_35  and  C_36
REMARK                            x       y       z     vdW  Elec       q    Type
REMARK                         _______ _______ _______ _____ _____    ______ ____
ROOT
ATOM      1  N   UNL     1       0.058  -4.167  -0.021  0.00  0.00    -0.194 N 
ENDROOT
BRANCH   1   6
ATOM      2  C   UNL     1       0.026   1.503   0.027  0.00  0.00    +0.044 C 
ATOM      3  C   UNL     1       0.035  -0.004   0.014  0.00  0.00    -0.050 A 
ATOM      4  C   UNL     1      -0.737  -0.690  -0.905  0.00  0.00    +0.005 A 
ATOM      5  C   UNL     1      -0.732  -2.071  -0.919  0.00  0.00    +0.025 A 
ATOM      6  C   UNL     1       0.051  -2.771  -0.009  0.00  0.00    +0.052 A 
ATOM      7  C   UNL     1       0.825  -2.078   0.912  0.00  0.00    +0.025 A 
ATOM      8  C   UNL     1       0.820  -0.697   0.918  0.00  0.00    +0.005 A 
ENDBRANCH   1   6
BRANCH   1   9
ATOM      9  S   UNL     1      -0.415  -5.009   1.325  0.00  0.00    +0.075 S 
ATOM     10  O   UNL     1       0.303  -6.236   1.309  0.00  0.00    -0.150 OA
ATOM     11  O   UNL     1      -0.348  -4.101   2.416  0.00  0.00    -0.150 OA
BRANCH   9  12
ATOM     12  C   UNL     1      -2.115  -5.418   1.112  0.00  0.00    +0.109 A 
ATOM     13  C   UNL     1      -3.095  -4.548   1.557  0.00  0.00    +0.030 A 
ATOM     14  C   UNL     1      -4.428  -4.866   1.393  0.00  0.00    +0.016 A 
ATOM     15  C   UNL     1      -4.786  -6.060   0.779  0.00  0.00    +0.008 A 
ATOM     16  C   UNL     1      -3.800  -6.932   0.334  0.00  0.00    +0.016 A 
ATOM     17  C   UNL     1      -2.468  -6.605   0.497  0.00  0.00    +0.030 A 
BRANCH  15  18
ATOM     18  S   UNL     1      -6.487  -6.470   0.568  0.00  0.00    -0.129 S 
ATOM     19  C   UNL     1      -6.450  -8.084  -0.259  0.00  0.00    +0.090 C 
ENDBRANCH  15  18
ENDBRANCH   9  12
ENDBRANCH   1   9
BRANCH   1  20
ATOM     20  C   UNL     1       0.484  -4.888  -1.223  0.00  0.00    +0.227 C 
BRANCH  20  21
ATOM     21  C   UNL     1       1.985  -5.024  -1.222  0.00  0.00    +0.232 C 
ATOM     22  O   UNL     1       2.635  -4.564  -0.307  0.00  0.00    -0.274 OA
ATOM     23  N   UNL     1       2.605  -5.656  -2.238  0.00  0.00    -0.310 N 
ATOM     24  H   UNL     1       2.086  -6.023  -2.970  0.00  0.00    +0.149 HD
BRANCH  23  25
ATOM     25  C   UNL     1       4.064  -5.788  -2.237  0.00  0.00    +0.139 C 
BRANCH  25  26
ATOM     26  C   UNL     1       4.503  -6.529  -3.474  0.00  0.00    -0.030 A 
ATOM     27  C   UNL     1       4.604  -7.907  -3.454  0.00  0.00    +0.005 A 
ATOM     28  C   UNL     1       5.006  -8.587  -4.589  0.00  0.00    +0.002 A 
ATOM     29  C   UNL     1       5.306  -7.888  -5.743  0.00  0.00    -0.064 A 
ATOM     30  C   UNL     1       5.205  -6.510  -5.763  0.00  0.00    +0.002 A 
ATOM     31  C   UNL     1       4.798  -5.830  -4.629  0.00  0.00    +0.005 A 
BRANCH  29  32
ATOM     32  C   UNL     1       5.746  -8.629  -6.979  0.00  0.00    -0.043 C 
BRANCH  32  33
ATOM     33  N   UNL     1       4.569  -8.974  -7.788  0.00  0.00    +0.382 N 
ATOM     34  C   UNL     1       3.965  -7.745  -8.363  0.00  0.00    -0.078 C 
ATOM     35  C   UNL     1       3.158  -8.279  -9.573  0.00  0.00    -0.020 C 
ATOM     36  C   UNL     1       4.066  -9.403 -10.124  0.00  0.00    -0.020 C 
ATOM     37  C   UNL     1       4.970  -9.805  -8.944  0.00  0.00    -0.078 C 
ATOM     38  H   UNL     1       3.891  -9.465  -7.225  0.00  0.00    -0.081 HD
ENDBRANCH  32  33
ENDBRANCH  29  32
ENDBRANCH  25  26
ENDBRANCH  23  25
ENDBRANCH  20  21
ENDBRANCH   1  20
TORSDOF 10
