REMARK  Name = ZINC33937018
REMARK  10 active torsions:
REMARK  status: ('A' for Active; 'I' for Inactive)
REMARK    1  A    between atoms: C_1  and  C_2
REMARK    2  A    between atoms: C_2  and  C_3
REMARK    3  A    between atoms: C_3  and  C_5
REMARK    4  A    between atoms: C_3  and  N_17
REMARK    5  A    between atoms: N_9  and  C_10
REMARK    6  A    between atoms: C_10  and  C_11
REMARK    7  A    between atoms: N_17  and  C_18
REMARK    8  A    between atoms: N_17  and  C_24
REMARK    9  A    between atoms: C_18  and  C_19
REMARK   10  A    between atoms: C_24  and  C_25
REMARK                            x       y       z     vdW  Elec       q    Type
REMARK                         _______ _______ _______ _____ _____    ______ ____
ROOT
ATOM      1  N   UNL     1       2.194   1.051  -1.682  0.00  0.00    +0.392 N 
ATOM      2  H   UNL     1       3.116   1.138  -1.280  0.00  0.00    -0.080 HD
ENDROOT
BRANCH   1   3
ATOM      3  C   UNL     1       1.278   0.484  -0.684  0.00  0.00    +0.003 C 
BRANCH   3   4
ATOM      4  C   UNL     1      -0.050   0.186  -1.332  0.00  0.00    +0.138 A 
ATOM      5  N   UNL     1      -0.256  -0.110  -2.592  0.00  0.00    -0.115 NA
ATOM      6  N   UNL     1      -1.520  -0.296  -2.756  0.00  0.00    -0.023 NA
ATOM      7  N   UNL     1      -2.126  -0.127  -1.632  0.00  0.00    -0.044 NA
ATOM      8  N   UNL     1      -1.253   0.166  -0.729  0.00  0.00    -0.228 N 
BRANCH   8   9
ATOM      9  C   UNL     1      -1.521   0.432   0.687  0.00  0.00    +0.178 C 
BRANCH   9  10
ATOM     10  C   UNL     1      -1.621   1.942   0.912  0.00  0.00    +0.140 C 
ATOM     11  C   UNL     1      -1.980   2.242   2.389  0.00  0.00    +0.035 C 
ATOM     12  C   UNL     1      -1.409   3.678   2.546  0.00  0.00    +0.031 C 
ATOM     13  C   UNL     1      -0.162   3.635   1.636  0.00  0.00    +0.160 C 
ATOM     14  O   UNL     1      -0.344   2.564   0.701  0.00  0.00    -0.375 OA
ENDBRANCH   9  10
ENDBRANCH   8   9
ENDBRANCH   3   4
BRANCH   3  16
ATOM     15  C   UNL     1       3.171  -0.493   0.621  0.00  0.00    +0.002 C 
ATOM     16  C   UNL     1       1.872  -0.809  -0.122  0.00  0.00    -0.011 C 
ENDBRANCH   3  16
ENDBRANCH   1   3
BRANCH   1  17
ATOM     17  C   UNL     1       2.252   0.166  -2.853  0.00  0.00    -0.034 C 
BRANCH  17  18
ATOM     18  C   UNL     1       3.562   0.366  -3.570  0.00  0.00    -0.027 A 
ATOM     19  C   UNL     1       4.701  -0.364  -3.486  0.00  0.00    +0.009 A 
ATOM     20  C   UNL     1       5.794   0.009  -4.246  0.00  0.00    +0.008 A 
ATOM     21  C   UNL     1       5.694   1.093  -5.053  0.00  0.00    +0.045 A 
ATOM     22  S   UNL     1       4.014   1.621  -4.756  0.00  0.00    -0.103 S 
ENDBRANCH  17  18
ENDBRANCH   1  17
BRANCH   1  23
ATOM     23  C   UNL     1       1.711   2.376  -2.093  0.00  0.00    -0.036 C 
BRANCH  23  24
ATOM     24  C   UNL     1       0.416   2.227  -2.848  0.00  0.00    +0.001 A 
ATOM     25  C   UNL     1      -0.766   2.308  -2.185  0.00  0.00    +0.017 A 
ATOM     26  C   UNL     1      -2.006   2.159  -2.946  0.00  0.00    +0.002 A 
ATOM     27  C   UNL     1      -3.254   2.232  -2.315  0.00  0.00    +0.059 A 
ATOM     28  C   UNL     1      -4.407   2.090  -3.059  0.00  0.00    +0.163 A 
ATOM     29  C   UNL     1      -4.332   1.874  -4.438  0.00  0.00    +0.164 A 
ATOM     30  C   UNL     1      -3.103   1.798  -5.069  0.00  0.00    +0.075 A 
ATOM     31  C   UNL     1      -1.933   1.938  -4.335  0.00  0.00    +0.053 A 
ATOM     32  N   UNL     1      -0.698   1.866  -4.948  0.00  0.00    -0.322 N 
ATOM     33  H   UNL     1      -0.648   1.714  -5.905  0.00  0.00    +0.169 HD
ATOM     34  C   UNL     1       0.435   2.009  -4.240  0.00  0.00    +0.251 A 
ATOM     35  O   UNL     1       1.508   1.944  -4.816  0.00  0.00    -0.268 OA
ATOM     36  O   UNL     1      -5.465   1.740  -5.180  0.00  0.00    -0.485 OA
ATOM     37  C   UNL     1      -6.671   1.447  -4.467  0.00  0.00    +0.270 C 
ATOM     38  C   UNL     1      -6.758   2.389  -3.259  0.00  0.00    +0.270 C 
ATOM     39  O   UNL     1      -5.613   2.160  -2.430  0.00  0.00    -0.485 OA
ENDBRANCH  23  24
ENDBRANCH   1  23
TORSDOF 9
