REMARK  Name = ZINC22117179
REMARK  8 active torsions:
REMARK  status: ('A' for Active; 'I' for Inactive)
REMARK    1  A    between atoms: C_1  and  C_2
REMARK    2  A    between atoms: C_5  and  C_8
REMARK    3  A    between atoms: C_11  and  C_14
REMARK    4  A    between atoms: C_19  and  C_21
REMARK    5  A    between atoms: C_21  and  S_22
REMARK    6  A    between atoms: S_22  and  C_23
REMARK    7  A    between atoms: N_27  and  C_28
REMARK    8  A    between atoms: C_31  and  C_34
REMARK                            x       y       z     vdW  Elec       q    Type
REMARK                         _______ _______ _______ _____ _____    ______ ____
ROOT
ATOM      1  C   UNL     1      -3.595  -9.261  -5.253  0.00  0.00    +0.069 C 
ATOM      2  N   UNL     1      -3.050  -8.396  -4.470  0.00  0.00    -0.181 NA
ATOM      3  N   UNL     1      -3.317  -7.072  -4.811  0.00  0.00    -0.181 N 
ATOM      4  C   UNL     1      -4.178  -7.051  -6.004  0.00  0.00    +0.173 C 
ATOM      5  C   UNL     1      -4.378  -8.545  -6.331  0.00  0.00    +0.090 C 
ATOM      6  C   UNL     1      -2.865  -5.986  -4.152  0.00  0.00    +0.246 C 
ATOM      7  O   UNL     1      -3.161  -4.875  -4.538  0.00  0.00    -0.273 OA
ENDROOT
BRANCH   1  12
ATOM      8  C   UNL     1      -3.124 -14.970  -4.734  0.00  0.00    +0.044 C 
ATOM      9  C   UNL     1      -3.247 -13.474  -4.870  0.00  0.00    -0.050 A 
ATOM     10  C   UNL     1      -2.613 -12.645  -3.962  0.00  0.00    +0.004 A 
ATOM     11  C   UNL     1      -2.721 -11.275  -4.080  0.00  0.00    +0.010 A 
ATOM     12  C   UNL     1      -3.474 -10.725  -5.120  0.00  0.00    -0.002 A 
ATOM     13  C   UNL     1      -4.117 -11.568  -6.030  0.00  0.00    +0.010 A 
ATOM     14  C   UNL     1      -3.995 -12.936  -5.903  0.00  0.00    +0.004 A 
ENDBRANCH   1  12
BRANCH   4  15
ATOM     15  C   UNL     1      -5.497  -6.392  -5.695  0.00  0.00    +0.128 A 
ATOM     16  C   UNL     1      -6.179  -5.573  -6.516  0.00  0.00    +0.046 A 
ATOM     17  C   UNL     1      -7.353  -5.188  -5.829  0.00  0.00    +0.041 A 
ATOM     18  C   UNL     1      -7.318  -5.795  -4.629  0.00  0.00    +0.195 A 
ATOM     19  O   UNL     1      -6.195  -6.527  -4.556  0.00  0.00    -0.466 OA
ENDBRANCH   4  15
BRANCH   6  20
ATOM     20  C   UNL     1      -1.992  -6.153  -2.935  0.00  0.00    +0.175 C 
BRANCH  20  21
ATOM     21  S   UNL     1      -1.552  -4.524  -2.280  0.00  0.00    -0.075 S 
BRANCH  21  22
ATOM     22  C   UNL     1      -0.560  -5.005  -0.905  0.00  0.00    +0.214 A 
ATOM     23  N   UNL     1      -0.275  -6.235  -0.537  0.00  0.00    -0.101 NA
ATOM     24  N   UNL     1       0.472  -6.232   0.507  0.00  0.00    -0.022 NA
ATOM     25  N   UNL     1       0.724  -5.024   0.879  0.00  0.00    -0.038 NA
ATOM     26  N   UNL     1       0.058  -4.173  -0.021  0.00  0.00    -0.187 N 
BRANCH  26  27
ATOM     27  C   UNL     1       0.039  -2.771  -0.013  0.00  0.00    +0.070 A 
ATOM     28  C   UNL     1       0.041  -2.082   1.192  0.00  0.00    +0.028 A 
ATOM     29  C   UNL     1       0.023  -0.700   1.196  0.00  0.00    +0.005 A 
ATOM     30  C   UNL     1       0.002  -0.004   0.002  0.00  0.00    -0.050 A 
ATOM     31  C   UNL     1      -0.006  -0.688  -1.200  0.00  0.00    +0.005 A 
ATOM     32  C   UNL     1       0.018  -2.069  -1.211  0.00  0.00    +0.028 A 
ATOM     33  C   UNL     1      -0.018   1.503   0.010  0.00  0.00    +0.044 C 
ENDBRANCH  26  27
ENDBRANCH  21  22
ENDBRANCH  20  21
ENDBRANCH   6  20
TORSDOF 6
