REMARK  Name = ZINC37580561
REMARK  2 active torsions:
REMARK  status: ('A' for Active; 'I' for Inactive)
REMARK    1  A    between atoms: C_3  and  C_6
REMARK    2  A    between atoms: C_13  and  N_23
REMARK                            x       y       z     vdW  Elec       q    Type
REMARK                         _______ _______ _______ _____ _____    ______ ____
ROOT
ATOM      1  C   UNL     1       3.560   0.608  -0.014  0.00  0.00    +0.282 C 
ATOM      2  O   UNL     1       2.346   0.634   0.060  0.00  0.00    -0.267 OA
ATOM      3  N   UNL     1       4.203  -0.571  -0.133  0.00  0.00    -0.290 N 
ATOM      4  C   UNL     1       3.462  -1.838  -0.252  0.00  0.00    +0.115 C 
ATOM      5  C   UNL     1       3.767  -2.437  -1.625  0.00  0.00    +0.075 C 
ATOM      6  C   UNL     1       5.245  -2.411  -1.902  0.00  0.00    +0.054 A 
ATOM      7  C   UNL     1       6.115  -1.582  -1.237  0.00  0.00    +0.031 A 
ATOM      8  C   UNL     1       7.473  -1.620  -1.577  0.00  0.00    +0.131 A 
ATOM      9  N   UNL     1       7.881  -2.459  -2.521  0.00  0.00    -0.199 NA
ATOM     10  C   UNL     1       7.014  -3.251  -3.134  0.00  0.00    +0.220 A 
ATOM     11  N   UNL     1       5.726  -3.231  -2.835  0.00  0.00    -0.219 NA
ATOM     12  N   UNL     1       7.467  -4.120  -4.110  0.00  0.00    -0.295 N 
ATOM     13  C   UNL     1       8.893  -4.180  -4.470  0.00  0.00    +0.136 C 
ATOM     14  C   UNL     1       9.340  -5.646  -4.432  0.00  0.00    +0.179 C 
ATOM     15  O   UNL     1       8.451  -6.430  -5.232  0.00  0.00    -0.377 OA
ATOM     16  C   UNL     1       7.099  -6.438  -4.766  0.00  0.00    +0.179 C 
ATOM     17  C   UNL     1       6.538  -5.017  -4.816  0.00  0.00    +0.136 C 
ATOM     18  C   UNL     1       5.669  -0.642  -0.154  0.00  0.00    +0.148 C 
ENDROOT
BRANCH   8  19
ATOM     19  N   UNL     1       8.379  -0.791  -0.935  0.00  0.00    -0.310 N 
ATOM     20  C   UNL     1       9.150  -1.266   0.225  0.00  0.00    +0.134 C 
ATOM     21  C   UNL     1      10.631  -0.956  -0.019  0.00  0.00    +0.178 C 
ATOM     22  O   UNL     1      10.774   0.427  -0.354  0.00  0.00    -0.377 OA
ATOM     23  C   UNL     1      10.108   0.809  -1.560  0.00  0.00    +0.178 C 
ATOM     24  C   UNL     1       8.604   0.588  -1.398  0.00  0.00    +0.134 C 
ENDBRANCH   8  19
BRANCH   1  27
ATOM     25  C   UNL     1       4.887   4.008   0.064  0.00  0.00    +0.042 A 
ATOM     26  C   UNL     1       3.801   3.120   0.011  0.00  0.00    +0.054 A 
ATOM     27  C   UNL     1       4.325   1.859   0.027  0.00  0.00    +0.189 A 
ATOM     28  O   UNL     1       5.668   1.965   0.086  0.00  0.00    -0.458 OA
ATOM     29  C   UNL     1       6.011   3.260   0.109  0.00  0.00    +0.196 A 
ENDBRANCH   1  27
TORSDOF 2
