REMARK  Name = ZINC39922879
REMARK  3 active torsions:
REMARK  status: ('A' for Active; 'I' for Inactive)
REMARK    1  A    between atoms: C_10  and  C_11
REMARK    2  A    between atoms: C_13  and  C_17
REMARK    3  A    between atoms: N_19  and  N_20
REMARK                            x       y       z     vdW  Elec       q    Type
REMARK                         _______ _______ _______ _____ _____    ______ ____
ROOT
ATOM      1  C   UNL     1       6.957   2.410  -1.379  0.00  0.00    +0.263 C 
ATOM      2  O   UNL     1       7.524   1.764  -2.234  0.00  0.00    -0.271 OA
ATOM      3  N   UNL     1       6.771   3.734  -1.548  0.00  0.00    -0.204 N 
ATOM      4  H   UNL     1       6.317   4.251  -0.864  0.00  0.00    +0.177 HD
ENDROOT
BRANCH   3   5
ATOM      5  N   UNL     1       7.231   4.364  -2.711  0.00  0.00    -0.174 NA
ATOM      6  C   UNL     1       7.149   5.667  -2.828  0.00  0.00    +0.153 C 
ATOM      7  C   UNL     1       6.745   6.642  -1.789  0.00  0.00    +0.029 A 
ATOM      8  C   UNL     1       6.355   6.511  -0.461  0.00  0.00    +0.027 A 
ATOM      9  C   UNL     1       6.031   7.636   0.272  0.00  0.00    +0.019 A 
ATOM     10  C   UNL     1       6.095   8.889  -0.315  0.00  0.00    +0.017 A 
ATOM     11  C   UNL     1       6.481   9.028  -1.633  0.00  0.00    +0.025 A 
ATOM     12  C   UNL     1       6.811   7.907  -2.386  0.00  0.00    +0.043 A 
ATOM     13  N   UNL     1       7.224   7.771  -3.708  0.00  0.00    -0.280 N 
ATOM     14  C   UNL     1       7.444   6.483  -4.023  0.00  0.00    +0.269 C 
ATOM     15  O   UNL     1       7.816   6.064  -5.104  0.00  0.00    -0.268 OA
ATOM     16 BR   UNL     1       5.498   7.466   2.079  0.00  0.00    -0.050 Br
ATOM     17  H   UNL     1       7.343   8.512  -4.322  0.00  0.00    +0.155 HD
ENDBRANCH   3   5
BRANCH   1  20
ATOM     18  C   UNL     1       4.887   0.112  -0.139  0.00  0.00    +0.092 C 
ATOM     19  C   UNL     1       4.971   1.456  -0.222  0.00  0.00    +0.041 C 
ATOM     20  C   UNL     1       6.461   1.733  -0.127  0.00  0.00    +0.240 C 
ATOM     21  N   UNL     1       7.045   0.388   0.007  0.00  0.00    -0.170 NA
ATOM     22  N   UNL     1       6.125  -0.432  -0.003  0.00  0.00    -0.153 NA
BRANCH  18  32
ATOM     23  C   UNL     1       2.741  -3.530   2.736  0.00  0.00    +0.001 A 
ATOM     24  C   UNL     1       3.935  -2.815   2.798  0.00  0.00    +0.001 A 
ATOM     25  C   UNL     1       4.240  -1.878   1.858  0.00  0.00    +0.009 A 
ATOM     26  C   UNL     1       3.341  -1.626   0.811  0.00  0.00    -0.009 A 
ATOM     27  C   UNL     1       2.126  -2.352   0.747  0.00  0.00    -0.017 A 
ATOM     28  C   UNL     1       1.845  -3.311   1.735  0.00  0.00    +0.008 A 
ATOM     29  C   UNL     1       1.225  -2.101  -0.301  0.00  0.00    +0.008 A 
ATOM     30  C   UNL     1       1.521  -1.166  -1.247  0.00  0.00    +0.001 A 
ATOM     31  C   UNL     1       2.708  -0.445  -1.199  0.00  0.00    +0.011 A 
ATOM     32  C   UNL     1       3.624  -0.660  -0.184  0.00  0.00    +0.010 A 
ENDBRANCH  18  32
ENDBRANCH   1  20
TORSDOF 3
