REMARK  Name = ZINC35729627
REMARK  11 active torsions:
REMARK  status: ('A' for Active; 'I' for Inactive)
REMARK    1  A    between atoms: C_1  and  C_2
REMARK    2  A    between atoms: C_2  and  N_3
REMARK    3  A    between atoms: C_4  and  C_36
REMARK    4  A    between atoms: C_5  and  C_30
REMARK    5  A    between atoms: C_6  and  C_11
REMARK    6  A    between atoms: C_14  and  N_17
REMARK    7  A    between atoms: C_18  and  C_20
REMARK    8  A    between atoms: C_30  and  O_32
REMARK    9  A    between atoms: O_32  and  C_33
REMARK   10  A    between atoms: C_33  and  C_34
REMARK   11  A    between atoms: C_33  and  C_35
REMARK                            x       y       z     vdW  Elec       q    Type
REMARK                         _______ _______ _______ _____ _____    ______ ____
ROOT
ATOM      1  C   UNL     1      -5.474  -0.579   0.350  0.00  0.00    -0.022 A 
ATOM      2  C   UNL     1      -5.353   0.796   0.267  0.00  0.00    +0.007 A 
ATOM      3  C   UNL     1      -6.467   1.599   0.413  0.00  0.00    +0.023 A 
ATOM      4  C   UNL     1      -7.710   1.024   0.643  0.00  0.00    +0.033 A 
ATOM      5  C   UNL     1      -7.829  -0.358   0.725  0.00  0.00    +0.023 A 
ATOM      6  C   UNL     1      -6.711  -1.155   0.574  0.00  0.00    +0.007 A 
ENDROOT
BRANCH   1  10
ATOM      7  N   UNL     1      -1.623  -0.623   0.360  0.00  0.00    -0.286 N 
ATOM      8  C   UNL     1      -2.227  -1.040   1.510  0.00  0.00    +0.021 C 
ATOM      9  C   UNL     1      -3.511  -1.460   1.510  0.00  0.00    +0.078 C 
ATOM     10  C   UNL     1      -4.256  -1.452   0.191  0.00  0.00    +0.141 C 
ATOM     11  N   UNL     1      -3.514  -0.983  -0.991  0.00  0.00    -0.315 N 
ATOM     12  C   UNL     1      -2.235  -0.590  -0.831  0.00  0.00    +0.138 C 
ATOM     13  S   UNL     1      -1.361  -0.036  -2.195  0.00  0.00    -0.018 S 
ATOM     14  C   UNL     1      -1.450  -1.032   2.801  0.00  0.00    +0.061 C 
ATOM     15  H   UNL     1      -3.936  -0.955  -1.864  0.00  0.00    +0.149 HD
BRANCH   7  17
ATOM     16  C   UNL     1       0.697  -1.395   0.340  0.00  0.00    +0.025 C 
ATOM     17  C   UNL     1      -0.228  -0.180   0.433  0.00  0.00    +0.109 C 
ENDBRANCH   7  17
BRANCH   9  18
ATOM     18  C   UNL     1      -4.138  -1.894   2.701  0.00  0.00    +0.339 C 
ATOM     19  O   UNL     1      -3.520  -1.893   3.750  0.00  0.00    -0.245 OA
BRANCH  18  20
ATOM     20  O   UNL     1      -5.422  -2.310   2.675  0.00  0.00    -0.459 OA
BRANCH  20  21
ATOM     21  C   UNL     1      -5.992  -2.734   3.916  0.00  0.00    +0.171 C 
ATOM     22  C   UNL     1      -7.496  -2.454   3.908  0.00  0.00    +0.052 C 
ATOM     23  C   UNL     1      -5.753  -4.234   4.100  0.00  0.00    +0.052 C 
ENDBRANCH  20  21
ENDBRANCH  18  20
ENDBRANCH   9  18
ENDBRANCH   1  10
BRANCH   4  24
ATOM     24  N   UNL     1      -8.841   1.834   0.791  0.00  0.00    -0.285 N 
ATOM     25  C   UNL     1      -8.954   2.971   0.076  0.00  0.00    +0.223 C 
ATOM     26  O   UNL     1      -8.041   3.332  -0.636  0.00  0.00    -0.275 OA
ATOM     27  H   UNL     1      -9.544   1.578   1.409  0.00  0.00    +0.155 HD
BRANCH  25  28
ATOM     28  C   UNL     1     -10.213   3.794   0.163  0.00  0.00    +0.048 C 
ATOM     29  C   UNL     1     -11.406   2.951  -0.293  0.00  0.00    +0.019 C 
ATOM     30  C   UNL     1     -12.684   3.786  -0.206  0.00  0.00    -0.009 C 
ATOM     31  C   UNL     1     -12.554   5.015  -1.107  0.00  0.00    +0.007 C 
ATOM     32  C   UNL     1     -11.362   5.858  -0.651  0.00  0.00    -0.009 C 
ATOM     33  C   UNL     1     -10.083   5.023  -0.739  0.00  0.00    +0.019 C 
ATOM     34  C   UNL     1     -11.579   6.308   0.795  0.00  0.00    +0.007 C 
ATOM     35  C   UNL     1     -11.709   5.079   1.697  0.00  0.00    -0.009 C 
ATOM     36  C   UNL     1     -12.902   4.236   1.241  0.00  0.00    +0.007 C 
ATOM     37  C   UNL     1     -10.431   4.243   1.609  0.00  0.00    +0.019 C 
ENDBRANCH  25  28
ENDBRANCH   4  24
TORSDOF 7
