REMARK  Name = ZINC21228683
REMARK  10 active torsions:
REMARK  status: ('A' for Active; 'I' for Inactive)
REMARK    1  A    between atoms: C_1  and  O_2
REMARK    2  A    between atoms: O_2  and  C_3
REMARK    3  A    between atoms: C_6  and  O_37
REMARK    4  A    between atoms: C_7  and  C_9
REMARK    5  A    between atoms: C_14  and  C_24
REMARK    6  A    between atoms: C_28  and  O_32
REMARK    7  A    between atoms: C_29  and  O_30
REMARK    8  A    between atoms: O_30  and  C_31
REMARK    9  A    between atoms: O_32  and  C_33
REMARK   10  A    between atoms: O_37  and  C_38
REMARK                            x       y       z     vdW  Elec       q    Type
REMARK                         _______ _______ _______ _____ _____    ______ ____
ROOT
ATOM      1  C   UNL     1      -2.191  -4.746  -4.242  0.00  0.00    +0.036 C 
ATOM      2  C   UNL     1      -3.224  -5.651  -3.572  0.00  0.00    +0.060 C 
ATOM      3  C   UNL     1      -3.455  -5.203  -2.139  0.00  0.00    +0.017 C 
ATOM      4  C   UNL     1      -2.458  -4.650  -1.427  0.00  0.00    +0.037 C 
ATOM      5  C   UNL     1      -2.549  -4.175   0.003  0.00  0.00    +0.140 C 
ATOM      6  N   UNL     1      -3.749  -4.586   0.700  0.00  0.00    -0.331 N 
ATOM      7  C   UNL     1      -5.004  -4.131   0.295  0.00  0.00    +0.049 A 
ATOM      8  C   UNL     1      -5.750  -3.270   1.084  0.00  0.00    +0.025 A 
ATOM      9  C   UNL     1      -6.935  -2.752   0.592  0.00  0.00    +0.002 A 
ATOM     10  C   UNL     1      -7.375  -3.091  -0.675  0.00  0.00    +0.002 A 
ATOM     11  C   UNL     1      -6.644  -3.970  -1.456  0.00  0.00    +0.025 A 
ATOM     12  C   UNL     1      -5.467  -4.502  -0.958  0.00  0.00    +0.052 A 
ATOM     13  N   UNL     1      -4.709  -5.425  -1.668  0.00  0.00    -0.316 N 
ATOM     14  C   UNL     1      -1.184  -4.464  -2.013  0.00  0.00    +0.163 C 
ATOM     15  O   UNL     1      -0.295  -3.978  -1.341  0.00  0.00    -0.292 OA
ATOM     16  C   UNL     1      -0.891  -4.845  -3.433  0.00  0.00    +0.088 C 
ATOM     17  H   UNL     1      -3.680  -5.267   1.561  0.00  0.00    +0.147 HD
ATOM     18  H   UNL     1      -5.197  -6.396  -1.840  0.00  0.00    +0.152 HD
ENDROOT
BRANCH   1  23
ATOM     19  C   UNL     1      -1.252  -6.903  -7.199  0.00  0.00    +0.121 A 
ATOM     20  C   UNL     1      -1.506  -6.046  -8.260  0.00  0.00    +0.049 A 
ATOM     21  C   UNL     1      -1.981  -4.771  -8.019  0.00  0.00    +0.049 A 
ATOM     22  C   UNL     1      -2.204  -4.349  -6.717  0.00  0.00    +0.124 A 
ATOM     23  C   UNL     1      -1.949  -5.206  -5.656  0.00  0.00    +0.002 A 
ATOM     24  C   UNL     1      -1.470  -6.479  -5.897  0.00  0.00    +0.053 A 
BRANCH  19  26
ATOM     25  C   UNL     1      -0.579  -8.527  -8.801  0.00  0.00    +0.277 C 
ATOM     26  O   UNL     1      -0.785  -8.158  -7.436  0.00  0.00    -0.495 OA
ENDBRANCH  19  26
BRANCH  22  27
ATOM     27  O   UNL     1      -2.670  -3.094  -6.479  0.00  0.00    -0.495 OA
ATOM     28  C   UNL     1      -2.910  -2.265  -7.619  0.00  0.00    +0.277 C 
ENDBRANCH  22  27
ENDBRANCH   1  23
BRANCH   5  29
ATOM     29  C   UNL     1      -2.485  -2.670   0.011  0.00  0.00    +0.023 A 
ATOM     30  C   UNL     1      -2.780  -1.959  -1.138  0.00  0.00    +0.009 A 
ATOM     31  C   UNL     1      -2.722  -0.578  -1.134  0.00  0.00    +0.004 A 
ATOM     32  C   UNL     1      -2.368   0.099   0.019  0.00  0.00    +0.049 A 
ATOM     33  C   UNL     1      -2.072  -0.607   1.173  0.00  0.00    +0.162 A 
ATOM     34  C   UNL     1      -2.125  -1.998   1.168  0.00  0.00    +0.167 A 
BRANCH  34  35
ATOM     35  O   UNL     1      -1.829  -2.695   2.297  0.00  0.00    -0.491 OA
ATOM     36  C   UNL     1      -2.912  -2.983   3.184  0.00  0.00    +0.277 C 
ENDBRANCH  34  35
BRANCH  33  37
ATOM     37  O   UNL     1      -1.724   0.057   2.308  0.00  0.00    -0.491 OA
ATOM     38  C   UNL     1      -1.685   1.484   2.238  0.00  0.00    +0.277 C 
ENDBRANCH  33  37
ENDBRANCH   5  29
TORSDOF 6
