REMARK  Name = ZINC63479126
REMARK  4 active torsions:
REMARK  status: ('A' for Active; 'I' for Inactive)
REMARK    1  A    between atoms: C_4  and  C_7
REMARK    2  A    between atoms: C_7  and  C_12
REMARK    3  A    between atoms: C_12  and  N_13
REMARK    4  A    between atoms: C_14  and  C_16
REMARK                            x       y       z     vdW  Elec       q    Type
REMARK                         _______ _______ _______ _____ _____    ______ ____
ROOT
ATOM      1  N   UNL     1       4.734   1.233   1.045  0.00  0.00    -0.313 N 
ATOM      2  C   UNL     1       5.555   1.873   1.901  0.00  0.00    +0.230 C 
ATOM      3  O   UNL     1       6.180   1.243   2.728  0.00  0.00    -0.274 OA
ATOM      4  H   UNL     1       4.235   1.737   0.383  0.00  0.00    +0.149 HD
ENDROOT
BRANCH   2   5
ATOM      5  C   UNL     1       5.697   3.372   1.831  0.00  0.00    +0.160 C 
ATOM      6  C   UNL     1       7.088   3.804   2.236  0.00  0.00    +0.011 C 
ATOM      7  C   UNL     1       7.151   4.595   3.325  0.00  0.00    +0.049 C 
ATOM      8  C   UNL     1       5.882   4.940   3.983  0.00  0.00    +0.030 C 
ATOM      9  C   UNL     1       5.889   5.761   5.123  0.00  0.00    +0.010 A 
ATOM     10  C   UNL     1       4.694   6.107   5.772  0.00  0.00    +0.011 A 
ATOM     11  C   UNL     1       4.727   6.905   6.877  0.00  0.00    +0.001 A 
ATOM     12  C   UNL     1       5.937   7.384   7.371  0.00  0.00    +0.002 A 
ATOM     13  C   UNL     1       7.116   7.067   6.765  0.00  0.00    +0.024 A 
ATOM     14  C   UNL     1       7.123   6.247   5.625  0.00  0.00    +0.042 A 
ATOM     15  N   UNL     1       8.282   5.936   5.029  0.00  0.00    -0.281 N 
ATOM     16  C   UNL     1       8.378   5.174   3.958  0.00  0.00    +0.249 C 
ATOM     17  O   UNL     1       9.476   4.939   3.478  0.00  0.00    -0.270 OA
ATOM     18  S   UNL     1       4.668   4.190   3.112  0.00  0.00    -0.107 S 
ATOM     19  H   UNL     1       9.100   6.292   5.410  0.00  0.00    +0.155 HD
ENDBRANCH   2   5
BRANCH   1  20
ATOM     20  C   UNL     1       4.597  -0.224   1.113  0.00  0.00    +0.115 C 
BRANCH  20  21
ATOM     21  C   UNL     1       3.716  -0.708  -0.041  0.00  0.00    +0.011 C 
ATOM     22  C   UNL     1       4.318  -0.260  -1.389  0.00  0.00    +0.013 C 
ATOM     23  C   UNL     1       5.141  -1.484  -1.863  0.00  0.00    +0.001 C 
ATOM     24  C   UNL     1       4.257  -2.679  -1.429  0.00  0.00    +0.001 C 
ATOM     25  C   UNL     1       3.678  -2.246  -0.066  0.00  0.00    +0.013 C 
BRANCH  21  29
ATOM     26  C   UNL     1      -0.239   0.847   0.386  0.00  0.00    +0.000 A 
ATOM     27  C   UNL     1       0.102   0.126  -0.743  0.00  0.00    +0.000 A 
ATOM     28  C   UNL     1       1.382  -0.377  -0.882  0.00  0.00    +0.004 A 
ATOM     29  C   UNL     1       2.321  -0.159   0.109  0.00  0.00    -0.040 A 
ATOM     30  C   UNL     1       1.980   0.562   1.238  0.00  0.00    +0.004 A 
ATOM     31  C   UNL     1       0.699   1.064   1.377  0.00  0.00    +0.000 A 
ENDBRANCH  21  29
ENDBRANCH  20  21
ENDBRANCH   1  20
TORSDOF 4
