REMARK  Name = ZINC35664443
REMARK  11 active torsions:
REMARK  status: ('A' for Active; 'I' for Inactive)
REMARK    1  A    between atoms: C_1  and  C_2
REMARK    2  A    between atoms: C_2  and  N_3
REMARK    3  A    between atoms: N_10  and  C_13
REMARK    4  A    between atoms: C_13  and  C_14
REMARK    5  A    between atoms: C_15  and  C_30
REMARK    6  A    between atoms: C_16  and  C_25
REMARK    7  A    between atoms: N_21  and  C_22
REMARK    8  A    between atoms: C_22  and  C_23
REMARK    9  A    between atoms: C_30  and  O_32
REMARK   10  A    between atoms: O_32  and  C_33
REMARK   11  A    between atoms: C_33  and  C_34
REMARK                            x       y       z     vdW  Elec       q    Type
REMARK                         _______ _______ _______ _____ _____    ______ ____
ROOT
ATOM      1  C   UNL     1      -4.646  -6.157  -3.400  0.00  0.00    +0.011 C 
ATOM      2  C   UNL     1      -5.469  -7.146  -3.811  0.00  0.00    +0.076 C 
ATOM      3  C   UNL     1      -5.085  -8.571  -3.469  0.00  0.00    +0.144 C 
ATOM      4  N   UNL     1      -3.837  -8.763  -2.711  0.00  0.00    -0.288 N 
ATOM      5  C   UNL     1      -3.120  -7.674  -2.371  0.00  0.00    +0.307 C 
ATOM      6  O   UNL     1      -2.088  -7.821  -1.745  0.00  0.00    -0.252 OA
ATOM      7  N   UNL     1      -3.504  -6.435  -2.704  0.00  0.00    -0.257 N 
ATOM      8  H   UNL     1      -3.539  -9.652  -2.462  0.00  0.00    +0.151 HD
ENDROOT
BRANCH   3   9
ATOM      9  C   UNL     1      -6.211  -9.177  -2.671  0.00  0.00    -0.015 A 
ATOM     10  C   UNL     1      -7.130 -10.013  -3.276  0.00  0.00    +0.013 A 
ATOM     11  C   UNL     1      -8.130 -10.541  -2.529  0.00  0.00    +0.045 A 
ATOM     12  S   UNL     1      -7.790  -9.853  -0.917  0.00  0.00    -0.105 S 
ATOM     13  C   UNL     1      -6.334  -8.913  -1.347  0.00  0.00    +0.051 A 
ENDBRANCH   3   9
BRANCH   2  14
ATOM     14  C   UNL     1      -6.649  -6.860  -4.536  0.00  0.00    +0.339 C 
ATOM     15  O   UNL     1      -6.875  -5.724  -4.908  0.00  0.00    -0.245 OA
BRANCH  14  16
ATOM     16  O   UNL     1      -7.525  -7.848  -4.816  0.00  0.00    -0.462 OA
BRANCH  16  17
ATOM     17  C   UNL     1      -8.696  -7.488  -5.552  0.00  0.00    +0.229 C 
ATOM     18  C   UNL     1      -9.562  -8.730  -5.772  0.00  0.00    +0.048 C 
ENDBRANCH  16  17
ENDBRANCH  14  16
ENDBRANCH   2  14
BRANCH   1  19
ATOM     19  C   UNL     1      -4.990  -4.725  -3.719  0.00  0.00    -0.026 C 
BRANCH  19  27
ATOM     20  N   UNL     1      -5.714  -4.541  -9.054  0.00  0.00    -0.300 N 
ATOM     21  C   UNL     1      -5.046  -3.426  -8.696  0.00  0.00    +0.302 C 
ATOM     22  O   UNL     1      -5.307  -2.364  -9.227  0.00  0.00    -0.253 OA
ATOM     23  N   UNL     1      -4.088  -3.490  -7.750  0.00  0.00    -0.287 N 
ATOM     24  C   UNL     1      -3.458  -2.236  -7.290  0.00  0.00    +0.107 C 
ATOM     25  C   UNL     1      -3.264  -2.241  -5.763  0.00  0.00    +0.000 C 
ATOM     26  C   UNL     1      -4.474  -2.865  -5.104  0.00  0.00    -0.077 C 
ATOM     27  N   UNL     1      -4.231  -4.291  -4.899  0.00  0.00    +0.384 N 
ATOM     28  C   UNL     1      -4.586  -5.118  -5.987  0.00  0.00    -0.059 C 
ATOM     29  C   UNL     1      -3.718  -4.784  -7.216  0.00  0.00    +0.091 C 
ATOM     30  H   UNL     1      -5.457  -5.400  -8.685  0.00  0.00    +0.150 HD
ATOM     31  H   UNL     1      -3.249  -4.421  -4.707  0.00  0.00    -0.081 HD
BRANCH  20  33
ATOM     32  C   UNL     1      -7.408  -5.850 -10.236  0.00  0.00    +0.024 C 
ATOM     33  C   UNL     1      -6.828  -4.454 -10.002  0.00  0.00    +0.102 C 
ENDBRANCH  20  33
ENDBRANCH  19  27
ENDBRANCH   1  19
BRANCH   7  34
ATOM     34  C   UNL     1      -2.654  -5.314  -2.295  0.00  0.00    +0.141 C 
BRANCH  34  35
ATOM     35  C   UNL     1      -3.004  -4.907  -0.887  0.00  0.00    -0.015 C 
ATOM     36  C   UNL     1      -2.071  -4.853   0.031  0.00  0.00    +0.005 C 
ENDBRANCH  34  35
ENDBRANCH   7  34
TORSDOF 9
