REMARK  Name = ZINC37243998
REMARK  5 active torsions:
REMARK  status: ('A' for Active; 'I' for Inactive)
REMARK    1  A    between atoms: C_8  and  N_11
REMARK    2  A    between atoms: C_12  and  C_14
REMARK    3  A    between atoms: N_16  and  C_17
REMARK    4  A    between atoms: C_17  and  C_18
REMARK    5  A    between atoms: C_18  and  N_20
REMARK                            x       y       z     vdW  Elec       q    Type
REMARK                         _______ _______ _______ _____ _____    ______ ____
ROOT
ATOM      1  N   UNL     1       2.839  -0.440  -2.473  0.00  0.00    -0.302 N 
ATOM      2  C   UNL     1       4.123  -0.096  -2.697  0.00  0.00    +0.299 C 
ATOM      3  O   UNL     1       4.711   0.605  -1.900  0.00  0.00    -0.265 OA
ATOM      4  H   UNL     1       2.369  -1.001  -3.110  0.00  0.00    +0.150 HD
ENDROOT
BRANCH   1  12
ATOM      5  C   UNL     1      -0.019   1.526   0.010  0.00  0.00    +0.007 C 
ATOM      6  C   UNL     1       1.417   2.055  -0.000  0.00  0.00    -0.008 C 
ATOM      7  C   UNL     1       2.157   1.548   1.239  0.00  0.00    +0.007 C 
ATOM      8  C   UNL     1       2.178   0.019   1.231  0.00  0.00    -0.008 C 
ATOM      9  C   UNL     1       0.742  -0.511   1.242  0.00  0.00    +0.007 C 
ATOM     10  C   UNL     1       0.002  -0.004   0.002  0.00  0.00    -0.008 C 
ATOM     11  C   UNL     1       0.718  -0.497  -1.257  0.00  0.00    +0.029 C 
ATOM     12  C   UNL     1       2.154   0.032  -1.268  0.00  0.00    +0.036 C 
ATOM     13  C   UNL     1       2.133   1.562  -1.259  0.00  0.00    +0.029 C 
ATOM     14  C   UNL     1       2.894  -0.475  -0.028  0.00  0.00    +0.029 C 
ENDBRANCH   1  12
BRANCH   2  15
ATOM     15  C   UNL     1       4.822  -0.578  -3.926  0.00  0.00    +0.299 C 
ATOM     16  O   UNL     1       4.235  -1.279  -4.723  0.00  0.00    -0.265 OA
ATOM     17  N   UNL     1       6.106  -0.234  -4.150  0.00  0.00    -0.302 N 
ATOM     18  H   UNL     1       6.576   0.327  -3.513  0.00  0.00    +0.150 HD
BRANCH  17  19
ATOM     19  C   UNL     1       6.792  -0.706  -5.355  0.00  0.00    +0.163 C 
BRANCH  19  20
ATOM     20  C   UNL     1       8.206  -0.185  -5.366  0.00  0.00    +0.064 C 
ATOM     21  S   UNL     1       8.728   0.735  -4.167  0.00  0.00    -0.039 S 
BRANCH  20  22
ATOM     22  N   UNL     1       9.030  -0.493  -6.386  0.00  0.00    -0.354 N 
ATOM     23  H   UNL     1       8.714  -1.052  -7.114  0.00  0.00    +0.143 HD
ATOM     24  H   UNL     1       9.940  -0.158  -6.393  0.00  0.00    +0.143 HD
ENDBRANCH  20  22
ENDBRANCH  19  20
ENDBRANCH  17  19
ENDBRANCH   2  15
TORSDOF 5
