REMARK  Name = ZINC36620798
REMARK  4 active torsions:
REMARK  status: ('A' for Active; 'I' for Inactive)
REMARK    1  A    between atoms: C_1  and  C_2
REMARK    2  A    between atoms: C_7  and  C_8
REMARK    3  A    between atoms: N_13  and  S_14
REMARK    4  A    between atoms: S_14  and  C_17
REMARK                            x       y       z     vdW  Elec       q    Type
REMARK                         _______ _______ _______ _____ _____    ______ ____
ROOT
ATOM      1  S   UNL     1      -1.902  -1.573   3.692  0.00  0.00    +0.061 S 
ATOM      2  O   UNL     1      -2.121  -1.851   5.069  0.00  0.00    -0.153 OA
ATOM      3  O   UNL     1      -2.797  -0.782   2.923  0.00  0.00    -0.153 OA
ENDROOT
BRANCH   1   4
ATOM      4  C   UNL     1      -1.777  -3.130   2.877  0.00  0.00    +0.106 A 
ATOM      5  C   UNL     1      -2.046  -3.228   1.525  0.00  0.00    +0.029 A 
ATOM      6  C   UNL     1      -1.949  -4.452   0.895  0.00  0.00    +0.006 A 
ATOM      7  C   UNL     1      -1.581  -5.586   1.607  0.00  0.00    -0.044 A 
ATOM      8  C   UNL     1      -1.307  -5.486   2.953  0.00  0.00    -0.042 A 
ATOM      9  C   UNL     1      -1.404  -4.253   3.585  0.00  0.00    +0.032 A 
ATOM     10  C   UNL     1      -0.887  -6.670   3.784  0.00  0.00    +0.035 C 
ATOM     11  C   UNL     1      -1.235  -7.976   3.074  0.00  0.00    +0.005 C 
ATOM     12  C   UNL     1      -0.684  -7.912   1.645  0.00  0.00    +0.005 C 
ATOM     13  C   UNL     1      -1.502  -6.890   0.858  0.00  0.00    +0.035 C 
ENDBRANCH   1   4
BRANCH   1  18
ATOM     14  C   UNL     1       0.025   0.045   2.504  0.00  0.00    +0.110 C 
ATOM     15  C   UNL     1       1.458   0.506   2.843  0.00  0.00    +0.027 C 
ATOM     16  C   UNL     1       1.536   0.301   4.379  0.00  0.00    +0.019 C 
ATOM     17  C   UNL     1       0.682  -0.978   4.565  0.00  0.00    +0.110 C 
ATOM     18  N   UNL     1      -0.418  -0.845   3.588  0.00  0.00    -0.169 NA
BRANCH  14  25
ATOM     19  C   UNL     1      -0.018   1.503   0.010  0.00  0.00    +0.044 C 
ATOM     20  C   UNL     1       0.002  -0.004   0.002  0.00  0.00    -0.046 A 
ATOM     21  C   UNL     1       0.006  -0.689  -1.199  0.00  0.00    +0.003 A 
ATOM     22  C   UNL     1       0.025  -2.071  -1.207  0.00  0.00    +0.000 A 
ATOM     23  C   UNL     1       0.040  -2.768  -0.013  0.00  0.00    +0.000 A 
ATOM     24  C   UNL     1       0.037  -2.084   1.188  0.00  0.00    +0.005 A 
ATOM     25  C   UNL     1       0.023  -0.702   1.195  0.00  0.00    -0.026 A 
ENDBRANCH  14  25
ENDBRANCH   1  18
TORSDOF 3
