REMARK  Name = ZINC40988491
REMARK  10 active torsions:
REMARK  status: ('A' for Active; 'I' for Inactive)
REMARK    1  A    between atoms: C_1  and  C_2
REMARK    2  A    between atoms: C_2  and  N_3
REMARK    3  A    between atoms: N_3  and  C_4
REMARK    4  A    between atoms: N_3  and  C_6
REMARK    5  A    between atoms: C_4  and  C_5
REMARK    6  A    between atoms: C_6  and  C_8
REMARK    7  A    between atoms: C_6  and  C_29
REMARK    8  A    between atoms: C_8  and  N_9
REMARK    9  A    between atoms: C_10  and  C_12
REMARK   10  A    between atoms: N_15  and  C_17
REMARK                            x       y       z     vdW  Elec       q    Type
REMARK                         _______ _______ _______ _____ _____    ______ ____
ROOT
ATOM      1  N   UNL     1       1.877  -2.087   2.644  0.00  0.00    -0.311 N 
ATOM      2  C   UNL     1       1.623  -2.918   3.675  0.00  0.00    +0.264 C 
ATOM      3  O   UNL     1       1.386  -2.465   4.777  0.00  0.00    -0.268 OA
ATOM      4  H   UNL     1       1.975  -2.442   1.747  0.00  0.00    +0.149 HD
ENDROOT
BRANCH   2   5
ATOM      5  C   UNL     1       1.632  -4.380   3.463  0.00  0.00    +0.150 A 
ATOM      6  C   UNL     1       1.291  -5.366   4.404  0.00  0.00    +0.006 A 
ATOM      7  C   UNL     1       1.448  -6.555   3.772  0.00  0.00    +0.044 A 
ATOM      8  N   UNL     1       1.857  -6.288   2.520  0.00  0.00    -0.263 N 
ATOM      9  N   UNL     1       1.956  -5.015   2.350  0.00  0.00    -0.166 NA
ATOM     10  C   UNL     1       1.193  -7.892   4.420  0.00  0.00    +0.055 C 
ATOM     11  C   UNL     1       1.154  -7.691   5.940  0.00  0.00    +0.006 C 
ATOM     12  C   UNL     1       0.211  -6.535   6.283  0.00  0.00    +0.005 C 
ATOM     13  C   UNL     1       0.838  -5.210   5.830  0.00  0.00    +0.039 C 
BRANCH   8  14
ATOM     14  C   UNL     1       2.143  -7.297   1.498  0.00  0.00    +0.130 C 
ATOM     15  C   UNL     1       1.226  -7.069   0.284  0.00  0.00    +0.051 C 
ATOM     16  C   UNL     1       1.755  -7.936  -0.893  0.00  0.00    +0.168 C 
ATOM     17  S   UNL     1       3.572  -7.694  -0.700  0.00  0.00    -0.029 S 
ATOM     18  O   UNL     1       3.981  -6.599  -1.509  0.00  0.00    -0.174 OA
ATOM     19  O   UNL     1       4.223  -8.949  -0.841  0.00  0.00    -0.174 OA
ATOM     20  C   UNL     1       3.625  -7.185   1.065  0.00  0.00    +0.192 C 
ENDBRANCH   8  14
ENDBRANCH   2   5
BRANCH   1  21
ATOM     21  C   UNL     1       2.004  -0.647   2.880  0.00  0.00    +0.094 C 
BRANCH  21  22
ATOM     22  C   UNL     1       2.436   0.045   1.586  0.00  0.00    -0.019 C 
BRANCH  22  23
ATOM     23  C   UNL     1       2.359   1.540   1.765  0.00  0.00    -0.041 A 
ATOM     24  C   UNL     1       1.163   2.132   2.125  0.00  0.00    +0.003 A 
ATOM     25  C   UNL     1       1.091   3.502   2.289  0.00  0.00    +0.000 A 
ATOM     26  C   UNL     1       2.216   4.282   2.094  0.00  0.00    +0.001 A 
ATOM     27  C   UNL     1       3.413   3.691   1.734  0.00  0.00    +0.020 A 
ATOM     28  C   UNL     1       3.486   2.319   1.575  0.00  0.00    +0.043 A 
ATOM     29 CL   UNL     1       4.990   1.575   1.130  0.00  0.00    -0.083 Cl
ENDBRANCH  22  23
BRANCH  22  30
ATOM     30  N   UNL     1       1.546  -0.363   0.491  0.00  0.00    +0.385 N 
ATOM     31  H   UNL     1       1.783  -1.298   0.196  0.00  0.00    -0.081 HD
BRANCH  30  33
ATOM     32  C   UNL     1      -0.642  -1.438   0.253  0.00  0.00    -0.017 C 
ATOM     33  C   UNL     1       0.153  -0.335   0.957  0.00  0.00    -0.081 C 
ENDBRANCH  30  33
BRANCH  30  34
ATOM     34  C   UNL     1       1.703   0.562  -0.639  0.00  0.00    -0.081 C 
ATOM     35  C   UNL     1       3.072   0.348  -1.287  0.00  0.00    -0.017 C 
ENDBRANCH  30  34
ENDBRANCH  22  30
ENDBRANCH  21  22
ENDBRANCH   1  21
TORSDOF 8
