REMARK  Name = ZINC07319681
REMARK  11 active torsions:
REMARK  status: ('A' for Active; 'I' for Inactive)
REMARK    1  A    between atoms: C_1  and  C_2
REMARK    2  A    between atoms: C_2  and  C_3
REMARK    3  A    between atoms: C_6  and  C_9
REMARK    4  A    between atoms: C_9  and  C_11
REMARK    5  A    between atoms: C_9  and  N_40
REMARK    6  A    between atoms: C_11  and  N_12
REMARK    7  A    between atoms: C_13  and  C_14
REMARK    8  A    between atoms: C_14  and  C_15
REMARK    9  A    between atoms: C_14  and  C_17
REMARK   10  A    between atoms: C_19  and  N_40
REMARK   11  A    between atoms: C_20  and  N_40
REMARK                            x       y       z     vdW  Elec       q    Type
REMARK                         _______ _______ _______ _____ _____    ______ ____
ROOT
ATOM      1  C   UNL     1      -0.732   1.677   1.388  0.00  0.00    -0.017 C 
ENDROOT
BRANCH   1   5
ATOM      2  C   UNL     1       1.913   0.724   4.604  0.00  0.00    -0.048 A 
ATOM      3  C   UNL     1       0.747   0.002   4.431  0.00  0.00    +0.004 A 
ATOM      4  C   UNL     1      -0.109   0.311   3.391  0.00  0.00    +0.002 A 
ATOM      5  C   UNL     1       0.201   1.341   2.523  0.00  0.00    -0.059 A 
ATOM      6  C   UNL     1       1.370   2.059   2.692  0.00  0.00    +0.002 A 
ATOM      7  C   UNL     1       2.223   1.755   3.736  0.00  0.00    +0.004 A 
BRANCH   2   9
ATOM      8  C   UNL     1       3.864  -0.654   5.269  0.00  0.00    +0.009 C 
ATOM      9  C   UNL     1       2.847   0.388   5.738  0.00  0.00    +0.032 C 
ENDBRANCH   2   9
ENDBRANCH   1   5
BRANCH   1  12
ATOM     10  C   UNL     1       0.088   3.724   0.390  0.00  0.00    -0.096 C 
ATOM     11  C   UNL     1      -2.266   3.486   0.903  0.00  0.00    -0.096 C 
ATOM     12  N   UNL     1      -0.893   3.145   1.331  0.00  0.00    +0.382 N 
ATOM     13  H   UNL     1      -0.728   3.535   2.266  0.00  0.00    -0.082 HD
ENDBRANCH   1  12
BRANCH   1  14
ATOM     14  C   UNL     1      -0.146   1.154   0.074  0.00  0.00    +0.130 C 
BRANCH  14  15
ATOM     15  N   UNL     1      -1.081   1.427  -1.020  0.00  0.00    -0.295 NA
ATOM     16  C   UNL     1      -0.719   1.166  -2.304  0.00  0.00    +0.111 C 
BRANCH  16  17
ATOM     17  C   UNL     1      -1.598   1.423  -3.333  0.00  0.00    +0.234 C 
BRANCH  17  18
ATOM     18  C   UNL     1      -2.893   1.964  -3.050  0.00  0.00    +0.087 C 
ATOM     19  N   UNL     1      -3.921   2.394  -2.825  0.00  0.00    -0.195 NA
ENDBRANCH  17  18
BRANCH  17  20
ATOM     20  C   UNL     1      -1.217   1.148  -4.686  0.00  0.00    +0.087 C 
ATOM     21  N   UNL     1      -0.914   0.930  -5.759  0.00  0.00    -0.195 NA
ENDBRANCH  17  20
ENDBRANCH  16  17
ENDBRANCH  14  15
ENDBRANCH   1  14
TORSDOF 8
