REMARK  Name = ZINC65022334
REMARK  7 active torsions:
REMARK  status: ('A' for Active; 'I' for Inactive)
REMARK    1  A    between atoms: C_1  and  C_2
REMARK    2  A    between atoms: C_2  and  C_3
REMARK    3  A    between atoms: C_3  and  N_4
REMARK    4  A    between atoms: C_8  and  S_14
REMARK    5  A    between atoms: S_14  and  N_17
REMARK    6  A    between atoms: C_20  and  C_23
REMARK    7  A    between atoms: N_25  and  C_26
REMARK                            x       y       z     vdW  Elec       q    Type
REMARK                         _______ _______ _______ _____ _____    ______ ____
ROOT
ATOM      1  N   UNL     1      -4.569  -5.709   2.531  0.00  0.00    -0.177 NA
ATOM      2  C   UNL     1      -5.731  -4.822   2.378  0.00  0.00    +0.110 C 
ATOM      3  C   UNL     1      -7.007  -5.668   2.430  0.00  0.00    +0.030 C 
ATOM      4  C   UNL     1      -6.921  -6.779   1.380  0.00  0.00    +0.077 C 
ATOM      5  C   UNL     1      -5.728  -7.685   1.690  0.00  0.00    +0.030 C 
ATOM      6  C   UNL     1      -4.434  -6.859   1.626  0.00  0.00    +0.110 C 
ENDROOT
BRANCH   4   7
ATOM      7  C   UNL     1      -8.190  -7.592   1.405  0.00  0.00    +0.217 C 
ATOM      8  O   UNL     1      -9.075  -7.312   2.185  0.00  0.00    -0.275 OA
ATOM      9  N   UNL     1      -8.340  -8.631   0.560  0.00  0.00    -0.308 N 
ATOM     10  H   UNL     1      -7.633  -8.856  -0.064  0.00  0.00    +0.149 HD
BRANCH   9  11
ATOM     11  C   UNL     1      -9.573  -9.422   0.585  0.00  0.00    +0.103 C 
ATOM     12  C   UNL     1      -9.281 -10.827   0.061  0.00  0.00    +0.027 C 
ATOM     13  C   UNL     1     -10.613 -11.566  -0.111  0.00  0.00    +0.007 C 
ATOM     14  C   UNL     1     -11.364 -10.937  -1.284  0.00  0.00    +0.035 C 
ATOM     15  C   UNL     1     -11.440  -9.441  -1.123  0.00  0.00    -0.042 A 
ATOM     16  C   UNL     1     -10.614  -8.746  -0.269  0.00  0.00    -0.024 A 
ATOM     17  C   UNL     1     -10.731  -7.365  -0.173  0.00  0.00    +0.006 A 
ATOM     18  C   UNL     1     -11.668  -6.687  -0.925  0.00  0.00    +0.000 A 
ATOM     19  C   UNL     1     -12.499  -7.387  -1.780  0.00  0.00    +0.000 A 
ATOM     20  C   UNL     1     -12.384  -8.757  -1.877  0.00  0.00    +0.004 A 
ENDBRANCH   9  11
ENDBRANCH   4   7
BRANCH   1  21
ATOM     21  S   UNL     1      -3.430  -5.414   3.696  0.00  0.00    +0.061 S 
ATOM     22  O   UNL     1      -2.793  -6.655   3.965  0.00  0.00    -0.153 OA
ATOM     23  O   UNL     1      -4.073  -4.652   4.709  0.00  0.00    -0.153 OA
BRANCH  21  28
ATOM     24  N   UNL     1       0.762  -1.976   1.234  0.00  0.00    -0.302 N 
ATOM     25  C   UNL     1      -0.268  -2.678   1.837  0.00  0.00    +0.059 A 
ATOM     26  C   UNL     1      -1.394  -2.156   2.494  0.00  0.00    +0.029 A 
ATOM     27  C   UNL     1      -2.337  -2.989   3.048  0.00  0.00    +0.030 A 
ATOM     28  C   UNL     1      -2.209  -4.366   2.977  0.00  0.00    +0.107 A 
ATOM     29  C   UNL     1      -1.110  -4.909   2.335  0.00  0.00    +0.045 A 
ATOM     30  C   UNL     1      -0.168  -4.076   1.782  0.00  0.00    +0.043 A 
ATOM     31  S   UNL     1       1.349  -4.339   0.896  0.00  0.00    -0.027 S 
ATOM     32  C   UNL     1       1.779  -2.625   0.634  0.00  0.00    +0.292 A 
ATOM     33  O   UNL     1       2.747  -2.162   0.061  0.00  0.00    -0.259 OA
BRANCH  24  34
ATOM     34  C   UNL     1       0.742  -0.511   1.242  0.00  0.00    +0.126 C 
BRANCH  34  36
ATOM     35  C   UNL     1      -0.019   1.526   0.010  0.00  0.00    +0.005 C 
ATOM     36  C   UNL     1       0.002  -0.004   0.002  0.00  0.00    +0.018 C 
ENDBRANCH  34  36
ENDBRANCH  24  34
ENDBRANCH  21  28
ENDBRANCH   1  21
TORSDOF 6
