REMARK  Name = ZINC00978709
REMARK  4 active torsions:
REMARK  status: ('A' for Active; 'I' for Inactive)
REMARK    1  A    between atoms: C_1  and  C_2
REMARK    2  A    between atoms: C_2  and  O_3
REMARK    3  A    between atoms: O_3  and  C_4
REMARK    4  A    between atoms: C_7  and  N_10
REMARK                            x       y       z     vdW  Elec       q    Type
REMARK                         _______ _______ _______ _____ _____    ______ ____
ROOT
ATOM      1  N   UNL     1       1.099  -5.906  -1.831  0.00  0.00    -0.250 NA
ATOM      2  C   UNL     1       0.847  -6.446  -2.993  0.00  0.00    +0.065 C 
ATOM      3  C   UNL     1       0.438  -5.618  -4.200  0.00  0.00    +0.058 C 
ATOM      4  C   UNL     1      -0.702  -6.347  -4.919  0.00  0.00    +0.011 C 
ATOM      5  C   UNL     1      -0.212  -7.688  -5.473  0.00  0.00    +0.038 C 
ATOM      6  C   UNL     1       0.453  -8.473  -4.371  0.00  0.00    -0.013 A 
ATOM      7  C   UNL     1       0.947  -7.896  -3.224  0.00  0.00    +0.065 A 
ATOM      8  N   UNL     1       1.494  -8.864  -2.417  0.00  0.00    -0.353 N 
ATOM      9  H   UNL     1       1.902  -8.716  -1.550  0.00  0.00    +0.166 HD
ATOM     10  C   UNL     1       1.364 -10.072  -3.045  0.00  0.00    +0.047 A 
ATOM     11  C   UNL     1       0.699  -9.846  -4.284  0.00  0.00    +0.005 A 
ATOM     12  C   UNL     1       0.422 -10.908  -5.158  0.00  0.00    +0.025 A 
ATOM     13  C   UNL     1       0.807 -12.162  -4.755  0.00  0.00    +0.019 A 
ATOM     14  C   UNL     1       1.440 -12.387  -3.542  0.00  0.00    +0.017 A 
ATOM     15  C   UNL     1       1.748 -11.356  -2.665  0.00  0.00    +0.027 A 
ATOM     16 BR   UNL     1       0.460 -13.634  -5.891  0.00  0.00    -0.050 Br
ENDROOT
BRANCH   1  20
ATOM     17  C   UNL     1       0.777  -1.810  -1.336  0.00  0.00    +0.121 A 
ATOM     18  C   UNL     1       0.241  -2.667  -0.383  0.00  0.00    +0.048 A 
ATOM     19  C   UNL     1       0.346  -4.031  -0.544  0.00  0.00    +0.031 A 
ATOM     20  C   UNL     1       0.993  -4.553  -1.667  0.00  0.00    +0.064 A 
ATOM     21  C   UNL     1       1.530  -3.687  -2.624  0.00  0.00    +0.031 A 
ATOM     22  C   UNL     1       1.415  -2.324  -2.457  0.00  0.00    +0.048 A 
BRANCH  17  23
ATOM     23  O   UNL     1       0.671  -0.465  -1.174  0.00  0.00    -0.492 OA
BRANCH  23  25
ATOM     24  C   UNL     1      -0.019   1.526   0.010  0.00  0.00    +0.048 C 
ATOM     25  C   UNL     1       0.002  -0.004   0.002  0.00  0.00    +0.225 C 
ENDBRANCH  23  25
ENDBRANCH  17  23
ENDBRANCH   1  20
TORSDOF 3
