REMARK  Name = ZINC08437858
REMARK  7 active torsions:
REMARK  status: ('A' for Active; 'I' for Inactive)
REMARK    1  A    between atoms: C_1  and  C_2
REMARK    2  A    between atoms: C_3  and  C_23
REMARK    3  A    between atoms: N_6  and  C_20
REMARK    4  A    between atoms: C_8  and  N_9
REMARK    5  A    between atoms: N_10  and  C_11
REMARK    6  A    between atoms: C_20  and  C_21
REMARK    7  A    between atoms: C_21  and  O_22
REMARK                            x       y       z     vdW  Elec       q    Type
REMARK                         _______ _______ _______ _____ _____    ______ ____
ROOT
ATOM      1  C   UNL     1      -0.018   1.503   0.010  0.00  0.00    +0.048 C 
ATOM      2  C   UNL     1       0.002  -0.004   0.002  0.00  0.00    +0.005 A 
ATOM      3  C   UNL     1       0.006  -0.705  -1.200  0.00  0.00    +0.121 A 
ATOM      4  C   UNL     1       0.026  -2.123  -1.178  0.00  0.00    +0.272 A 
ATOM      5  O   UNL     1       0.030  -2.745  -2.226  0.00  0.00    -0.266 OA
ATOM      6  N   UNL     1       0.041  -2.786  -0.008  0.00  0.00    -0.271 N 
ATOM      7  C   UNL     1       0.037  -2.123   1.175  0.00  0.00    +0.282 A 
ATOM      8  C   UNL     1       0.023  -0.725   1.208  0.00  0.00    +0.155 A 
ATOM      9  O   UNL     1       0.052  -2.817   2.329  0.00  0.00    -0.265 OA
ENDROOT
BRANCH   8  10
ATOM     10  N   UNL     1       0.025  -0.066   2.400  0.00  0.00    -0.143 NA
ATOM     11  N   UNL     1       0.045  -0.732   3.505  0.00  0.00    -0.148 NA
BRANCH  11  12
ATOM     12  C   UNL     1       0.046  -0.072   4.702  0.00  0.00    +0.104 A 
ATOM     13  C   UNL     1       0.021   1.325   4.732  0.00  0.00    +0.032 A 
ATOM     14  C   UNL     1       0.023   1.985   5.943  0.00  0.00    +0.016 A 
ATOM     15  C   UNL     1       0.049   1.267   7.127  0.00  0.00    +0.015 A 
ATOM     16  C   UNL     1       0.074  -0.116   7.105  0.00  0.00    +0.036 A 
ATOM     17  C   UNL     1       0.068  -0.791   5.901  0.00  0.00    +0.069 A 
ATOM     18 CL   UNL     1       0.092  -2.526   5.875  0.00  0.00    -0.081 Cl
ATOM     19  I   UNL     1       0.052   2.281   8.960  0.00  0.00    -0.044 I 
ENDBRANCH  11  12
ENDBRANCH   8  10
BRANCH   3  20
ATOM     20  C   UNL     1      -0.010  -0.001  -2.448  0.00  0.00    +0.105 C 
ATOM     21  N   UNL     1      -0.023   0.557  -3.437  0.00  0.00    -0.191 NA
ENDBRANCH   3  20
BRANCH   6  22
ATOM     22  C   UNL     1       0.062  -4.251  -0.011  0.00  0.00    +0.156 C 
BRANCH  22  23
ATOM     23  C   UNL     1       1.512  -4.740  -0.019  0.00  0.00    +0.177 C 
BRANCH  23  24
ATOM     24  O   UNL     1       2.151  -4.356   1.199  0.00  0.00    -0.393 OA
ATOM     25  H   UNL     1       3.075  -4.634   1.263  0.00  0.00    +0.209 HD
ENDBRANCH  23  24
ENDBRANCH  22  23
ENDBRANCH   6  22
TORSDOF 6
