REMARK  Name = ZINC39628590
REMARK  7 active torsions:
REMARK  status: ('A' for Active; 'I' for Inactive)
REMARK    1  A    between atoms: C_1  and  C_2
REMARK    2  A    between atoms: N_8  and  C_9
REMARK    3  A    between atoms: C_9  and  C_10
REMARK    4  A    between atoms: C_10  and  C_11
REMARK    5  A    between atoms: C_11  and  N_12
REMARK    6  A    between atoms: C_13  and  C_15
REMARK    7  A    between atoms: C_26  and  C_28
REMARK                            x       y       z     vdW  Elec       q    Type
REMARK                         _______ _______ _______ _____ _____    ______ ____
ROOT
ATOM      1  C   UNL     1       6.939  -0.990   5.673  0.00  0.00    +0.100 C 
ATOM      2  C   UNL     1       6.296   0.114   6.543  0.00  0.00    +0.121 C 
ATOM      3  N   UNL     1       7.369   0.525   7.479  0.00  0.00    -0.300 N 
ATOM      4  C   UNL     1       8.601   0.518   6.654  0.00  0.00    +0.115 C 
ATOM      5  C   UNL     1       8.451  -0.721   5.748  0.00  0.00    -0.004 C 
ATOM      6  C   UNL     1       9.005  -0.426   4.357  0.00  0.00    -0.010 C 
ATOM      7  C   UNL     1      10.520  -0.220   4.449  0.00  0.00    -0.082 C 
ATOM      8  N   UNL     1      11.147  -1.426   5.002  0.00  0.00    +0.379 N 
ATOM      9  C   UNL     1      10.679  -1.649   6.375  0.00  0.00    -0.082 C 
ATOM     10  C   UNL     1       9.171  -1.916   6.365  0.00  0.00    -0.010 C 
ATOM     11  C   UNL     1       7.252   0.836   8.785  0.00  0.00    +0.219 C 
ATOM     12  O   UNL     1       6.181   0.718   9.342  0.00  0.00    -0.275 OA
ATOM     13  H   UNL     1      10.904  -2.222   4.431  0.00  0.00    -0.086 HD
ATOM     14  H   UNL     1      12.150  -1.311   5.004  0.00  0.00    -0.086 HD
ENDROOT
BRANCH  11  15
ATOM     15  C   UNL     1       8.450   1.330   9.553  0.00  0.00    +0.079 C 
ATOM     16  C   UNL     1       8.273   1.017  11.044  0.00  0.00    +0.017 C 
ATOM     17  C   UNL     1       9.574   1.366  11.770  0.00  0.00    +0.027 C 
ATOM     18  C   UNL     1      10.025   2.745  11.388  0.00  0.00    -0.031 C 
ATOM     19  C   UNL     1       9.595   3.387  10.350  0.00  0.00    -0.030 C 
ATOM     20  C   UNL     1       8.580   2.846   9.384  0.00  0.00    +0.039 C 
ENDBRANCH  11  15
BRANCH   1  22
ATOM     21  N   UNL     1       6.407  -1.982   3.471  0.00  0.00    -0.315 N 
ATOM     22  C   UNL     1       6.457  -0.883   4.250  0.00  0.00    +0.218 C 
ATOM     23  O   UNL     1       6.114   0.192   3.804  0.00  0.00    -0.275 OA
ATOM     24  H   UNL     1       6.681  -2.842   3.827  0.00  0.00    +0.149 HD
BRANCH  21  25
ATOM     25  C   UNL     1       5.938  -1.879   2.087  0.00  0.00    +0.102 C 
BRANCH  25  26
ATOM     26  C   UNL     1       5.979  -3.260   1.430  0.00  0.00    +0.000 C 
BRANCH  26  27
ATOM     27  C   UNL     1       5.489  -3.152  -0.015  0.00  0.00    -0.077 C 
BRANCH  27  34
ATOM     28  C   UNL     1       3.524  -3.842  -1.899  0.00  0.00    -0.013 C 
ATOM     29  C   UNL     1       4.947  -4.396  -1.992  0.00  0.00    -0.072 C 
ATOM     30  C   UNL     1       4.912  -5.790  -2.621  0.00  0.00    -0.016 C 
ATOM     31  C   UNL     1       6.338  -6.340  -2.712  0.00  0.00    -0.003 C 
ATOM     32  C   UNL     1       6.961  -6.350  -1.313  0.00  0.00    -0.019 C 
ATOM     33  C   UNL     1       6.921  -4.936  -0.732  0.00  0.00    -0.078 C 
ATOM     34  N   UNL     1       5.529  -4.478  -0.646  0.00  0.00    +0.381 N 
ATOM     35  H   UNL     1       4.995  -5.129  -0.090  0.00  0.00    -0.081 HD
ENDBRANCH  27  34
ENDBRANCH  26  27
ENDBRANCH  25  26
ENDBRANCH  21  25
ENDBRANCH   1  22
TORSDOF 6
