REMARK  Name = ZINC46762111
REMARK  11 active torsions:
REMARK  status: ('A' for Active; 'I' for Inactive)
REMARK    1  A    between atoms: C_1  and  N_2
REMARK    2  A    between atoms: N_2  and  C_3
REMARK    3  A    between atoms: N_2  and  C_4
REMARK    4  A    between atoms: C_4  and  C_6
REMARK    5  A    between atoms: C_4  and  C_23
REMARK    6  A    between atoms: C_6  and  N_7
REMARK    7  A    between atoms: C_8  and  C_10
REMARK    8  A    between atoms: C_10  and  N_11
REMARK    9  A    between atoms: N_11  and  C_12
REMARK   10  A    between atoms: N_11  and  S_13
REMARK   11  A    between atoms: S_13  and  C_16
REMARK                            x       y       z     vdW  Elec       q    Type
REMARK                         _______ _______ _______ _____ _____    ______ ____
ROOT
ATOM      1  N   UNL     1      -0.192  -2.588  -1.300  0.00  0.00    -0.315 N 
ATOM      2  C   UNL     1      -0.217  -3.927  -1.457  0.00  0.00    +0.229 C 
ATOM      3  O   UNL     1       0.816  -4.534  -1.649  0.00  0.00    -0.274 OA
ATOM      4  H   UNL     1      -1.018  -2.103  -1.147  0.00  0.00    +0.149 HD
ENDROOT
BRANCH   1   5
ATOM      5  C   UNL     1       1.081  -1.867  -1.362  0.00  0.00    +0.093 C 
BRANCH   5   6
ATOM      6  C   UNL     1       0.819  -0.362  -1.283  0.00  0.00    -0.020 C 
BRANCH   6   7
ATOM      7  C   UNL     1       0.250  -0.022   0.070  0.00  0.00    -0.041 A 
ATOM      8  C   UNL     1      -1.119   0.059   0.244  0.00  0.00    +0.003 A 
ATOM      9  C   UNL     1      -1.642   0.371   1.485  0.00  0.00    +0.000 A 
ATOM     10  C   UNL     1      -0.796   0.603   2.553  0.00  0.00    +0.001 A 
ATOM     11  C   UNL     1       0.573   0.522   2.381  0.00  0.00    +0.020 A 
ATOM     12  C   UNL     1       1.097   0.204   1.141  0.00  0.00    +0.043 A 
ATOM     13 CL   UNL     1       2.816   0.096   0.925  0.00  0.00    -0.083 Cl
ENDBRANCH   6   7
BRANCH   6  15
ATOM     14  C   UNL     1      -0.356   1.476  -2.280  0.00  0.00    -0.096 C 
ATOM     15  N   UNL     1      -0.138   0.024  -2.328  0.00  0.00    +0.382 N 
ATOM     16  C   UNL     1       0.398  -0.347  -3.644  0.00  0.00    -0.096 C 
ATOM     17  H   UNL     1      -1.014  -0.453  -2.175  0.00  0.00    -0.082 HD
ENDBRANCH   6  15
ENDBRANCH   5   6
ENDBRANCH   1   5
BRANCH   2  18
ATOM     18  C   UNL     1      -1.527  -4.669  -1.394  0.00  0.00    +0.204 C 
BRANCH  18  19
ATOM     19  N   UNL     1      -1.287  -6.101  -1.592  0.00  0.00    -0.171 NA
ATOM     20  C   UNL     1      -0.914  -6.945  -0.455  0.00  0.00    +0.132 C 
BRANCH  19  21
ATOM     21  S   UNL     1      -1.437  -6.764  -3.102  0.00  0.00    +0.061 S 
ATOM     22  O   UNL     1      -1.706  -8.147  -2.913  0.00  0.00    -0.153 OA
ATOM     23  O   UNL     1      -2.307  -5.912  -3.835  0.00  0.00    -0.153 OA
BRANCH  21  24
ATOM     24  C   UNL     1       0.142  -6.659  -3.877  0.00  0.00    +0.106 A 
ATOM     25  C   UNL     1       0.474  -5.541  -4.619  0.00  0.00    +0.029 A 
ATOM     26  C   UNL     1       1.713  -5.458  -5.226  0.00  0.00    +0.017 A 
ATOM     27  C   UNL     1       2.620  -6.494  -5.092  0.00  0.00    +0.018 A 
ATOM     28  C   UNL     1       2.287  -7.612  -4.349  0.00  0.00    +0.017 A 
ATOM     29  C   UNL     1       1.050  -7.692  -3.737  0.00  0.00    +0.029 A 
ATOM     30 BR   UNL     1       4.315  -6.381  -5.923  0.00  0.00    -0.050 Br
ENDBRANCH  21  24
ENDBRANCH  19  21
ENDBRANCH  18  19
ENDBRANCH   2  18
TORSDOF 8
