REMARK  Name = ZINC35743969
REMARK  6 active torsions:
REMARK  status: ('A' for Active; 'I' for Inactive)
REMARK    1  A    between atoms: C_4  and  N_7
REMARK    2  A    between atoms: N_9  and  C_30
REMARK    3  A    between atoms: C_18  and  C_20
REMARK    4  A    between atoms: C_30  and  C_31
REMARK    5  A    between atoms: N_33  and  C_34
REMARK    6  A    between atoms: C_34  and  C_35
REMARK                            x       y       z     vdW  Elec       q    Type
REMARK                         _______ _______ _______ _____ _____    ______ ____
ROOT
ATOM      1  N   UNL     1       3.621  -0.651  -0.036  0.00  0.00    -0.300 N 
ATOM      2  C   UNL     1       4.962  -0.062  -0.142  0.00  0.00    +0.217 C 
ATOM      3  N   UNL     1       5.938  -1.151  -0.119  0.00  0.00    -0.275 N 
ATOM      4  C   UNL     1       5.312  -2.334  -0.010  0.00  0.00    +0.241 C 
ATOM      5  O   UNL     1       5.858  -3.417   0.034  0.00  0.00    -0.273 OA
ATOM      6  C   UNL     1       3.826  -2.102   0.055  0.00  0.00    +0.115 C 
ATOM      7  C   UNL     1       3.136  -2.799  -1.118  0.00  0.00    +0.054 C 
ATOM      8  C   UNL     1       1.633  -2.506  -1.070  0.00  0.00    +0.110 C 
ATOM      9  N   UNL     1       1.119  -2.887   0.252  0.00  0.00    -0.297 N 
ATOM     10  C   UNL     1       1.766  -2.330   1.449  0.00  0.00    +0.110 C 
ATOM     11  C   UNL     1       3.268  -2.624   1.379  0.00  0.00    +0.054 C 
ATOM     12  C   UNL     1       0.074  -3.730   0.367  0.00  0.00    +0.247 C 
ATOM     13  O   UNL     1      -0.394  -4.255  -0.625  0.00  0.00    -0.270 OA
ENDROOT
BRANCH  12  14
ATOM     14  C   UNL     1      -0.503  -4.016   1.697  0.00  0.00    +0.037 A 
ATOM     15  C   UNL     1      -0.553  -3.000   2.668  0.00  0.00    +0.013 A 
ATOM     16  C   UNL     1      -1.078  -3.238   3.897  0.00  0.00    +0.009 A 
ATOM     17  C   UNL     1      -1.581  -4.514   4.213  0.00  0.00    -0.018 A 
ATOM     18  C   UNL     1      -2.129  -4.784   5.478  0.00  0.00    +0.008 A 
ATOM     19  C   UNL     1      -2.608  -6.028   5.754  0.00  0.00    +0.001 A 
ATOM     20  C   UNL     1      -2.564  -7.043   4.800  0.00  0.00    +0.001 A 
ATOM     21  C   UNL     1      -2.040  -6.819   3.564  0.00  0.00    +0.008 A 
ATOM     22  C   UNL     1      -1.536  -5.546   3.242  0.00  0.00    -0.017 A 
ATOM     23  C   UNL     1      -0.995  -5.280   1.975  0.00  0.00    +0.021 A 
ENDBRANCH  12  14
BRANCH   1  27
ATOM     24  C   UNL     1      -0.014   1.379   0.014  0.00  0.00    +0.000 A 
ATOM     25  C   UNL     1       1.172   2.089  -0.017  0.00  0.00    +0.002 A 
ATOM     26  C   UNL     1       2.379   1.419  -0.034  0.00  0.00    +0.023 A 
ATOM     27  C   UNL     1       2.401   0.030  -0.019  0.00  0.00    +0.032 A 
ATOM     28  C   UNL     1       1.208  -0.680   0.013  0.00  0.00    +0.023 A 
ATOM     29  C   UNL     1       0.004  -0.004   0.029  0.00  0.00    +0.002 A 
ENDBRANCH   1  27
BRANCH   3  30
ATOM     30  C   UNL     1       7.390  -0.975  -0.205  0.00  0.00    +0.205 C 
BRANCH  30  31
ATOM     31  C   UNL     1       7.960  -0.822   1.182  0.00  0.00    +0.231 C 
ATOM     32  O   UNL     1       7.225  -0.855   2.146  0.00  0.00    -0.274 OA
ATOM     33  N   UNL     1       9.286  -0.647   1.350  0.00  0.00    -0.307 N 
ATOM     34  H   UNL     1       9.873  -0.620   0.579  0.00  0.00    +0.149 HD
BRANCH  33  35
ATOM     35  C   UNL     1       9.839  -0.497   2.698  0.00  0.00    +0.178 C 
BRANCH  35  36
ATOM     36  C   UNL     1      11.333  -0.317   2.610  0.00  0.00    +0.122 A 
ATOM     37  C   UNL     1      11.979   0.858   2.505  0.00  0.00    +0.046 A 
ATOM     38  C   UNL     1      13.360   0.563   2.452  0.00  0.00    +0.041 A 
ATOM     39  C   UNL     1      13.476  -0.775   2.528  0.00  0.00    +0.195 A 
ATOM     40  O   UNL     1      12.245  -1.302   2.630  0.00  0.00    -0.466 OA
ENDBRANCH  35  36
ENDBRANCH  33  35
ENDBRANCH  30  31
ENDBRANCH   3  30
TORSDOF 6
