REMARK  Name = ZINC40058227
REMARK  11 active torsions:
REMARK  status: ('A' for Active; 'I' for Inactive)
REMARK    1  A    between atoms: C_1  and  C_2
REMARK    2  A    between atoms: C_2  and  C_3
REMARK    3  A    between atoms: C_9  and  C_26
REMARK    4  A    between atoms: C_15  and  C_25
REMARK    5  A    between atoms: C_17  and  C_24
REMARK    6  A    between atoms: C_28  and  O_36
REMARK    7  A    between atoms: C_29  and  O_34
REMARK    8  A    between atoms: C_30  and  O_32
REMARK    9  A    between atoms: O_32  and  C_33
REMARK   10  A    between atoms: O_34  and  C_35
REMARK   11  A    between atoms: O_36  and  C_37
REMARK                            x       y       z     vdW  Elec       q    Type
REMARK                         _______ _______ _______ _____ _____    ______ ____
ROOT
ATOM      1  C   UNL     1      -1.412  -0.526   0.013  0.00  0.00    +0.103 A 
ATOM      2  N   UNL     1      -2.214  -0.819  -0.992  0.00  0.00    -0.145 NA
ATOM      3  N   UNL     1      -3.385  -1.252  -0.811  0.00  0.00    -0.125 NA
ATOM      4  C   UNL     1      -3.882  -1.439   0.404  0.00  0.00    +0.191 A 
ATOM      5  S   UNL     1      -2.478  -0.931   1.393  0.00  0.00    -0.035 S 
ATOM      6  N   UNL     1      -5.131  -1.901   0.797  0.00  0.00    -0.230 N 
ATOM      7  C   UNL     1      -6.224  -2.309  -0.101  0.00  0.00    +0.152 C 
ATOM      8  C   UNL     1      -7.350  -2.722   0.790  0.00  0.00    +0.072 A 
ATOM      9  C   UNL     1      -8.697  -3.211   0.481  0.00  0.00    +0.199 A 
ATOM     10  O   UNL     1      -9.052  -3.524  -0.642  0.00  0.00    -0.287 OA
ATOM     11  C   UNL     1      -9.588  -3.288   1.667  0.00  0.00    +0.067 A 
ATOM     12  C   UNL     1     -10.950  -3.543   1.511  0.00  0.00    -0.036 A 
ATOM     13  C   UNL     1     -11.758  -3.606   2.612  0.00  0.00    +0.007 A 
ATOM     14  C   UNL     1     -11.227  -3.418   3.880  0.00  0.00    -0.047 A 
ATOM     15  C   UNL     1      -9.884  -3.167   4.052  0.00  0.00    +0.050 A 
ATOM     16  C   UNL     1      -9.038  -3.100   2.945  0.00  0.00    +0.140 A 
ATOM     17  O   UNL     1      -7.721  -2.863   3.138  0.00  0.00    -0.450 OA
ATOM     18  C   UNL     1      -6.935  -2.569   2.083  0.00  0.00    +0.199 A 
ATOM     19  C   UNL     1      -5.553  -2.061   2.068  0.00  0.00    +0.289 C 
ATOM     20  O   UNL     1      -4.890  -1.819   3.057  0.00  0.00    -0.266 OA
ATOM     21  C   UNL     1     -12.131  -3.488   5.084  0.00  0.00    +0.044 C 
ATOM     22  C   UNL     1     -11.530  -3.747   0.135  0.00  0.00    +0.044 C 
ENDROOT
BRANCH   7  23
ATOM     23  C   UNL     1      -5.787  -3.468  -0.959  0.00  0.00    -0.015 A 
ATOM     24  C   UNL     1      -4.998  -4.466  -0.419  0.00  0.00    +0.055 A 
ATOM     25  C   UNL     1      -4.593  -5.534  -1.206  0.00  0.00    +0.165 A 
ATOM     26  C   UNL     1      -4.982  -5.600  -2.539  0.00  0.00    +0.204 A 
ATOM     27  C   UNL     1      -5.776  -4.594  -3.077  0.00  0.00    +0.165 A 
ATOM     28  C   UNL     1      -6.181  -3.533  -2.283  0.00  0.00    +0.055 A 
BRANCH  27  29
ATOM     29  O   UNL     1      -6.160  -4.654  -4.381  0.00  0.00    -0.491 OA
ATOM     30  C   UNL     1      -6.975  -3.586  -4.867  0.00  0.00    +0.277 C 
ENDBRANCH  27  29
BRANCH  26  31
ATOM     31  O   UNL     1      -4.587  -6.646  -3.314  0.00  0.00    -0.488 OA
ATOM     32  C   UNL     1      -5.443  -7.790  -3.347  0.00  0.00    +0.277 C 
ENDBRANCH  26  31
BRANCH  25  33
ATOM     33  O   UNL     1      -3.816  -6.516  -0.674  0.00  0.00    -0.491 OA
ATOM     34  C   UNL     1      -3.454  -6.383   0.702  0.00  0.00    +0.277 C 
ENDBRANCH  25  33
ENDBRANCH   7  23
BRANCH   1  36
ATOM     35  C   UNL     1      -0.019   1.526   0.010  0.00  0.00    +0.011 C 
ATOM     36  C   UNL     1       0.002  -0.004   0.002  0.00  0.00    +0.061 C 
ENDBRANCH   1  36
TORSDOF 5
