REMARK  Name = ZINC59171102
REMARK  8 active torsions:
REMARK  status: ('A' for Active; 'I' for Inactive)
REMARK    1  A    between atoms: C_1  and  C_2
REMARK    2  A    between atoms: C_2  and  O_3
REMARK    3  A    between atoms: O_3  and  C_4
REMARK    4  A    between atoms: N_12  and  C_13
REMARK    5  A    between atoms: C_18  and  O_19
REMARK    6  A    between atoms: O_19  and  C_20
REMARK    7  A    between atoms: C_21  and  C_23
REMARK    8  A    between atoms: C_23  and  N_25
REMARK                            x       y       z     vdW  Elec       q    Type
REMARK                         _______ _______ _______ _____ _____    ______ ____
ROOT
ATOM      1  C   UNL     1       2.044  -1.627  -0.704  0.00  0.00    +0.164 A 
ATOM      2  C   UNL     1       1.571  -2.388   0.351  0.00  0.00    +0.064 A 
ATOM      3  C   UNL     1       1.330  -3.745   0.191  0.00  0.00    +0.022 A 
ATOM      4  C   UNL     1       1.560  -4.356  -1.023  0.00  0.00    +0.027 A 
ATOM      5  C   UNL     1       2.042  -3.600  -2.099  0.00  0.00    +0.023 A 
ATOM      6  C   UNL     1       2.277  -2.223  -1.939  0.00  0.00    +0.179 A 
ATOM      7  O   UNL     1       2.730  -1.489  -2.985  0.00  0.00    -0.435 OA
ATOM      8  C   UNL     1       3.457  -2.142  -3.928  0.00  0.00    +0.209 A 
ATOM      9  N   UNL     1       4.524  -1.590  -4.464  0.00  0.00    -0.322 N 
ATOM     10  C   UNL     1       3.013  -3.491  -4.333  0.00  0.00    +0.064 A 
ATOM     11  C   UNL     1       2.301  -4.228  -3.398  0.00  0.00    +0.027 A 
ATOM     12 BR   UNL     1       0.682  -4.763   1.646  0.00  0.00    -0.050 Br
ATOM     13  H   UNL     1       5.082  -2.102  -5.070  0.00  0.00    +0.169 HD
ENDROOT
BRANCH   9  14
ATOM     14  C   UNL     1       4.846  -0.294  -4.167  0.00  0.00    +0.084 A 
ATOM     15  C   UNL     1       3.876   0.707  -4.249  0.00  0.00    +0.029 A 
ATOM     16  C   UNL     1       4.207   2.012  -3.948  0.00  0.00    +0.002 A 
ATOM     17  C   UNL     1       5.497   2.333  -3.564  0.00  0.00    +0.004 A 
ATOM     18  C   UNL     1       6.467   1.350  -3.479  0.00  0.00    +0.048 A 
ATOM     19  C   UNL     1       6.149   0.035  -3.773  0.00  0.00    +0.143 A 
BRANCH  19  20
ATOM     20  O   UNL     1       7.100  -0.932  -3.684  0.00  0.00    -0.493 OA
ATOM     21  C   UNL     1       8.407  -0.522  -3.276  0.00  0.00    +0.277 C 
ENDBRANCH  19  20
ENDBRANCH   9  14
BRANCH  10  22
ATOM     22  C   UNL     1       3.321  -4.033  -5.665  0.00  0.00    +0.082 C 
ATOM     23  S   UNL     1       4.066  -3.039  -6.843  0.00  0.00    -0.035 S 
BRANCH  22  24
ATOM     24  N   UNL     1       3.017  -5.313  -5.959  0.00  0.00    -0.352 N 
ATOM     25  H   UNL     1       2.595  -5.877  -5.292  0.00  0.00    +0.143 HD
ATOM     26  H   UNL     1       3.220  -5.670  -6.837  0.00  0.00    +0.143 HD
ENDBRANCH  22  24
ENDBRANCH  10  22
BRANCH   1  27
ATOM     27  O   UNL     1       2.276  -0.297  -0.535  0.00  0.00    -0.489 OA
BRANCH  27  29
ATOM     28  C   UNL     1       2.330   1.744   0.758  0.00  0.00    +0.048 C 
ATOM     29  C   UNL     1       2.014   0.247   0.760  0.00  0.00    +0.226 C 
ENDBRANCH  27  29
ENDBRANCH   1  27
TORSDOF 6
