REMARK  Name = ZINC63372653
REMARK  11 active torsions:
REMARK  status: ('A' for Active; 'I' for Inactive)
REMARK    1  A    between atoms: C_1  and  C_2
REMARK    2  A    between atoms: C_2  and  C_3
REMARK    3  A    between atoms: C_3  and  C_4
REMARK    4  A    between atoms: C_4  and  C_5
REMARK    5  A    between atoms: C_5  and  N_6
REMARK    6  A    between atoms: C_7  and  C_9
REMARK    7  A    between atoms: C_9  and  C_11
REMARK    8  A    between atoms: C_9  and  N_14
REMARK    9  A    between atoms: C_11  and  C_12
REMARK   10  A    between atoms: C_11  and  C_13
REMARK   11  A    between atoms: C_17  and  C_33
REMARK                            x       y       z     vdW  Elec       q    Type
REMARK                         _______ _______ _______ _____ _____    ______ ____
ROOT
ATOM      1  N   UNL     1       2.918  -6.651  -4.622  0.00  0.00    -0.212 N 
ATOM      2  C   UNL     1       2.448  -7.520  -5.541  0.00  0.00    +0.249 C 
ATOM      3  O   UNL     1       1.360  -8.054  -5.555  0.00  0.00    -0.273 OA
ATOM      4  C   UNL     1       3.562  -7.686  -6.551  0.00  0.00    +0.136 C 
ATOM      5  C   UNL     1       3.995  -9.149  -6.640  0.00  0.00    +0.139 C 
ATOM      6  C   UNL     1       5.393  -9.245  -6.046  0.00  0.00    -0.034 C 
ATOM      7  C   UNL     1       5.324 -10.156  -5.079  0.00  0.00    -0.001 A 
ATOM      8  C   UNL     1       6.357 -10.723  -4.197  0.00  0.00    +0.010 A 
ATOM      9  C   UNL     1       5.931 -11.646  -3.293  0.00  0.00    +0.001 A 
ATOM     10  C   UNL     1       4.599 -12.055  -3.181  0.00  0.00    +0.002 A 
ATOM     11  C   UNL     1       3.585 -11.590  -3.954  0.00  0.00    +0.026 A 
ATOM     12  C   UNL     1       3.910 -10.617  -4.945  0.00  0.00    +0.043 A 
ATOM     13  N   UNL     1       3.142 -10.021  -5.830  0.00  0.00    -0.375 N 
ATOM     14  C   UNL     1       6.549  -8.380  -6.485  0.00  0.00    +0.052 C 
ATOM     15  C   UNL     1       6.059  -6.919  -6.444  0.00  0.00    +0.115 C 
ATOM     16  N   UNL     1       4.677  -6.920  -5.957  0.00  0.00    -0.269 N 
ATOM     17  C   UNL     1       4.178  -6.282  -4.889  0.00  0.00    +0.313 C 
ATOM     18  O   UNL     1       4.799  -5.466  -4.236  0.00  0.00    -0.252 OA
ATOM     19  C   UNL     1       3.163  -7.125  -7.917  0.00  0.00    +0.044 C 
ATOM     20  H   UNL     1       2.184 -10.132  -5.933  0.00  0.00    +0.160 HD
ENDROOT
BRANCH   1  21
ATOM     21  C   UNL     1       2.144  -6.167  -3.476  0.00  0.00    +0.174 C 
BRANCH  21  23
ATOM     22  N   UNL     1       1.028  -4.041  -2.884  0.00  0.00    -0.314 N 
ATOM     23  C   UNL     1       2.014  -4.668  -3.555  0.00  0.00    +0.234 C 
ATOM     24  O   UNL     1       2.796  -4.026  -4.224  0.00  0.00    -0.274 OA
ATOM     25  H   UNL     1       0.360  -4.558  -2.407  0.00  0.00    +0.149 HD
BRANCH  22  26
ATOM     26  C   UNL     1       0.965  -2.577  -2.873  0.00  0.00    +0.104 C 
BRANCH  26  27
ATOM     27  C   UNL     1      -0.240  -2.124  -2.046  0.00  0.00    +0.019 C 
BRANCH  27  28
ATOM     28  C   UNL     1      -0.306  -0.596  -2.035  0.00  0.00    +0.001 C 
BRANCH  28  30
ATOM     29  C   UNL     1      -1.576   1.385  -1.196  0.00  0.00    +0.004 C 
ATOM     30  C   UNL     1      -1.510  -0.143  -1.207  0.00  0.00    -0.003 C 
ENDBRANCH  28  30
ENDBRANCH  27  28
ENDBRANCH  26  27
ENDBRANCH  22  26
ENDBRANCH  21  23
BRANCH  21  31
ATOM     31  C   UNL     1       2.861  -6.548  -2.179  0.00  0.00    +0.013 C 
ATOM     32  C   UNL     1       2.002  -6.136  -0.982  0.00  0.00    +0.009 C 
ATOM     33  C   UNL     1       3.087  -8.061  -2.147  0.00  0.00    +0.009 C 
ENDBRANCH  21  31
ENDBRANCH   1  21
TORSDOF 7
