REMARK  Name = ZINC38979435
REMARK  8 active torsions:
REMARK  status: ('A' for Active; 'I' for Inactive)
REMARK    1  A    between atoms: C_1  and  C_2
REMARK    2  A    between atoms: C_2  and  O_3
REMARK    3  A    between atoms: O_3  and  C_4
REMARK    4  A    between atoms: C_4  and  C_6
REMARK    5  A    between atoms: C_9  and  N_12
REMARK    6  A    between atoms: N_12  and  C_13
REMARK    7  A    between atoms: N_16  and  S_17
REMARK    8  A    between atoms: S_17  and  C_20
REMARK                            x       y       z     vdW  Elec       q    Type
REMARK                         _______ _______ _______ _____ _____    ______ ____
ROOT
ATOM      1  C   UNL     1       3.502  -5.403   5.986  0.00  0.00    +0.235 C 
ATOM      2  C   UNL     1       2.983  -5.676   7.379  0.00  0.00    +0.170 C 
ATOM      3  N   UNL     1       1.796  -5.278   7.730  0.00  0.00    -0.111 NA
ATOM      4  N   UNL     1       3.765  -6.335   8.248  0.00  0.00    -0.338 N 
ATOM      5  C   UNL     1       4.971  -6.748   7.917  0.00  0.00    +0.064 A 
ATOM      6  C   UNL     1       5.770  -7.442   8.861  0.00  0.00    +0.028 A 
ATOM      7  C   UNL     1       7.007  -7.867   8.526  0.00  0.00    +0.002 A 
ATOM      8  C   UNL     1       7.566  -7.655   7.255  0.00  0.00    +0.002 A 
ATOM      9  C   UNL     1       6.891  -7.005   6.282  0.00  0.00    +0.027 A 
ATOM     10  C   UNL     1       5.535  -6.510   6.566  0.00  0.00    +0.061 A 
ATOM     11  N   UNL     1       4.854  -5.880   5.651  0.00  0.00    -0.359 N 
ATOM     12  H   UNL     1       5.229  -5.728   4.770  0.00  0.00    +0.162 HD
ATOM     13  H   UNL     1       3.434  -6.511   9.143  0.00  0.00    +0.167 HD
ENDROOT
BRANCH   3  14
ATOM     14  S   UNL     1       1.239  -5.583   9.260  0.00  0.00    +0.107 S 
ATOM     15  O   UNL     1       1.098  -6.993   9.367  0.00  0.00    -0.146 OA
ATOM     16  O   UNL     1       2.054  -4.829  10.147  0.00  0.00    -0.146 OA
BRANCH  14  17
ATOM     17  C   UNL     1      -0.384  -4.905   9.368  0.00  0.00    +0.150 A 
ATOM     18  C   UNL     1      -1.574  -5.493   9.096  0.00  0.00    +0.037 A 
ATOM     19  C   UNL     1      -2.736  -4.760   9.255  0.00  0.00    +0.010 A 
ATOM     20  C   UNL     1      -2.650  -3.475   9.678  0.00  0.00    +0.047 A 
ATOM     21  S   UNL     1      -0.887  -3.268   9.872  0.00  0.00    -0.076 S 
ENDBRANCH  14  17
ENDBRANCH   3  14
BRANCH   1  22
ATOM     22  N   UNL     1       3.474  -3.954   5.774  0.00  0.00    -0.318 N 
ATOM     23  H   UNL     1       3.885  -3.361   6.422  0.00  0.00    +0.148 HD
BRANCH  22  27
ATOM     24  C   UNL     1       1.635  -2.383   2.393  0.00  0.00    +0.059 A 
ATOM     25  C   UNL     1       1.817  -3.764   2.514  0.00  0.00    +0.017 A 
ATOM     26  C   UNL     1       2.424  -4.279   3.630  0.00  0.00    +0.024 A 
ATOM     27  C   UNL     1       2.860  -3.428   4.643  0.00  0.00    +0.029 A 
ATOM     28  C   UNL     1       2.680  -2.052   4.526  0.00  0.00    +0.024 A 
ATOM     29  C   UNL     1       2.078  -1.531   3.410  0.00  0.00    +0.017 A 
BRANCH  24  30
ATOM     30  C   UNL     1       0.982  -1.826   1.195  0.00  0.00    +0.339 C 
ATOM     31  O   UNL     1       0.829  -0.625   1.089  0.00  0.00    -0.245 OA
BRANCH  30  32
ATOM     32  O   UNL     1       0.555  -2.648   0.216  0.00  0.00    -0.461 OA
BRANCH  32  34
ATOM     33  C   UNL     1      -0.483  -3.124  -1.913  0.00  0.00    +0.048 C 
ATOM     34  C   UNL     1      -0.068  -2.040  -0.916  0.00  0.00    +0.229 C 
ENDBRANCH  32  34
ENDBRANCH  30  32
ENDBRANCH  24  30
ENDBRANCH  22  27
ENDBRANCH   1  22
TORSDOF 7
