REMARK  Name = ZINC03182512
REMARK  8 active torsions:
REMARK  status: ('A' for Active; 'I' for Inactive)
REMARK    1  A    between atoms: C_1  and  C_2
REMARK    2  A    between atoms: C_7  and  C_9
REMARK    3  A    between atoms: C_7  and  C_10
REMARK    4  A    between atoms: N_11  and  S_13
REMARK    5  A    between atoms: S_13  and  C_16
REMARK    6  A    between atoms: C_19  and  C_22
REMARK    7  A    between atoms: N_24  and  N_25
REMARK    8  A    between atoms: N_25  and  C_26
REMARK                            x       y       z     vdW  Elec       q    Type
REMARK                         _______ _______ _______ _____ _____    ______ ____
ROOT
ATOM      1  C   UNL     1      -2.131  -3.961   0.476  0.00  0.00    +0.106 A 
ATOM      2  C   UNL     1      -1.191  -4.972   0.569  0.00  0.00    +0.029 A 
ATOM      3  C   UNL     1      -1.194  -5.822   1.655  0.00  0.00    +0.015 A 
ATOM      4  C   UNL     1      -2.147  -5.661   2.662  0.00  0.00    +0.038 A 
ATOM      5  C   UNL     1      -3.092  -4.638   2.562  0.00  0.00    +0.015 A 
ATOM      6  C   UNL     1      -3.075  -3.792   1.472  0.00  0.00    +0.029 A 
ENDROOT
BRANCH   4   7
ATOM      7  C   UNL     1      -2.157  -6.568   3.829  0.00  0.00    +0.260 C 
ATOM      8  O   UNL     1      -1.333  -7.458   3.913  0.00  0.00    -0.269 OA
ATOM      9  N   UNL     1      -3.079  -6.410   4.799  0.00  0.00    -0.233 N 
ATOM     10  H   UNL     1      -3.736  -5.700   4.731  0.00  0.00    +0.173 HD
BRANCH   9  11
ATOM     11  N   UNL     1      -3.087  -7.270   5.905  0.00  0.00    -0.271 N 
ATOM     12  H   UNL     1      -2.430  -7.980   5.972  0.00  0.00    +0.169 HD
BRANCH  11  13
ATOM     13  C   UNL     1      -4.011  -7.111   6.876  0.00  0.00    +0.097 C 
ATOM     14  C   UNL     1      -4.093  -8.027   7.908  0.00  0.00    +0.017 C 
ATOM     15  C   UNL     1      -4.917  -7.960   9.060  0.00  0.00    +0.121 C 
ATOM     16  N   UNL     1      -4.713  -9.014   9.803  0.00  0.00    -0.254 NA
ATOM     17  C   UNL     1      -3.791  -9.849   9.268  0.00  0.00    +0.072 A 
ATOM     18  C   UNL     1      -3.348  -9.294   8.048  0.00  0.00    +0.010 A 
ATOM     19  C   UNL     1      -2.397  -9.954   7.281  0.00  0.00    +0.011 A 
ATOM     20  C   UNL     1      -1.888 -11.160   7.715  0.00  0.00    +0.001 A 
ATOM     21  C   UNL     1      -2.321 -11.715   8.911  0.00  0.00    +0.002 A 
ATOM     22  C   UNL     1      -3.256 -11.072   9.689  0.00  0.00    +0.028 A 
ENDBRANCH  11  13
ENDBRANCH   9  11
ENDBRANCH   4   7
BRANCH   1  23
ATOM     23  S   UNL     1      -2.120  -2.879  -0.915  0.00  0.00    +0.061 S 
ATOM     24  O   UNL     1      -3.435  -2.354  -1.032  0.00  0.00    -0.153 OA
ATOM     25  O   UNL     1      -1.484  -3.583  -1.972  0.00  0.00    -0.153 OA
BRANCH  23  35
ATOM     26  C   UNL     1      -0.518   1.979   0.323  0.00  0.00    +0.012 C 
ATOM     27  C   UNL     1      -0.267   0.464   0.359  0.00  0.00    -0.016 C 
ATOM     28  C   UNL     1       0.647  -0.012  -0.804  0.00  0.00    +0.028 C 
ATOM     29  C   UNL     1       0.319  -1.526  -0.788  0.00  0.00    +0.081 C 
ATOM     30  C   UNL     1       1.059  -2.131   0.405  0.00  0.00    +0.027 C 
ATOM     31  C   UNL     1       0.702  -1.477   1.728  0.00  0.00    -0.033 C 
ATOM     32  C   UNL     1       0.378   0.003   1.665  0.00  0.00    +0.014 C 
ATOM     33  C   UNL     1       1.930  -1.637   2.660  0.00  0.00    +0.011 C 
ATOM     34  C   UNL     1      -0.451  -2.244   2.392  0.00  0.00    +0.011 C 
ATOM     35  N   UNL     1      -1.134  -1.604  -0.535  0.00  0.00    -0.173 NA
ATOM     36  C   UNL     1      -1.556  -0.351   0.110  0.00  0.00    +0.116 C 
ENDBRANCH  23  35
ENDBRANCH   1  23
TORSDOF 5
