REMARK  Name = ZINC64652822
REMARK  8 active torsions:
REMARK  status: ('A' for Active; 'I' for Inactive)
REMARK    1  A    between atoms: C_7  and  C_10
REMARK    2  A    between atoms: C_10  and  C_11
REMARK    3  A    between atoms: C_11  and  N_12
REMARK    4  A    between atoms: C_13  and  C_15
REMARK    5  A    between atoms: C_19  and  S_22
REMARK    6  A    between atoms: S_22  and  C_23
REMARK    7  A    between atoms: C_23  and  C_24
REMARK    8  A    between atoms: N_26  and  C_27
REMARK                            x       y       z     vdW  Elec       q    Type
REMARK                         _______ _______ _______ _____ _____    ______ ____
ROOT
ATOM      1  C   UNL     1      -1.840  -6.502  -2.458  0.00  0.00    +0.086 C 
ATOM      2  C   UNL     1      -2.083  -6.955  -3.705  0.00  0.00    +0.020 C 
ATOM      3  C   UNL     1      -3.044  -8.106  -3.980  0.00  0.00    +0.122 C 
ATOM      4  S   UNL     1      -3.592  -7.654  -5.684  0.00  0.00    -0.122 S 
ATOM      5  C   UNL     1      -2.150  -6.586  -6.104  0.00  0.00    +0.188 C 
ATOM      6  N   UNL     1      -1.497  -6.417  -4.795  0.00  0.00    -0.326 N 
ATOM      7  H   UNL     1      -0.661  -5.931  -4.719  0.00  0.00    +0.148 HD
ENDROOT
BRANCH   1   9
ATOM      8  N   UNL     1      -0.709  -4.957  -1.024  0.00  0.00    -0.311 N 
ATOM      9  C   UNL     1      -1.055  -5.341  -2.269  0.00  0.00    +0.238 C 
ATOM     10  O   UNL     1      -0.691  -4.688  -3.230  0.00  0.00    -0.271 OA
ATOM     11  H   UNL     1      -0.998  -5.478  -0.258  0.00  0.00    +0.149 HD
BRANCH   8  12
ATOM     12  C   UNL     1       0.105  -3.755  -0.827  0.00  0.00    +0.109 C 
BRANCH  12  13
ATOM     13  C   UNL     1       0.353  -3.546   0.668  0.00  0.00    +0.052 C 
BRANCH  13  20
ATOM     14  C   UNL     1      -0.735   0.818   1.579  0.00  0.00    +0.001 A 
ATOM     15  C   UNL     1       0.377   1.663   1.690  0.00  0.00    +0.002 A 
ATOM     16  C   UNL     1       1.645   1.223   1.541  0.00  0.00    +0.026 A 
ATOM     17  C   UNL     1       1.902  -0.147   1.260  0.00  0.00    +0.043 A 
ATOM     18  N   UNL     1       3.021  -0.805   1.075  0.00  0.00    -0.380 N 
ATOM     19  C   UNL     1       2.698  -2.212   0.814  0.00  0.00    +0.144 C 
ATOM     20  C   UNL     1       1.190  -2.309   0.870  0.00  0.00    -0.040 C 
ATOM     21  C   UNL     1       0.744  -1.060   1.138  0.00  0.00    -0.001 A 
ATOM     22  C   UNL     1      -0.602  -0.502   1.314  0.00  0.00    +0.010 A 
ATOM     23  H   UNL     1       3.913  -0.425   1.105  0.00  0.00    +0.160 HD
ENDBRANCH  13  20
ENDBRANCH  12  13
ENDBRANCH   8  12
ENDBRANCH   1   9
BRANCH   5  24
ATOM     24  S   UNL     1      -2.700  -4.988  -6.763  0.00  0.00    -0.119 S 
BRANCH  24  25
ATOM     25  C   UNL     1      -3.724  -4.295  -5.436  0.00  0.00    +0.167 C 
BRANCH  25  26
ATOM     26  C   UNL     1      -4.251  -2.948  -5.860  0.00  0.00    +0.227 C 
ATOM     27  O   UNL     1      -3.965  -2.501  -6.950  0.00  0.00    -0.275 OA
ATOM     28  N   UNL     1      -5.041  -2.241  -5.027  0.00  0.00    -0.285 N 
ATOM     29  H   UNL     1      -5.208  -2.563  -4.128  0.00  0.00    +0.155 HD
BRANCH  28  30
ATOM     30  C   UNL     1      -5.620  -1.043  -5.461  0.00  0.00    +0.033 A 
ATOM     31  C   UNL     1      -5.802   0.005  -4.568  0.00  0.00    +0.025 A 
ATOM     32  C   UNL     1      -6.373   1.186  -4.998  0.00  0.00    +0.022 A 
ATOM     33  C   UNL     1      -6.765   1.326  -6.318  0.00  0.00    +0.041 A 
ATOM     34  C   UNL     1      -6.586   0.283  -7.210  0.00  0.00    +0.022 A 
ATOM     35  C   UNL     1      -6.009  -0.898  -6.786  0.00  0.00    +0.025 A 
ATOM     36 CL   UNL     1      -7.484   2.812  -6.856  0.00  0.00    -0.084 Cl
ENDBRANCH  28  30
ENDBRANCH  25  26
ENDBRANCH  24  25
ENDBRANCH   5  24
TORSDOF 8
