REMARK  Name = ZINC08861911
REMARK  8 active torsions:
REMARK  status: ('A' for Active; 'I' for Inactive)
REMARK    1  A    between atoms: C_1  and  C_2
REMARK    2  A    between atoms: C_2  and  O_3
REMARK    3  A    between atoms: O_3  and  C_4
REMARK    4  A    between atoms: C_4  and  C_6
REMARK    5  A    between atoms: C_8  and  C_21
REMARK    6  A    between atoms: N_11  and  C_14
REMARK    7  A    between atoms: C_12  and  O_13
REMARK    8  A    between atoms: C_18  and  C_20
REMARK                            x       y       z     vdW  Elec       q    Type
REMARK                         _______ _______ _______ _____ _____    ______ ____
ROOT
ATOM      1  C   UNL     1      -1.243   7.395  -0.049  0.00  0.00    +0.120 A 
ATOM      2  C   UNL     1       0.006   8.022   0.103  0.00  0.00    +0.044 A 
ATOM      3  C   UNL     1       1.148   7.234   0.185  0.00  0.00    +0.117 A 
ATOM      4  C   UNL     1       1.025   5.822   0.119  0.00  0.00    +0.276 A 
ATOM      5  O   UNL     1       2.021   5.123   0.195  0.00  0.00    -0.266 OA
ATOM      6  N   UNL     1      -0.183   5.249  -0.032  0.00  0.00    -0.246 N 
ATOM      7  C   UNL     1      -1.310   6.000  -0.114  0.00  0.00    +0.215 A 
ENDROOT
BRANCH   6   8
ATOM      8  C   UNL     1      -0.279   3.853  -0.101  0.00  0.00    +0.053 A 
ATOM      9  C   UNL     1       0.276   3.169  -1.174  0.00  0.00    +0.026 A 
ATOM     10  C   UNL     1       0.184   1.793  -1.236  0.00  0.00    +0.002 A 
ATOM     11  C   UNL     1      -0.468   1.096  -0.235  0.00  0.00    +0.003 A 
ATOM     12  C   UNL     1      -1.022   1.774   0.835  0.00  0.00    -0.048 A 
ATOM     13  C   UNL     1      -0.929   3.151   0.905  0.00  0.00    +0.029 A 
ATOM     14  C   UNL     1      -1.726   1.011   1.927  0.00  0.00    +0.044 C 
ENDBRANCH   6   8
BRANCH   1  15
ATOM     15  C   UNL     1      -2.470   8.200  -0.139  0.00  0.00    +0.344 C 
ATOM     16  O   UNL     1      -3.556   7.654  -0.151  0.00  0.00    -0.245 OA
BRANCH  15  17
ATOM     17  O   UNL     1      -2.390   9.544  -0.208  0.00  0.00    -0.461 OA
BRANCH  17  19
ATOM     18  C   UNL     1      -3.353  11.775  -0.364  0.00  0.00    +0.048 C 
ATOM     19  C   UNL     1      -3.642  10.274  -0.295  0.00  0.00    +0.229 C 
ENDBRANCH  17  19
ENDBRANCH  15  17
ENDBRANCH   1  15
BRANCH   7  20
ATOM     20  O   UNL     1      -2.505   5.396  -0.260  0.00  0.00    -0.493 OA
ATOM     21  H   UNL     1      -3.272   5.968  -0.399  0.00  0.00    +0.294 HD
ENDBRANCH   7  20
BRANCH   3  22
ATOM     22  C   UNL     1       2.436   7.841   0.340  0.00  0.00    +0.105 C 
ATOM     23  N   UNL     1       3.457   8.322   0.463  0.00  0.00    -0.191 NA
ENDBRANCH   3  22
TORSDOF 6
