REMARK  Name = ZINC15716996
REMARK  5 active torsions:
REMARK  status: ('A' for Active; 'I' for Inactive)
REMARK    1  A    between atoms: C_4  and  C_7
REMARK    2  A    between atoms: C_7  and  N_8
REMARK    3  A    between atoms: C_17  and  C_19
REMARK    4  A    between atoms: N_21  and  N_22
REMARK    5  A    between atoms: C_23  and  C_25
REMARK                            x       y       z     vdW  Elec       q    Type
REMARK                         _______ _______ _______ _____ _____    ______ ____
ROOT
ATOM      1  N   UNL     1       4.124  -0.938  -1.425  0.00  0.00    -0.224 N 
ATOM      2  C   UNL     1       4.879   0.001  -2.031  0.00  0.00    +0.275 A 
ATOM      3  O   UNL     1       5.208   1.013  -1.440  0.00  0.00    -0.266 OA
ATOM      4  C   UNL     1       5.300  -0.229  -3.421  0.00  0.00    +0.050 A 
ATOM      5  C   UNL     1       6.082   0.675  -4.133  0.00  0.00    +0.014 A 
ATOM      6  C   UNL     1       6.430   0.388  -5.435  0.00  0.00    +0.001 A 
ATOM      7  C   UNL     1       6.008  -0.789  -6.040  0.00  0.00    +0.001 A 
ATOM      8  C   UNL     1       5.231  -1.697  -5.351  0.00  0.00    +0.011 A 
ATOM      9  C   UNL     1       4.870  -1.427  -4.036  0.00  0.00    +0.020 A 
ATOM     10  C   UNL     1       4.044  -2.342  -3.232  0.00  0.00    +0.155 A 
ATOM     11  N   UNL     1       3.744  -2.017  -1.998  0.00  0.00    -0.163 NA
ENDROOT
BRANCH  10  12
ATOM     12  C   UNL     1       3.558  -3.612  -3.809  0.00  0.00    +0.281 C 
ATOM     13  O   UNL     1       3.841  -3.907  -4.954  0.00  0.00    -0.267 OA
ATOM     14  N   UNL     1       2.802  -4.444  -3.066  0.00  0.00    -0.229 N 
ATOM     15  H   UNL     1       2.577  -4.209  -2.152  0.00  0.00    +0.173 HD
BRANCH  14  16
ATOM     16  N   UNL     1       2.342  -5.649  -3.613  0.00  0.00    -0.231 N 
ATOM     17  C   UNL     1       1.585  -6.481  -2.870  0.00  0.00    +0.270 C 
ATOM     18  O   UNL     1       1.304  -6.187  -1.728  0.00  0.00    -0.270 OA
ATOM     19  H   UNL     1       2.567  -5.884  -4.527  0.00  0.00    +0.173 HD
BRANCH  17  20
ATOM     20  C   UNL     1       1.090  -7.777  -3.459  0.00  0.00    +0.264 C 
ATOM     21  C   UNL     1       2.259  -8.771  -3.657  0.00  0.00    +0.093 C 
ATOM     22  C   UNL     1       2.222  -9.560  -2.362  0.00  0.00    -0.000 A 
ATOM     23  C   UNL     1       3.138 -10.395  -1.762  0.00  0.00    +0.027 A 
ATOM     24  C   UNL     1       2.845 -10.982  -0.543  0.00  0.00    +0.041 A 
ATOM     25  C   UNL     1       1.629 -10.726   0.067  0.00  0.00    +0.023 A 
ATOM     26  C   UNL     1       0.709  -9.893  -0.535  0.00  0.00    +0.047 A 
ATOM     27  C   UNL     1       0.995  -9.302  -1.763  0.00  0.00    +0.125 A 
ATOM     28  O   UNL     1       0.239  -8.467  -2.528  0.00  0.00    -0.479 OA
ATOM     29 CL   UNL     1       3.997 -12.034   0.218  0.00  0.00    -0.084 Cl
ENDBRANCH  17  20
ENDBRANCH  14  16
ENDBRANCH  10  12
BRANCH   1  30
ATOM     30  C   UNL     1       3.711  -0.707  -0.039  0.00  0.00    +0.182 C 
BRANCH  30  34
ATOM     31  C   UNL     1      -0.017   1.378   0.010  0.00  0.00    +0.000 A 
ATOM     32  C   UNL     1       1.171   2.086   0.002  0.00  0.00    +0.000 A 
ATOM     33  C   UNL     1       2.377   1.411  -0.014  0.00  0.00    +0.005 A 
ATOM     34  C   UNL     1       2.396   0.029  -0.022  0.00  0.00    -0.026 A 
ATOM     35  C   UNL     1       1.208  -0.679  -0.014  0.00  0.00    +0.005 A 
ATOM     36  C   UNL     1       0.002  -0.004   0.002  0.00  0.00    +0.000 A 
ENDBRANCH  30  34
ENDBRANCH   1  30
TORSDOF 5
