REMARK  Name = ZINC35990979
REMARK  9 active torsions:
REMARK  status: ('A' for Active; 'I' for Inactive)
REMARK    1  A    between atoms: C_1  and  C_2
REMARK    2  A    between atoms: C_2  and  O_3
REMARK    3  A    between atoms: O_3  and  C_4
REMARK    4  A    between atoms: C_4  and  C_6
REMARK    5  A    between atoms: C_7  and  C_25
REMARK    6  A    between atoms: N_8  and  C_22
REMARK    7  A    between atoms: C_12  and  C_14
REMARK    8  A    between atoms: C_22  and  C_23
REMARK    9  A    between atoms: C_25  and  N_26
REMARK                            x       y       z     vdW  Elec       q    Type
REMARK                         _______ _______ _______ _____ _____    ______ ____
ROOT
ATOM      1  C   UNL     1      -2.092  -2.361  -0.151  0.00  0.00    +0.076 C 
ATOM      2  C   UNL     1      -2.499  -3.646  -0.081  0.00  0.00    +0.011 C 
ATOM      3  N   UNL     1      -3.825  -3.962  -0.001  0.00  0.00    -0.257 N 
ATOM      4  C   UNL     1      -4.806  -3.051   0.015  0.00  0.00    +0.307 C 
ATOM      5  O   UNL     1      -5.959  -3.429   0.089  0.00  0.00    -0.252 OA
ATOM      6  N   UNL     1      -4.557  -1.728  -0.048  0.00  0.00    -0.288 N 
ATOM      7  C   UNL     1      -3.156  -1.282  -0.131  0.00  0.00    +0.143 C 
ATOM      8  H   UNL     1      -5.283  -1.084  -0.036  0.00  0.00    +0.151 HD
ENDROOT
BRANCH   7   9
ATOM      9  C   UNL     1      -2.880  -0.379   1.044  0.00  0.00    -0.021 A 
ATOM     10  C   UNL     1      -3.261  -0.764   2.316  0.00  0.00    +0.007 A 
ATOM     11  C   UNL     1      -3.010   0.063   3.394  0.00  0.00    +0.022 A 
ATOM     12  C   UNL     1      -2.376   1.277   3.201  0.00  0.00    +0.059 A 
ATOM     13  C   UNL     1      -1.993   1.663   1.928  0.00  0.00    +0.060 A 
ATOM     14  C   UNL     1      -2.241   0.831   0.850  0.00  0.00    +0.027 A 
ATOM     15 CL   UNL     1      -1.198   3.186   1.684  0.00  0.00    -0.082 Cl
ATOM     16 CL   UNL     1      -2.060   2.317   4.555  0.00  0.00    -0.082 Cl
ENDBRANCH   7   9
BRANCH   1  17
ATOM     17  C   UNL     1      -0.718  -2.032  -0.234  0.00  0.00    +0.339 C 
ATOM     18  O   UNL     1       0.123  -2.907  -0.152  0.00  0.00    -0.245 OA
BRANCH  17  19
ATOM     19  O   UNL     1      -0.341  -0.748  -0.403  0.00  0.00    -0.462 OA
BRANCH  19  21
ATOM     20  C   UNL     1       1.294   1.012  -0.670  0.00  0.00    +0.048 C 
ATOM     21  C   UNL     1       1.062  -0.488  -0.479  0.00  0.00    +0.229 C 
ENDBRANCH  19  21
ENDBRANCH  17  19
ENDBRANCH   1  17
BRANCH   3  22
ATOM     22  C   UNL     1      -4.196  -5.378   0.072  0.00  0.00    +0.141 C 
BRANCH  22  23
ATOM     23  C   UNL     1      -4.325  -5.789   1.516  0.00  0.00    -0.015 C 
ATOM     24  C   UNL     1      -5.435  -6.338   1.944  0.00  0.00    +0.005 C 
ENDBRANCH  22  23
ENDBRANCH   3  22
BRANCH   2  25
ATOM     25  C   UNL     1      -1.474  -4.750  -0.092  0.00  0.00    -0.026 C 
BRANCH  25  26
ATOM     26  N   UNL     1      -1.036  -4.998  -1.473  0.00  0.00    +0.383 N 
ATOM     27  C   UNL     1      -2.166  -5.510  -2.258  0.00  0.00    -0.078 C 
ATOM     28  C   UNL     1      -1.737  -5.693  -3.715  0.00  0.00    -0.019 C 
ATOM     29  C   UNL     1      -0.576  -6.690  -3.779  0.00  0.00    -0.004 C 
ATOM     30  C   UNL     1       0.568  -6.182  -2.897  0.00  0.00    -0.019 C 
ATOM     31  C   UNL     1       0.054  -5.981  -1.470  0.00  0.00    -0.078 C 
ATOM     32  H   UNL     1      -0.709  -4.135  -1.881  0.00  0.00    -0.081 HD
ENDBRANCH  25  26
ENDBRANCH   2  25
TORSDOF 8
