REMARK  Name = ZINC24916068
REMARK  5 active torsions:
REMARK  status: ('A' for Active; 'I' for Inactive)
REMARK    1  A    between atoms: C_1  and  S_2
REMARK    2  A    between atoms: S_2  and  C_5
REMARK    3  A    between atoms: C_10  and  C_11
REMARK    4  A    between atoms: C_11  and  N_12
REMARK    5  A    between atoms: C_15  and  N_18
REMARK                            x       y       z     vdW  Elec       q    Type
REMARK                         _______ _______ _______ _____ _____    ______ ____
ROOT
ATOM      1  N   UNL     1       5.013   4.686   2.660  0.00  0.00    +0.382 N 
ATOM      2  C   UNL     1       3.864   4.656   3.574  0.00  0.00    -0.077 C 
ATOM      3  C   UNL     1       2.854   3.612   3.092  0.00  0.00    +0.000 C 
ATOM      4  C   UNL     1       2.395   3.969   1.676  0.00  0.00    +0.053 C 
ATOM      5  C   UNL     1       3.615   4.042   0.753  0.00  0.00    +0.000 C 
ATOM      6  C   UNL     1       4.603   5.072   1.304  0.00  0.00    -0.077 C 
ATOM      7  H   UNL     1       5.426   3.667   2.608  0.00  0.00    -0.081 HD
ENDROOT
BRANCH   4   8
ATOM      8  N   UNL     1       1.470   2.939   1.185  0.00  0.00    -0.298 NA
ATOM      9  C   UNL     1       2.077   1.631   1.237  0.00  0.00    +0.086 C 
ATOM     10  C   UNL     1       1.675   0.850  -0.031  0.00  0.00    +0.034 C 
ATOM     11  C   UNL     1       0.320   0.312   0.067  0.00  0.00    +0.108 C 
ATOM     12  N   UNL     1      -0.695   1.378   0.232  0.00  0.00    -0.312 N 
ATOM     13  C   UNL     1      -0.739   1.808   1.608  0.00  0.00    +0.122 C 
ATOM     14  C   UNL     1       0.160   3.030   1.874  0.00  0.00    +0.103 C 
ATOM     15  C   UNL     1      -1.939   0.948  -0.193  0.00  0.00    +0.150 A 
ATOM     16  C   UNL     1      -2.125   0.462  -1.499  0.00  0.00    +0.125 A 
ATOM     17  C   UNL     1      -3.413   0.045  -1.874  0.00  0.00    +0.183 A 
ATOM     18  N   UNL     1      -3.310  -0.375  -3.176  0.00  0.00    -0.216 NA
ATOM     19  H   UNL     1      -0.251   0.541  -2.508  0.00  0.00    +0.167 HD
ATOM     20  C   UNL     1      -2.011  -0.212  -3.557  0.00  0.00    +0.199 A 
ATOM     21  N   UNL     1      -1.318   0.279  -2.571  0.00  0.00    -0.340 N 
ATOM     22  N   UNL     1      -4.401   0.123  -0.989  0.00  0.00    -0.214 NA
ATOM     23  C   UNL     1      -4.179   0.581   0.225  0.00  0.00    +0.225 A 
ATOM     24  N   UNL     1      -2.987   0.984   0.624  0.00  0.00    -0.219 NA
ENDBRANCH   4   8
BRANCH   1  25
ATOM     25  C   UNL     1       6.065   5.577   3.166  0.00  0.00    -0.041 C 
BRANCH  25  31
ATOM     26  C   UNL     1       8.118   4.637   2.085  0.00  0.00    +0.089 A 
ATOM     27  C   UNL     1       9.145   4.707   1.162  0.00  0.00    +0.027 A 
ATOM     28  C   UNL     1       9.239   5.795   0.315  0.00  0.00    +0.002 A 
ATOM     29  C   UNL     1       8.306   6.813   0.391  0.00  0.00    +0.000 A 
ATOM     30  C   UNL     1       7.276   6.740   1.310  0.00  0.00    +0.003 A 
ATOM     31  C   UNL     1       7.185   5.654   2.161  0.00  0.00    -0.039 A 
BRANCH  26  33
ATOM     32  C   UNL     1       8.384   3.905   4.811  0.00  0.00    +0.200 C 
ATOM     33  S   UNL     1       7.997   3.249   3.165  0.00  0.00    -0.006 S 
ATOM     34  O   UNL     1       6.633   2.858   3.102  0.00  0.00    -0.170 OA
ATOM     35  O   UNL     1       9.024   2.366   2.736  0.00  0.00    -0.170 OA
ENDBRANCH  26  33
ENDBRANCH  25  31
ENDBRANCH   1  25
TORSDOF 4
