REMARK  Name = ZINC37146321
REMARK  4 active torsions:
REMARK  status: ('A' for Active; 'I' for Inactive)
REMARK    1  A    between atoms: C_1  and  C_2
REMARK    2  A    between atoms: C_2  and  C_3
REMARK    3  A    between atoms: C_7  and  C_18
REMARK    4  A    between atoms: C_9  and  N_12
REMARK                            x       y       z     vdW  Elec       q    Type
REMARK                         _______ _______ _______ _____ _____    ______ ____
ROOT
ATOM      1  C   UNL     1       0.757  -0.512   1.232  0.00  0.00    -0.013 C 
ATOM      2  C   UNL     1       2.226  -0.086   1.177  0.00  0.00    +0.004 C 
ATOM      3  C   UNL     1       2.951  -0.592   2.426  0.00  0.00    +0.017 C 
ATOM      4  C   UNL     1       2.864  -2.119   2.483  0.00  0.00    +0.078 C 
ATOM      5  C   UNL     1       1.395  -2.544   2.538  0.00  0.00    -0.051 C 
ATOM      6  C   UNL     1       0.670  -2.039   1.289  0.00  0.00    -0.011 C 
ENDROOT
BRANCH   5   7
ATOM      7  N   UNL     1       1.312  -4.010   2.593  0.00  0.00    +0.382 N 
ATOM      8  C   UNL     1       1.827  -4.575   1.340  0.00  0.00    -0.078 C 
ATOM      9  C   UNL     1       1.818  -6.103   1.423  0.00  0.00    -0.019 C 
ATOM     10  C   UNL     1       0.384  -6.588   1.652  0.00  0.00    -0.004 C 
ATOM     11  C   UNL     1      -0.169  -5.934   2.922  0.00  0.00    -0.019 C 
ATOM     12  C   UNL     1      -0.086  -4.412   2.783  0.00  0.00    -0.078 C 
ATOM     13  H   UNL     1       1.867  -4.348   3.365  0.00  0.00    -0.081 HD
ENDBRANCH   5   7
BRANCH   1  15
ATOM     14  C   UNL     1       0.011   1.523  -0.010  0.00  0.00    +0.004 C 
ATOM     15  C   UNL     1       0.032  -0.006  -0.017  0.00  0.00    -0.000 C 
ENDBRANCH   1  15
BRANCH   4  16
ATOM     16  C   UNL     1       3.561  -2.605   3.684  0.00  0.00    +0.064 C 
ATOM     17  N   UNL     1       4.099  -2.980   4.612  0.00  0.00    -0.196 NA
ENDBRANCH   4  16
TORSDOF 3
