REMARK  Name = ZINC09418201
REMARK  8 active torsions:
REMARK  status: ('A' for Active; 'I' for Inactive)
REMARK    1  A    between atoms: C_1  and  C_2
REMARK    2  A    between atoms: C_3  and  C_15
REMARK    3  A    between atoms: C_4  and  C_14
REMARK    4  A    between atoms: N_5  and  C_7
REMARK    5  A    between atoms: C_16  and  C_17
REMARK    6  A    between atoms: C_17  and  O_19
REMARK    7  A    between atoms: O_19  and  C_20
REMARK    8  A    between atoms: C_20  and  N_21
REMARK                            x       y       z     vdW  Elec       q    Type
REMARK                         _______ _______ _______ _____ _____    ______ ____
ROOT
ATOM      1  C   UNL     1      -1.174  -3.326   0.856  0.00  0.00    +0.018 C 
ATOM      2  C   UNL     1      -1.498  -4.311  -0.011  0.00  0.00    +0.092 C 
ENDROOT
BRANCH   1   5
ATOM      3  C   UNL     1       1.407  -3.246  -0.988  0.00  0.00    +0.068 C 
ATOM      4  C   UNL     1       0.648  -2.060  -0.451  0.00  0.00    +0.068 A 
ATOM      5  C   UNL     1      -0.502  -2.112   0.371  0.00  0.00    +0.019 A 
ATOM      6  C   UNL     1      -0.876  -0.806   0.633  0.00  0.00    +0.049 A 
ATOM      7  N   UNL     1       0.002  -0.004   0.002  0.00  0.00    -0.236 N 
ATOM      8  N   UNL     1       0.933  -0.805  -0.667  0.00  0.00    -0.171 NA
ATOM      9  C   UNL     1      -2.049  -0.363   1.469  0.00  0.00    +0.066 C 
BRANCH   7  10
ATOM     10  C   UNL     1      -0.017   1.398   0.010  0.00  0.00    +0.066 A 
ATOM     11  C   UNL     1      -1.228   2.076   0.019  0.00  0.00    +0.030 A 
ATOM     12  C   UNL     1      -1.245   3.457   0.033  0.00  0.00    +0.040 A 
ATOM     13  C   UNL     1      -0.054   4.165   0.025  0.00  0.00    +0.124 A 
ATOM     14  C   UNL     1       1.155   3.490   0.010  0.00  0.00    +0.040 A 
ATOM     15  C   UNL     1       1.175   2.109   0.002  0.00  0.00    +0.030 A 
ATOM     16  F   UNL     1      -0.073   5.516   0.032  0.00  0.00    -0.205 F 
ENDBRANCH   7  10
ENDBRANCH   1   5
BRANCH   2  17
ATOM     17  C   UNL     1      -2.145  -5.480   0.456  0.00  0.00    +0.334 C 
ATOM     18  O   UNL     1      -2.410  -5.598   1.637  0.00  0.00    -0.246 OA
BRANCH  17  19
ATOM     19  O   UNL     1      -2.468  -6.464  -0.410  0.00  0.00    -0.438 OA
BRANCH  19  20
ATOM     20  C   UNL     1      -3.119  -7.615   0.130  0.00  0.00    +0.383 C 
BRANCH  20  21
ATOM     21  N   UNL     1      -4.543  -7.327   0.321  0.00  0.00    -0.174 N 
ATOM     22  C   UNL     1      -4.978  -6.815   1.496  0.00  0.00    +0.281 A 
ATOM     23  O   UNL     1      -4.207  -6.586   2.411  0.00  0.00    -0.265 OA
ATOM     24  C   UNL     1      -6.418  -6.543   1.624  0.00  0.00    +0.068 A 
ATOM     25  C   UNL     1      -6.962  -6.013   2.793  0.00  0.00    +0.015 A 
ATOM     26  C   UNL     1      -8.317  -5.780   2.867  0.00  0.00    +0.001 A 
ATOM     27  C   UNL     1      -9.143  -6.069   1.788  0.00  0.00    +0.002 A 
ATOM     28  C   UNL     1      -8.626  -6.593   0.625  0.00  0.00    +0.030 A 
ATOM     29  C   UNL     1      -7.254  -6.838   0.525  0.00  0.00    +0.100 A 
ATOM     30  N   UNL     1      -6.710  -7.354  -0.605  0.00  0.00    -0.131 NA
ATOM     31  N   UNL     1      -5.451  -7.585  -0.710  0.00  0.00    -0.059 NA
ENDBRANCH  20  21
ENDBRANCH  19  20
ENDBRANCH  17  19
ENDBRANCH   2  17
TORSDOF 6
