REMARK  Name = ZINC00804109
REMARK  9 active torsions:
REMARK  status: ('A' for Active; 'I' for Inactive)
REMARK    1  A    between atoms: C_1  and  C_2
REMARK    2  A    between atoms: C_2  and  C_3
REMARK    3  A    between atoms: C_12  and  C_20
REMARK    4  A    between atoms: C_13  and  N_19
REMARK    5  A    between atoms: C_14  and  C_15
REMARK    6  A    between atoms: C_14  and  C_17
REMARK    7  A    between atoms: C_22  and  O_24
REMARK    8  A    between atoms: O_24  and  C_25
REMARK    9  A    between atoms: C_25  and  C_26
REMARK                            x       y       z     vdW  Elec       q    Type
REMARK                         _______ _______ _______ _____ _____    ______ ____
ROOT
ATOM      1  C   UNL     1       1.841  -1.090   0.715  0.00  0.00    +0.038 C 
ATOM      2  C   UNL     1       3.097  -0.533   0.043  0.00  0.00    +0.043 C 
ATOM      3  C   UNL     1       4.342  -0.822   0.851  0.00  0.00    +0.120 C 
ATOM      4  N   UNL     1       4.809   0.378   1.554  0.00  0.00    -0.263 N 
ATOM      5  C   UNL     1       5.020   1.593   0.745  0.00  0.00    +0.138 C 
ATOM      6  C   UNL     1       3.724   1.882   0.032  0.00  0.00    -0.003 C 
ATOM      7  C   UNL     1       2.869   0.919  -0.254  0.00  0.00    -0.026 C 
ATOM      8  C   UNL     1       1.562   1.279  -0.868  0.00  0.00    +0.074 C 
ATOM      9  C   UNL     1       0.550   0.376  -0.854  0.00  0.00    +0.054 C 
ATOM     10  C   UNL     1       0.672  -0.998  -0.268  0.00  0.00    +0.184 C 
ATOM     11  C   UNL     1       5.037   0.370   2.882  0.00  0.00    +0.403 C 
ATOM     12  O   UNL     1       4.855  -0.646   3.524  0.00  0.00    -0.226 OA
ENDROOT
BRANCH   9  13
ATOM     13  N   UNL     1      -0.645   0.737  -1.409  0.00  0.00    -0.358 N 
ATOM     14  H   UNL     1      -1.486   0.028  -1.414  0.00  0.00    +0.142 HD
ATOM     15  H   UNL     1      -0.766   1.737  -1.851  0.00  0.00    +0.142 HD
ENDBRANCH   9  13
BRANCH   1  17
ATOM     16  C   UNL     1       0.396  -0.950   2.748  0.00  0.00    +0.004 C 
ATOM     17  C   UNL     1       1.523  -0.271   1.967  0.00  0.00    +0.004 C 
ENDBRANCH   1  17
BRANCH  10  18
ATOM     18  C   UNL     1      -0.576  -1.332   0.438  0.00  0.00    +0.091 C 
ATOM     19  N   UNL     1      -1.539  -1.591   0.982  0.00  0.00    -0.195 NA
ENDBRANCH  10  18
BRANCH  10  20
ATOM     20  C   UNL     1       0.882  -1.967  -1.355  0.00  0.00    +0.091 C 
ATOM     21  N   UNL     1       1.044  -2.715  -2.195  0.00  0.00    -0.195 NA
ENDBRANCH  10  20
BRANCH   8  22
ATOM     22  C   UNL     1       1.375   2.565  -1.468  0.00  0.00    +0.101 C 
ATOM     23  N   UNL     1       1.227   3.586  -1.945  0.00  0.00    -0.191 NA
ENDBRANCH   8  22
BRANCH  11  24
ATOM     24  O   UNL     1       5.465   1.488   3.498  0.00  0.00    -0.451 OA
BRANCH  24  25
ATOM     25  C   UNL     1       5.689   1.406   4.931  0.00  0.00    +0.230 C 
ATOM     26  C   UNL     1       6.170   2.763   5.450  0.00  0.00    +0.048 C 
ENDBRANCH  24  25
ENDBRANCH  11  24
TORSDOF 7
