REMARK  Name = ZINC12864345
REMARK  7 active torsions:
REMARK  status: ('A' for Active; 'I' for Inactive)
REMARK    1  A    between atoms: C_1  and  C_2
REMARK    2  A    between atoms: N_5  and  C_8
REMARK    3  A    between atoms: C_8  and  C_9
REMARK    4  A    between atoms: N_21  and  C_22
REMARK    5  A    between atoms: C_22  and  C_23
REMARK    6  A    between atoms: C_23  and  C_25
REMARK    7  A    between atoms: C_23  and  N_31
REMARK                            x       y       z     vdW  Elec       q    Type
REMARK                         _______ _______ _______ _____ _____    ______ ____
ROOT
ATOM      1  C   UNL     1      -2.682  -3.249   0.763  0.00  0.00    +0.116 A 
ATOM      2  N   UNL     1      -3.142  -2.024   0.944  0.00  0.00    -0.219 NA
ATOM      3  C   UNL     1      -2.434  -0.952   0.626  0.00  0.00    +0.131 A 
ATOM      4  C   UNL     1      -1.135  -1.122   0.073  0.00  0.00    +0.051 A 
ATOM      5  C   UNL     1      -0.177  -0.087  -0.349  0.00  0.00    -0.025 A 
ATOM      6  C   UNL     1       0.997  -0.512  -0.843  0.00  0.00    -0.004 A 
ATOM      7  S   UNL     1       0.909  -2.288  -0.783  0.00  0.00    -0.073 S 
ATOM      8  C   UNL     1      -0.713  -2.454  -0.089  0.00  0.00    +0.114 A 
ATOM      9  N   UNL     1      -1.485  -3.468   0.254  0.00  0.00    -0.227 NA
ATOM     10  C   UNL     1       1.895   0.630  -1.236  0.00  0.00    +0.043 C 
ATOM     11  C   UNL     1       1.294   1.859  -0.519  0.00  0.00    +0.010 C 
ATOM     12  C   UNL     1      -0.182   1.444  -0.370  0.00  0.00    +0.037 C 
ATOM     13  N   UNL     1      -2.949   0.316   0.830  0.00  0.00    -0.327 N 
ATOM     14  H   UNL     1      -2.353   1.201   0.564  0.00  0.00    +0.148 HD
ENDROOT
BRANCH   1  15
ATOM     15  C   UNL     1      -3.544  -4.423   1.147  0.00  0.00    -0.001 C 
BRANCH  15  20
ATOM     16  C   UNL     1      -3.378  -5.473   6.763  0.00  0.00    +0.007 C 
ATOM     17  C   UNL     1      -3.826  -5.023   5.371  0.00  0.00    -0.018 C 
ATOM     18  C   UNL     1      -3.873  -6.232   4.433  0.00  0.00    -0.016 C 
ATOM     19  C   UNL     1      -4.262  -5.767   3.028  0.00  0.00    -0.078 C 
ATOM     20  N   UNL     1      -3.280  -4.788   2.545  0.00  0.00    +0.384 N 
ATOM     21  C   UNL     1      -3.251  -3.597   3.403  0.00  0.00    -0.078 C 
ATOM     22  C   UNL     1      -2.832  -3.998   4.820  0.00  0.00    -0.016 C 
ATOM     23  H   UNL     1      -2.287  -5.259   2.591  0.00  0.00    -0.081 HD
ENDBRANCH  15  20
ENDBRANCH   1  15
BRANCH  13  24
ATOM     24  C   UNL     1      -4.289   0.479   1.400  0.00  0.00    +0.122 C 
BRANCH  24  25
ATOM     25  C   UNL     1      -4.566   1.965   1.635  0.00  0.00    +0.079 C 
BRANCH  25  26
ATOM     26  N   UNL     1      -4.400   2.699   0.373  0.00  0.00    -0.293 NA
ATOM     27  C   UNL     1      -4.267   4.143   0.617  0.00  0.00    +0.113 C 
ATOM     28  C   UNL     1      -4.037   4.861  -0.715  0.00  0.00    +0.175 C 
ATOM     29  O   UNL     1      -5.115   4.559  -1.606  0.00  0.00    -0.377 OA
ATOM     30  C   UNL     1      -5.273   3.162  -1.866  0.00  0.00    +0.175 C 
ATOM     31  C   UNL     1      -5.515   2.427  -0.545  0.00  0.00    +0.113 C 
ENDBRANCH  25  26
BRANCH  25  32
ATOM     32  C   UNL     1      -5.997   2.143   2.144  0.00  0.00    +0.035 C 
ATOM     33  C   UNL     1      -6.240   1.266   3.393  0.00  0.00    +0.035 C 
ATOM     34  C   UNL     1      -6.578   2.283   4.506  0.00  0.00    +0.160 C 
ATOM     35  O   UNL     1      -7.071   3.446   3.806  0.00  0.00    -0.379 OA
ATOM     36  C   UNL     1      -6.216   3.586   2.651  0.00  0.00    +0.165 C 
ENDBRANCH  25  32
ENDBRANCH  24  25
ENDBRANCH  13  24
TORSDOF 6
