REMARK  Name = ZINC12487381
REMARK  13 active torsions:
REMARK  status: ('A' for Active; 'I' for Inactive)
REMARK    1  A    between atoms: C_1  and  C_2
REMARK    2  A    between atoms: C_2  and  C_3
REMARK    3  A    between atoms: C_3  and  C_5
REMARK    4  A    between atoms: C_3  and  C_6
REMARK    5  A    between atoms: C_9  and  N_12
REMARK    6  A    between atoms: N_12  and  C_13
REMARK    7  A    between atoms: C_13  and  C_15
REMARK    8  A    between atoms: C_13  and  C_21
REMARK    9  A    between atoms: N_23  and  C_24
REMARK   10  A    between atoms: C_24  and  C_25
REMARK   11  A    between atoms: C_30  and  C_32
REMARK   12  A    between atoms: C_32  and  N_33
REMARK   13  A    between atoms: C_34  and  C_36
REMARK                            x       y       z     vdW  Elec       q    Type
REMARK                         _______ _______ _______ _____ _____    ______ ____
ROOT
ATOM      1  N   UNL     1      -3.389   3.427   6.096  0.00  0.00    -0.254 N 
ATOM      2  C   UNL     1      -3.760   4.720   6.180  0.00  0.00    +0.238 C 
ATOM      3  O   UNL     1      -4.933   5.009   6.289  0.00  0.00    -0.274 OA
ENDROOT
BRANCH   1   7
ATOM      4  C   UNL     1       0.502   2.307   7.076  0.00  0.00    -0.044 A 
ATOM      5  C   UNL     1      -0.563   1.516   7.466  0.00  0.00    +0.006 A 
ATOM      6  C   UNL     1      -1.855   1.887   7.147  0.00  0.00    +0.024 A 
ATOM      7  C   UNL     1      -2.083   3.051   6.425  0.00  0.00    +0.037 A 
ATOM      8  C   UNL     1      -1.011   3.841   6.030  0.00  0.00    +0.024 A 
ATOM      9  C   UNL     1       0.278   3.467   6.357  0.00  0.00    +0.006 A 
BRANCH   4  10
ATOM     10  C   UNL     1       1.909   1.902   7.430  0.00  0.00    +0.016 C 
ATOM     11  C   UNL     1       2.215   0.533   6.819  0.00  0.00    +0.012 C 
BRANCH  10  13
ATOM     12  C   UNL     1       3.508   1.534   9.315  0.00  0.00    +0.004 C 
ATOM     13  C   UNL     1       2.050   1.824   8.952  0.00  0.00    +0.004 C 
ENDBRANCH  10  13
ENDBRANCH   4  10
ENDBRANCH   1   7
BRANCH   1  14
ATOM     14  C   UNL     1      -4.355   2.416   5.659  0.00  0.00    +0.197 C 
BRANCH  14  15
ATOM     15  C   UNL     1      -4.893   2.788   4.301  0.00  0.00    -0.018 A 
ATOM     16  C   UNL     1      -4.540   3.994   3.725  0.00  0.00    +0.006 A 
ATOM     17  C   UNL     1      -5.030   4.333   2.477  0.00  0.00    +0.000 A 
ATOM     18  C   UNL     1      -5.880   3.471   1.811  0.00  0.00    +0.000 A 
ATOM     19  C   UNL     1      -6.236   2.267   2.389  0.00  0.00    +0.000 A 
ATOM     20  C   UNL     1      -5.743   1.925   3.635  0.00  0.00    +0.006 A 
ENDBRANCH  14  15
BRANCH  14  21
ATOM     21  C   UNL     1      -5.490   2.345   6.647  0.00  0.00    +0.239 C 
ATOM     22  O   UNL     1      -5.370   2.845   7.746  0.00  0.00    -0.273 OA
ATOM     23  N   UNL     1      -6.640   1.728   6.310  0.00  0.00    -0.306 N 
ATOM     24  H   UNL     1      -6.736   1.329   5.431  0.00  0.00    +0.149 HD
BRANCH  23  25
ATOM     25  C   UNL     1      -7.744   1.659   7.270  0.00  0.00    +0.178 C 
BRANCH  25  26
ATOM     26  C   UNL     1      -8.904   0.923   6.651  0.00  0.00    +0.122 A 
ATOM     27  C   UNL     1      -9.116  -0.404   6.713  0.00  0.00    +0.046 A 
ATOM     28  C   UNL     1     -10.310  -0.662   6.002  0.00  0.00    +0.041 A 
ATOM     29  C   UNL     1     -10.757   0.523   5.548  0.00  0.00    +0.195 A 
ATOM     30  O   UNL     1      -9.904   1.480   5.949  0.00  0.00    -0.466 OA
ENDBRANCH  25  26
ENDBRANCH  23  25
ENDBRANCH  14  21
ENDBRANCH   1  14
BRANCH   2  31
ATOM     31  C   UNL     1      -2.717   5.807   6.140  0.00  0.00    +0.201 C 
BRANCH  31  32
ATOM     32  N   UNL     1      -3.338   7.093   6.467  0.00  0.00    -0.300 N 
ATOM     33  C   UNL     1      -2.592   8.215   6.492  0.00  0.00    +0.280 C 
ATOM     34  O   UNL     1      -1.403   8.160   6.244  0.00  0.00    -0.267 OA
ATOM     35  H   UNL     1      -4.287   7.136   6.665  0.00  0.00    +0.150 HD
BRANCH  33  36
ATOM     36  C   UNL     1      -3.215   9.502   6.819  0.00  0.00    +0.189 A 
ATOM     37  C   UNL     1      -2.579  10.709   6.880  0.00  0.00    +0.054 A 
ATOM     38  C   UNL     1      -3.551  11.661   7.225  0.00  0.00    +0.042 A 
ATOM     39  C   UNL     1      -4.723  11.002   7.358  0.00  0.00    +0.196 A 
ATOM     40  O   UNL     1      -4.518   9.702   7.107  0.00  0.00    -0.458 OA
ENDBRANCH  33  36
ENDBRANCH  31  32
ENDBRANCH   2  31
TORSDOF 11
