REMARK  Name = ZINC27100563
REMARK  8 active torsions:
REMARK  status: ('A' for Active; 'I' for Inactive)
REMARK    1  A    between atoms: C_1  and  C_2
REMARK    2  A    between atoms: C_2  and  C_4
REMARK    3  A    between atoms: C_2  and  N_16
REMARK    4  A    between atoms: C_7  and  C_10
REMARK    5  A    between atoms: N_19  and  C_22
REMARK    6  A    between atoms: C_22  and  C_23
REMARK    7  A    between atoms: C_24  and  O_40
REMARK    8  A    between atoms: C_31  and  C_34
REMARK                            x       y       z     vdW  Elec       q    Type
REMARK                         _______ _______ _______ _____ _____    ______ ____
ROOT
ATOM      1  N   UNL     1       1.365   1.594  -0.002  0.00  0.00    -0.299 NA
ATOM      2  C   UNL     1       2.057   1.215  -1.242  0.00  0.00    +0.066 C 
ATOM      3  C   UNL     1       3.459   1.829  -1.249  0.00  0.00    -0.063 C 
ATOM      4  N   UNL     1       4.202   1.361  -0.071  0.00  0.00    +0.384 N 
ATOM      5  C   UNL     1       3.510   1.741   1.169  0.00  0.00    -0.063 C 
ATOM      6  C   UNL     1       2.108   1.127   1.176  0.00  0.00    +0.066 C 
ATOM      7  H   UNL     1       4.248   0.263  -0.112  0.00  0.00    -0.081 HD
ENDROOT
BRANCH   1   9
ATOM      8  C   UNL     1      -0.729   1.579   1.267  0.00  0.00    +0.029 C 
ATOM      9  C   UNL     1      -0.013   1.086   0.008  0.00  0.00    +0.084 C 
BRANCH   9  10
ATOM     10  C   UNL     1      -0.742   1.585  -1.213  0.00  0.00    -0.031 A 
ATOM     11  C   UNL     1      -0.551   2.883  -1.649  0.00  0.00    +0.005 A 
ATOM     12  C   UNL     1      -1.217   3.340  -2.771  0.00  0.00    +0.004 A 
ATOM     13  C   UNL     1      -2.079   2.501  -3.452  0.00  0.00    -0.044 A 
ATOM     14  C   UNL     1      -2.273   1.205  -3.014  0.00  0.00    +0.004 A 
ATOM     15  C   UNL     1      -1.605   0.747  -1.893  0.00  0.00    +0.005 A 
BRANCH  13  16
ATOM     16  C   UNL     1      -2.808   3.000  -4.673  0.00  0.00    +0.019 C 
ATOM     17  C   UNL     1      -1.792   3.427  -5.735  0.00  0.00    +0.008 C 
ATOM     18  C   UNL     1      -2.532   3.934  -6.974  0.00  0.00    +0.001 C 
ATOM     19  C   UNL     1      -3.405   5.131  -6.593  0.00  0.00    +0.000 C 
ATOM     20  C   UNL     1      -4.421   4.705  -5.532  0.00  0.00    +0.001 C 
ATOM     21  C   UNL     1      -3.681   4.198  -4.292  0.00  0.00    +0.008 C 
ENDBRANCH  13  16
ENDBRANCH   9  10
ENDBRANCH   1   9
BRANCH   4  22
ATOM     22  C   UNL     1       5.580   1.870  -0.081  0.00  0.00    -0.035 C 
BRANCH  22  23
ATOM     23  C   UNL     1       6.176   1.679  -1.452  0.00  0.00    +0.020 A 
ATOM     24  C   UNL     1       6.856   0.512  -1.757  0.00  0.00    +0.122 A 
ATOM     25  C   UNL     1       7.405   0.322  -3.023  0.00  0.00    +0.046 A 
ATOM     26  C   UNL     1       7.289   1.292  -3.978  0.00  0.00    +0.019 A 
ATOM     27  C   UNL     1       6.612   2.476  -3.684  0.00  0.00    +0.065 A 
ATOM     28  C   UNL     1       6.048   2.675  -2.411  0.00  0.00    +0.143 A 
ATOM     29  O   UNL     1       5.393   3.819  -2.129  0.00  0.00    -0.462 OA
ATOM     30  C   UNL     1       5.237   4.811  -3.009  0.00  0.00    +0.208 A 
ATOM     31  C   UNL     1       5.731   4.750  -4.273  0.00  0.00    +0.064 A 
ATOM     32  C   UNL     1       6.465   3.544  -4.689  0.00  0.00    +0.200 A 
ATOM     33  O   UNL     1       6.930   3.433  -5.811  0.00  0.00    -0.286 OA
BRANCH  31  34
ATOM     34  C   UNL     1       5.533   5.878  -5.216  0.00  0.00    -0.011 A 
ATOM     35  C   UNL     1       6.619   6.405  -5.913  0.00  0.00    +0.009 A 
ATOM     36  C   UNL     1       6.428   7.451  -6.793  0.00  0.00    +0.001 A 
ATOM     37  C   UNL     1       5.165   7.984  -6.976  0.00  0.00    +0.000 A 
ATOM     38  C   UNL     1       4.085   7.468  -6.283  0.00  0.00    +0.001 A 
ATOM     39  C   UNL     1       4.262   6.418  -5.404  0.00  0.00    +0.009 A 
ENDBRANCH  31  34
BRANCH  24  40
ATOM     40  O   UNL     1       6.984  -0.457  -0.816  0.00  0.00    -0.506 OA
ATOM     41  H   UNL     1       7.524  -1.386  -1.053  0.00  0.00    +0.292 HD
ENDBRANCH  24  40
ENDBRANCH  22  23
ENDBRANCH   4  22
TORSDOF 7
