REMARK  Name = ZINC13085788
REMARK  9 active torsions:
REMARK  status: ('A' for Active; 'I' for Inactive)
REMARK    1  A    between atoms: C_1  and  C_2
REMARK    2  A    between atoms: C_7  and  C_36
REMARK    3  A    between atoms: C_10  and  C_12
REMARK    4  A    between atoms: C_12  and  N_13
REMARK    5  A    between atoms: C_24  and  S_25
REMARK    6  A    between atoms: S_25  and  C_26
REMARK    7  A    between atoms: C_26  and  C_27
REMARK    8  A    between atoms: N_29  and  C_30
REMARK    9  A    between atoms: C_30  and  C_31
REMARK                            x       y       z     vdW  Elec       q    Type
REMARK                         _______ _______ _______ _____ _____    ______ ____
ROOT
ATOM      1  N   UNL     1       3.322  -0.060   3.246  0.00  0.00    -0.299 N 
ATOM      2  C   UNL     1       3.748  -1.314   2.820  0.00  0.00    +0.069 A 
ATOM      3  C   UNL     1       3.076  -2.506   2.582  0.00  0.00    +0.028 A 
ATOM      4  C   UNL     1       3.774  -3.614   2.145  0.00  0.00    +0.002 A 
ATOM      5  C   UNL     1       5.141  -3.540   1.937  0.00  0.00    +0.002 A 
ATOM      6  C   UNL     1       5.816  -2.357   2.165  0.00  0.00    +0.028 A 
ATOM      7  C   UNL     1       5.124  -1.238   2.604  0.00  0.00    +0.075 A 
ATOM      8  N   UNL     1       5.527   0.064   2.911  0.00  0.00    -0.254 N 
ATOM      9  C   UNL     1       4.427   0.773   3.300  0.00  0.00    +0.238 A 
ATOM     10  N   UNL     1       4.813   1.995   3.587  0.00  0.00    -0.109 NA
ATOM     11  N   UNL     1       6.196   2.073   3.377  0.00  0.00    -0.120 NA
ATOM     12  C   UNL     1       6.611   0.898   2.969  0.00  0.00    +0.198 A 
ENDROOT
BRANCH   1  13
ATOM     13  C   UNL     1       1.946   0.313   3.585  0.00  0.00    +0.221 C 
BRANCH  13  21
ATOM     14  C   UNL     1       0.106   1.010  -0.073  0.00  0.00    +0.028 C 
ATOM     15  C   UNL     1      -0.852   1.068   1.118  0.00  0.00    +0.073 C 
ATOM     16  C   UNL     1      -1.656   2.371   1.068  0.00  0.00    +0.022 C 
ATOM     17  C   UNL     1      -2.509   2.489   2.333  0.00  0.00    +0.004 C 
ATOM     18  C   UNL     1      -1.599   2.529   3.563  0.00  0.00    +0.022 C 
ATOM     19  C   UNL     1      -0.796   1.227   3.641  0.00  0.00    +0.073 C 
ATOM     20  N   UNL     1      -0.084   1.033   2.370  0.00  0.00    -0.294 N 
ATOM     21  C   UNL     1       1.248   0.828   2.353  0.00  0.00    +0.236 C 
ATOM     22  O   UNL     1       1.884   1.057   1.346  0.00  0.00    -0.274 OA
ATOM     23  C   UNL     1       0.215   1.316   4.786  0.00  0.00    +0.028 C 
ENDBRANCH  13  21
ENDBRANCH   1  13
BRANCH  12  24
ATOM     24  S   UNL     1       8.272   0.469   2.567  0.00  0.00    -0.076 S 
BRANCH  24  25
ATOM     25  C   UNL     1       9.202   2.000   2.852  0.00  0.00    +0.173 C 
BRANCH  25  26
ATOM     26  C   UNL     1      10.658   1.768   2.541  0.00  0.00    +0.224 C 
ATOM     27  O   UNL     1      11.032   0.677   2.163  0.00  0.00    -0.275 OA
ATOM     28  N   UNL     1      11.546   2.772   2.681  0.00  0.00    -0.310 N 
ATOM     29  H   UNL     1      11.247   3.644   2.983  0.00  0.00    +0.149 HD
BRANCH  28  30
ATOM     30  C   UNL     1      12.961   2.547   2.378  0.00  0.00    +0.146 C 
BRANCH  30  31
ATOM     31  C   UNL     1      13.734   3.819   2.616  0.00  0.00    +0.007 A 
ATOM     32  C   UNL     1      14.335   4.253   3.750  0.00  0.00    +0.013 A 
ATOM     33  C   UNL     1      14.999   5.466   3.735  0.00  0.00    +0.008 A 
ATOM     34  C   UNL     1      15.021   6.189   2.588  0.00  0.00    +0.045 A 
ATOM     35  S   UNL     1      14.090   5.147   1.477  0.00  0.00    -0.100 S 
ENDBRANCH  30  31
ENDBRANCH  28  30
ENDBRANCH  25  26
ENDBRANCH  24  25
ENDBRANCH  12  24
TORSDOF 7
