REMARK  Name = ZINC66864582
REMARK  3 active torsions:
REMARK  status: ('A' for Active; 'I' for Inactive)
REMARK    1  A    between atoms: C_1  and  C_2
REMARK    2  A    between atoms: N_11  and  C_12
REMARK    3  A    between atoms: C_12  and  C_13
REMARK                            x       y       z     vdW  Elec       q    Type
REMARK                         _______ _______ _______ _____ _____    ______ ____
ROOT
ATOM      1  C   UNL     1      -0.019   1.526   0.010  0.00  0.00    -0.007 C 
ATOM      2  C   UNL     1       0.002  -0.004   0.002  0.00  0.00    -0.023 C 
ATOM      3  C   UNL     1       0.721  -0.497  -1.230  0.00  0.00    +0.005 A 
ATOM      4  C   UNL     1       0.605  -0.057  -2.492  0.00  0.00    +0.021 A 
ATOM      5  C   UNL     1       1.483  -0.825  -3.286  0.00  0.00    +0.019 A 
ATOM      6  C   UNL     1       2.100  -1.708  -2.472  0.00  0.00    +0.086 A 
ATOM      7  N   UNL     1       1.637  -1.516  -1.211  0.00  0.00    -0.354 N 
ATOM      8  C   UNL     1       2.005  -2.240   0.012  0.00  0.00    +0.103 C 
ATOM      9  C   UNL     1       0.937  -1.948   1.074  0.00  0.00    -0.056 C 
ATOM     10  N   UNL     1       0.726  -0.498   1.186  0.00  0.00    +0.390 N 
ATOM     11  H   UNL     1       1.620  -0.034   1.250  0.00  0.00    -0.080 HD
ENDROOT
BRANCH  10  12
ATOM     12  C   UNL     1      -0.059  -0.209   2.393  0.00  0.00    -0.020 C 
BRANCH  12  13
ATOM     13  C   UNL     1       0.734  -0.602   3.613  0.00  0.00    +0.044 A 
ATOM     14  C   UNL     1       1.505   0.225   4.352  0.00  0.00    +0.114 A 
ATOM     15  N   UNL     1       2.046  -0.522   5.363  0.00  0.00    -0.306 N 
ATOM     16  C   UNL     1       2.888  -0.212   6.392  0.00  0.00    +0.092 A 
ATOM     17  C   UNL     1       3.276  -1.159   7.271  0.00  0.00    +0.018 A 
ATOM     18  C   UNL     1       2.818  -2.480   7.139  0.00  0.00    +0.005 A 
ATOM     19  C   UNL     1       1.978  -2.802   6.118  0.00  0.00    +0.047 A 
ATOM     20  C   UNL     1       1.581  -1.802   5.208  0.00  0.00    +0.138 A 
ATOM     21  N   UNL     1       0.787  -1.825   4.147  0.00  0.00    -0.235 NA
ENDBRANCH  12  13
ENDBRANCH  10  12
TORSDOF 2
