REMARK  Name = ZINC01210683
REMARK  6 active torsions:
REMARK  status: ('A' for Active; 'I' for Inactive)
REMARK    1  A    between atoms: N_8  and  N_9
REMARK    2  A    between atoms: C_10  and  C_12
REMARK    3  A    between atoms: C_12  and  S_13
REMARK    4  A    between atoms: S_13  and  C_14
REMARK    5  A    between atoms: N_25  and  C_26
REMARK    6  A    between atoms: C_26  and  N_52
REMARK                            x       y       z     vdW  Elec       q    Type
REMARK                         _______ _______ _______ _____ _____    ______ ____
ROOT
ATOM      1  C   UNL     1      -3.815  -0.066  -3.420  0.00  0.00    +0.001 A 
ATOM      2  C   UNL     1      -3.374  -0.806  -2.336  0.00  0.00    +0.002 A 
ATOM      3  C   UNL     1      -2.350  -0.341  -1.536  0.00  0.00    +0.024 A 
ATOM      4  C   UNL     1      -1.747   0.881  -1.815  0.00  0.00    +0.044 A 
ATOM      5  C   UNL     1      -2.200   1.629  -2.909  0.00  0.00    +0.028 A 
ATOM      6  C   UNL     1      -3.232   1.151  -3.709  0.00  0.00    +0.012 A 
ATOM      7  C   UNL     1      -1.379   2.862  -2.941  0.00  0.00    +0.153 C 
ATOM      8  N   UNL     1      -1.454   3.849  -3.801  0.00  0.00    -0.175 NA
ATOM      9  C   UNL     1      -0.458   2.737  -1.793  0.00  0.00    +0.270 C 
ATOM     10  O   UNL     1       0.389   3.546  -1.463  0.00  0.00    -0.268 OA
ATOM     11  N   UNL     1      -0.721   1.571  -1.179  0.00  0.00    -0.282 N 
ENDROOT
BRANCH   8  12
ATOM     12  N   UNL     1      -0.594   4.948  -3.682  0.00  0.00    -0.206 N 
ATOM     13  C   UNL     1      -0.671   5.963  -4.566  0.00  0.00    +0.242 C 
ATOM     14  O   UNL     1      -1.485   5.924  -5.464  0.00  0.00    -0.273 OA
ATOM     15  H   UNL     1       0.058   4.979  -2.964  0.00  0.00    +0.177 HD
BRANCH  13  16
ATOM     16  C   UNL     1       0.255   7.145  -4.438  0.00  0.00    +0.173 C 
BRANCH  16  17
ATOM     17  S   UNL     1      -0.092   8.329  -5.763  0.00  0.00    -0.089 S 
BRANCH  17  18
ATOM     18  C   UNL     1       1.098   9.572  -5.382  0.00  0.00    +0.136 A 
ATOM     19  N   UNL     1       1.972   9.603  -4.401  0.00  0.00    -0.233 NA
ATOM     20  C   UNL     1       2.835  10.629  -4.231  0.00  0.00    +0.079 A 
ATOM     21  C   UNL     1       3.820  10.784  -3.229  0.00  0.00    +0.029 A 
ATOM     22  C   UNL     1       4.617  11.898  -3.196  0.00  0.00    +0.002 A 
ATOM     23  C   UNL     1       4.487  12.909  -4.137  0.00  0.00    +0.001 A 
ATOM     24  C   UNL     1       3.533  12.791  -5.132  0.00  0.00    +0.017 A 
ATOM     25  C   UNL     1       2.731  11.678  -5.173  0.00  0.00    +0.040 A 
ATOM     26  S   UNL     1       1.418  11.114  -6.227  0.00  0.00    -0.061 S 
ENDBRANCH  17  18
ENDBRANCH  16  17
ENDBRANCH  13  16
ENDBRANCH   8  12
BRANCH  11  27
ATOM     27  C   UNL     1      -0.013   1.086   0.008  0.00  0.00    +0.039 C 
BRANCH  27  32
ATOM     28  C   UNL     1      -2.174   1.545   1.031  0.00  0.00    -0.077 C 
ATOM     29  C   UNL     1      -2.714   1.546   2.483  0.00  0.00    -0.020 C 
ATOM     30  C   UNL     1      -1.705   0.643   3.228  0.00  0.00    -0.020 C 
ATOM     31  C   UNL     1      -0.430   0.667   2.365  0.00  0.00    -0.077 C 
ATOM     32  N   UNL     1      -0.717   1.556   1.238  0.00  0.00    +0.390 N 
ATOM     33  H   UNL     1      -0.406   2.509   1.461  0.00  0.00    -0.080 HD
ENDBRANCH  27  32
ENDBRANCH  11  27
TORSDOF 6
