REMARK  Name = ZINC19520541
REMARK  7 active torsions:
REMARK  status: ('A' for Active; 'I' for Inactive)
REMARK    1  A    between atoms: C_1  and  C_2
REMARK    2  A    between atoms: C_2  and  C_3
REMARK    3  A    between atoms: C_3  and  C_5
REMARK    4  A    between atoms: C_3  and  N_17
REMARK    5  A    between atoms: C_5  and  N_6
REMARK    6  A    between atoms: C_18  and  C_20
REMARK    7  A    between atoms: C_28  and  C_31
REMARK                            x       y       z     vdW  Elec       q    Type
REMARK                         _______ _______ _______ _____ _____    ______ ____
ROOT
ATOM      1  C   UNL     1      -0.251  -5.251  -1.755  0.00  0.00    +0.094 C 
ENDROOT
BRANCH   1   2
ATOM      2  N   UNL     1       0.510  -4.039  -2.068  0.00  0.00    -0.305 N 
ATOM      3  C   UNL     1       0.273  -2.900  -1.387  0.00  0.00    +0.262 C 
ATOM      4  O   UNL     1      -0.572  -2.879  -0.512  0.00  0.00    -0.269 OA
ATOM      5  H   UNL     1       1.274  -4.058  -2.859  0.00  0.00    +0.149 HD
BRANCH   3   6
ATOM      6  C   UNL     1       1.037  -1.683  -1.702  0.00  0.00    +0.124 A 
ATOM      7  C   UNL     1       0.916  -0.453  -1.104  0.00  0.00    +0.006 A 
ATOM      8  C   UNL     1       1.850   0.375  -1.740  0.00  0.00    +0.067 A 
ATOM      9  N   UNL     1       2.461  -0.336  -2.642  0.00  0.00    -0.178 NA
ATOM     10  N   UNL     1       2.015  -1.544  -2.651  0.00  0.00    -0.272 N 
ATOM     11  H   UNL     1       2.301  -2.404  -3.275  0.00  0.00    +0.189 HD
ATOM     12  C   UNL     1       2.051   1.825  -1.375  0.00  0.00    +0.058 C 
ATOM     13  C   UNL     1       1.415   2.066  -0.000  0.00  0.00    +0.010 C 
ATOM     14  C   UNL     1      -0.019   1.531   0.011  0.00  0.00    -0.009 C 
ATOM     15  C   UNL     1       0.002  -0.004   0.002  0.00  0.00    +0.042 C 
ATOM     16  C   UNL     1      -0.737   2.023   1.269  0.00  0.00    +0.008 C 
ENDBRANCH   3   6
ENDBRANCH   1   2
BRANCH   1  18
ATOM     17  C   UNL     1      -2.439  -4.077  -2.033  0.00  0.00    +0.006 C 
ATOM     18  C   UNL     1      -1.572  -5.238  -2.526  0.00  0.00    +0.021 C 
ENDBRANCH   1  18
BRANCH   1  19
ATOM     19  C   UNL     1       0.563  -6.482  -2.159  0.00  0.00    +0.169 C 
BRANCH  19  20
ATOM     20  N   UNL     1       1.876  -6.434  -1.512  0.00  0.00    -0.227 N 
ATOM     21  C   UNL     1       2.030  -6.997  -0.295  0.00  0.00    +0.275 A 
ATOM     22  O   UNL     1       1.092  -7.539   0.261  0.00  0.00    -0.266 OA
ATOM     23  C   UNL     1       3.351  -6.947   0.344  0.00  0.00    +0.050 A 
ATOM     24  C   UNL     1       3.588  -7.510   1.597  0.00  0.00    +0.014 A 
ATOM     25  C   UNL     1       4.848  -7.427   2.148  0.00  0.00    +0.001 A 
ATOM     26  C   UNL     1       5.879  -6.790   1.469  0.00  0.00    +0.001 A 
ATOM     27  C   UNL     1       5.670  -6.232   0.239  0.00  0.00    +0.010 A 
ATOM     28  C   UNL     1       4.403  -6.300  -0.345  0.00  0.00    +0.007 A 
ATOM     29  C   UNL     1       4.126  -5.718  -1.658  0.00  0.00    +0.141 A 
ATOM     30  N   UNL     1       2.933  -5.802  -2.167  0.00  0.00    -0.176 NA
ENDBRANCH  19  20
ENDBRANCH   1  19
TORSDOF 5
