REMARK  Name = ZINC65298035
REMARK  5 active torsions:
REMARK  status: ('A' for Active; 'I' for Inactive)
REMARK    1  A    between atoms: C_1  and  C_2
REMARK    2  A    between atoms: C_2  and  N_3
REMARK    3  A    between atoms: C_10  and  C_24
REMARK    4  A    between atoms: C_13  and  C_15
REMARK    5  A    between atoms: C_29  and  O_30
REMARK                            x       y       z     vdW  Elec       q    Type
REMARK                         _______ _______ _______ _____ _____    ______ ____
ROOT
ATOM      1  N   UNL     1       0.690  -0.478  -1.207  0.00  0.00    +0.380 N 
ATOM      2  C   UNL     1       2.096  -0.062  -1.162  0.00  0.00    -0.075 C 
ATOM      3  C   UNL     1       2.799  -0.484  -2.454  0.00  0.00    +0.027 C 
ATOM      4  C   UNL     1       2.722  -2.008  -2.595  0.00  0.00    +0.109 C 
ATOM      5  C   UNL     1       1.250  -2.435  -2.570  0.00  0.00    +0.027 C 
ATOM      6  C   UNL     1       0.605  -1.942  -1.274  0.00  0.00    -0.075 C 
ATOM      7  N   UNL     1       3.320  -2.406  -3.876  0.00  0.00    -0.286 NA
ATOM      8  C   UNL     1       4.775  -2.178  -3.850  0.00  0.00    +0.095 C 
ATOM      9  C   UNL     1       5.395  -3.159  -2.850  0.00  0.00    +0.079 C 
ATOM     10  C   UNL     1       4.602  -3.142  -1.573  0.00  0.00    +0.047 C 
ATOM     11  N   UNL     1       3.430  -2.636  -1.484  0.00  0.00    -0.266 NA
ATOM     12  H   UNL     1       3.109  -3.369  -4.090  0.00  0.00    +0.125 HD
ATOM     13  H   UNL     1       0.249  -0.078  -2.022  0.00  0.00    -0.082 HD
ENDROOT
BRANCH  10  14
ATOM     14  C   UNL     1       5.204  -3.736  -0.365  0.00  0.00    -0.000 A 
ATOM     15  C   UNL     1       6.484  -4.293  -0.422  0.00  0.00    +0.013 A 
ATOM     16  C   UNL     1       7.045  -4.848   0.708  0.00  0.00    +0.050 A 
ATOM     17  C   UNL     1       6.342  -4.855   1.905  0.00  0.00    +0.166 A 
ATOM     18  C   UNL     1       5.063  -4.301   1.968  0.00  0.00    +0.167 A 
ATOM     19  C   UNL     1       4.498  -3.738   0.840  0.00  0.00    +0.059 A 
ATOM     20  O   UNL     1       4.593  -4.434   3.244  0.00  0.00    -0.453 OA
ATOM     21  C   UNL     1       5.426  -5.437   3.856  0.00  0.00    +0.466 C 
ATOM     22  O   UNL     1       6.670  -5.334   3.140  0.00  0.00    -0.453 OA
ENDBRANCH  10  14
BRANCH   8  23
ATOM     23  C   UNL     1       5.352  -2.415  -5.222  0.00  0.00    +0.013 A 
ATOM     24  C   UNL     1       4.649  -3.161  -6.148  0.00  0.00    +0.028 A 
ATOM     25  C   UNL     1       5.178  -3.379  -7.407  0.00  0.00    +0.042 A 
ATOM     26  C   UNL     1       6.412  -2.850  -7.742  0.00  0.00    +0.023 A 
ATOM     27  C   UNL     1       7.118  -2.104  -6.819  0.00  0.00    +0.047 A 
ATOM     28  C   UNL     1       6.586  -1.879  -5.558  0.00  0.00    +0.122 A 
ATOM     29 CL   UNL     1       4.293  -4.318  -8.569  0.00  0.00    -0.084 Cl
BRANCH  28  30
ATOM     30  O   UNL     1       7.277  -1.139  -4.650  0.00  0.00    -0.506 OA
ATOM     31  H   UNL     1       7.874  -1.657  -4.093  0.00  0.00    +0.292 HD
ENDBRANCH  28  30
ENDBRANCH   8  23
BRANCH   1  33
ATOM     32  C   UNL     1      -0.019   1.526   0.010  0.00  0.00    -0.017 C 
ATOM     33  C   UNL     1       0.002  -0.004   0.002  0.00  0.00    -0.082 C 
ENDBRANCH   1  33
TORSDOF 4
