REMARK  Name = ZINC20571189
REMARK  9 active torsions:
REMARK  status: ('A' for Active; 'I' for Inactive)
REMARK    1  A    between atoms: C_1  and  C_2
REMARK    2  A    between atoms: C_2  and  C_3
REMARK    3  A    between atoms: C_3  and  N_4
REMARK    4  A    between atoms: C_10  and  N_15
REMARK    5  A    between atoms: C_11  and  C_12
REMARK    6  A    between atoms: C_16  and  C_18
REMARK    7  A    between atoms: C_21  and  N_24
REMARK    8  A    between atoms: N_24  and  S_25
REMARK    9  A    between atoms: S_25  and  C_28
REMARK                            x       y       z     vdW  Elec       q    Type
REMARK                         _______ _______ _______ _____ _____    ______ ____
ROOT
ATOM      1  N   UNL     1       4.451   4.200  -5.133  0.00  0.00    -0.275 N 
ATOM      2  C   UNL     1       5.167   3.062  -5.219  0.00  0.00    +0.249 C 
ATOM      3  O   UNL     1       6.013   2.940  -6.084  0.00  0.00    -0.270 OA
ATOM      4  H   UNL     1       3.686   4.311  -4.350  0.00  0.00    +0.156 HD
ENDROOT
BRANCH   1  11
ATOM      5  N   UNL     1       5.226   8.784  -9.445  0.00  0.00    +0.383 N 
ATOM      6  C   UNL     1       4.886   9.558  -8.242  0.00  0.00    -0.074 C 
ATOM      7  C   UNL     1       3.903   8.771  -7.371  0.00  0.00    +0.018 C 
ATOM      8  C   UNL     1       4.478   7.377  -7.146  0.00  0.00    -0.027 A 
ATOM      9  C   UNL     1       5.460   6.911  -7.950  0.00  0.00    -0.021 A 
ATOM     10  S   UNL     1       5.822   5.295  -7.330  0.00  0.00    -0.079 S 
ATOM     11  C   UNL     1       4.678   5.231  -6.030  0.00  0.00    +0.085 A 
ATOM     12  C   UNL     1       4.049   6.467  -6.101  0.00  0.00    +0.068 A 
ATOM     13  C   UNL     1       6.086   7.636  -9.101  0.00  0.00    -0.035 C 
ATOM     14  H   UNL     1       4.290   8.398  -9.876  0.00  0.00    -0.081 HD
BRANCH  12  15
ATOM     15  C   UNL     1       2.991   6.839  -5.156  0.00  0.00    +0.244 C 
ATOM     16  O   UNL     1       3.276   7.399  -4.113  0.00  0.00    -0.270 OA
ATOM     17  N   UNL     1       1.704   6.560  -5.441  0.00  0.00    -0.325 N 
ATOM     18  H   UNL     1       0.910   6.839  -4.732  0.00  0.00    +0.145 HD
ATOM     19  H   UNL     1       1.446   6.054  -6.384  0.00  0.00    +0.145 HD
ENDBRANCH  12  15
BRANCH   5  20
ATOM     20  C   UNL     1       5.865   9.636 -10.456  0.00  0.00    -0.079 C 
BRANCH  20  22
ATOM     21  C   UNL     1       7.782  11.172 -10.914  0.00  0.00    +0.002 C 
ATOM     22  C   UNL     1       7.116  10.284  -9.860  0.00  0.00    -0.022 C 
ENDBRANCH  20  22
ENDBRANCH   5  20
ENDBRANCH   1  11
BRANCH   2  23
ATOM     23  C   UNL     1       4.925   1.964  -4.264  0.00  0.00    +0.037 A 
ATOM     24  C   UNL     1       5.667   0.782  -4.353  0.00  0.00    +0.015 A 
ATOM     25  C   UNL     1       5.439  -0.240  -3.460  0.00  0.00    +0.025 A 
ATOM     26  C   UNL     1       4.471  -0.098  -2.470  0.00  0.00    +0.048 A 
ATOM     27  C   UNL     1       3.727   1.075  -2.382  0.00  0.00    +0.025 A 
ATOM     28  C   UNL     1       3.953   2.103  -3.269  0.00  0.00    +0.015 A 
BRANCH  26  29
ATOM     29  N   UNL     1       4.243  -1.133  -1.569  0.00  0.00    -0.216 N 
ATOM     30  H   UNL     1       3.340  -1.753  -1.661  0.00  0.00    +0.174 HD
BRANCH  29  31
ATOM     31  S   UNL     1       5.332  -1.431  -0.358  0.00  0.00    +0.072 S 
ATOM     32  O   UNL     1       6.611  -1.511  -0.972  0.00  0.00    -0.150 OA
ATOM     33  O   UNL     1       4.794  -2.491   0.420  0.00  0.00    -0.150 OA
BRANCH  31  34
ATOM     34  C   UNL     1       5.361  -0.008   0.680  0.00  0.00    +0.108 A 
ATOM     35  C   UNL     1       4.426   0.131   1.689  0.00  0.00    +0.029 A 
ATOM     36  C   UNL     1       4.448   1.248   2.503  0.00  0.00    +0.002 A 
ATOM     37  C   UNL     1       5.404   2.227   2.308  0.00  0.00    +0.000 A 
ATOM     38  C   UNL     1       6.339   2.088   1.299  0.00  0.00    +0.002 A 
ATOM     39  C   UNL     1       6.317   0.971   0.485  0.00  0.00    +0.029 A 
ENDBRANCH  31  34
ENDBRANCH  29  31
ENDBRANCH  26  29
ENDBRANCH   2  23
TORSDOF 8
