REMARK  Name = ZINC39637276
REMARK  7 active torsions:
REMARK  status: ('A' for Active; 'I' for Inactive)
REMARK    1  A    between atoms: C_1  and  C_2
REMARK    2  A    between atoms: C_3  and  C_14
REMARK    3  A    between atoms: C_4  and  C_7
REMARK    4  A    between atoms: C_18  and  C_27
REMARK    5  A    between atoms: N_29  and  C_30
REMARK    6  A    between atoms: C_35  and  C_40
REMARK    7  A    between atoms: C_37  and  C_39
REMARK                            x       y       z     vdW  Elec       q    Type
REMARK                         _______ _______ _______ _____ _____    ______ ____
ROOT
ATOM      1  C   UNL     1      -2.446  -0.422   0.251  0.00  0.00    +0.252 C 
ATOM      2  O   UNL     1      -3.141  -0.357  -0.745  0.00  0.00    -0.270 OA
ATOM      3  N   UNL     1      -2.968  -0.127   1.457  0.00  0.00    -0.296 N 
ATOM      4  C   UNL     1      -2.265  -0.062   2.760  0.00  0.00    +0.121 C 
ATOM      5  C   UNL     1      -2.889   1.154   3.480  0.00  0.00    +0.100 C 
ATOM      6  C   UNL     1      -4.275   1.324   2.835  0.00  0.00    -0.004 C 
ATOM      7  C   UNL     1      -4.375   0.213   1.780  0.00  0.00    +0.115 C 
ATOM      8  C   UNL     1      -4.381   2.690   2.164  0.00  0.00    -0.010 C 
ATOM      9  C   UNL     1      -5.787   2.858   1.579  0.00  0.00    -0.082 C 
ATOM     10  N   UNL     1      -6.782   2.738   2.651  0.00  0.00    +0.379 N 
ATOM     11  C   UNL     1      -6.736   1.389   3.229  0.00  0.00    -0.082 C 
ATOM     12  C   UNL     1      -5.370   1.159   3.883  0.00  0.00    -0.010 C 
ATOM     13  H   UNL     1      -6.584   3.418   3.370  0.00  0.00    -0.086 HD
ATOM     14  H   UNL     1      -7.702   2.909   2.274  0.00  0.00    -0.086 HD
ENDROOT
BRANCH   1  17
ATOM     15  C   UNL     1      -0.050   1.468  -0.422  0.00  0.00    +0.090 C 
ATOM     16  C   UNL     1       0.023  -0.013  -0.154  0.00  0.00    +0.147 A 
ATOM     17  C   UNL     1      -1.034  -0.825   0.138  0.00  0.00    +0.106 A 
ATOM     18  C   UNL     1      -0.491  -2.180   0.320  0.00  0.00    +0.127 A 
ATOM     19  N   UNL     1       0.802  -2.099   0.133  0.00  0.00    -0.077 NA
ATOM     20  O   UNL     1       1.131  -0.758  -0.167  0.00  0.00    -0.359 OA
BRANCH  18  21
ATOM     21  C   UNL     1      -1.261  -3.403   0.651  0.00  0.00    +0.023 A 
ATOM     22  C   UNL     1      -2.643  -3.337   0.816  0.00  0.00    +0.011 A 
ATOM     23  C   UNL     1      -3.355  -4.478   1.124  0.00  0.00    +0.001 A 
ATOM     24  C   UNL     1      -2.699  -5.688   1.269  0.00  0.00    +0.001 A 
ATOM     25  C   UNL     1      -1.328  -5.761   1.107  0.00  0.00    +0.020 A 
ATOM     26  C   UNL     1      -0.605  -4.626   0.793  0.00  0.00    +0.050 A 
ATOM     27 CL   UNL     1       1.115  -4.721   0.582  0.00  0.00    -0.083 Cl
ENDBRANCH  18  21
ENDBRANCH   1  17
BRANCH   5  28
ATOM     28  C   UNL     1      -2.049   2.385   3.256  0.00  0.00    +0.218 C 
ATOM     29  O   UNL     1      -1.352   2.471   2.267  0.00  0.00    -0.275 OA
ATOM     30  N   UNL     1      -2.072   3.390   4.154  0.00  0.00    -0.312 N 
ATOM     31  H   UNL     1      -2.629   3.321   4.944  0.00  0.00    +0.149 HD
BRANCH  30  32
ATOM     32  C   UNL     1      -1.255   4.586   3.936  0.00  0.00    +0.076 C 
ATOM     33  C   UNL     1      -2.014   5.566   3.039  0.00  0.00    +0.022 C 
ATOM     34  C   UNL     1      -1.161   6.815   2.811  0.00  0.00    +0.002 C 
ATOM     35  C   UNL     1      -0.862   7.481   4.156  0.00  0.00    +0.003 C 
ATOM     36  C   UNL     1      -0.103   6.501   5.052  0.00  0.00    -0.009 C 
ATOM     37  C   UNL     1      -0.956   5.252   5.280  0.00  0.00    +0.009 C 
ATOM     38  C   UNL     1      -0.196   4.272   6.177  0.00  0.00    +0.009 C 
ATOM     39  C   UNL     1       1.211   6.105   4.376  0.00  0.00    +0.008 C 
ENDBRANCH  30  32
ENDBRANCH   5  28
TORSDOF 4
