REMARK  Name = ZINC21557124
REMARK  9 active torsions:
REMARK  status: ('A' for Active; 'I' for Inactive)
REMARK    1  A    between atoms: C_1  and  C_2
REMARK    2  A    between atoms: C_7  and  N_8
REMARK    3  A    between atoms: C_9  and  C_11
REMARK    4  A    between atoms: C_11  and  N_12
REMARK    5  A    between atoms: C_13  and  C_15
REMARK    6  A    between atoms: C_17  and  N_24
REMARK    7  A    between atoms: C_20  and  N_21
REMARK    8  A    between atoms: N_21  and  C_22
REMARK    9  A    between atoms: N_21  and  C_23
REMARK                            x       y       z     vdW  Elec       q    Type
REMARK                         _______ _______ _______ _____ _____    ______ ____
ROOT
ATOM      1  N   UNL     1       2.384   5.303  -0.008  0.00  0.00    -0.303 N 
ATOM      2  C   UNL     1       2.415   3.955  -0.026  0.00  0.00    +0.246 C 
ATOM      3  O   UNL     1       3.482   3.372  -0.046  0.00  0.00    -0.270 OA
ATOM      4  H   UNL     1       1.419   5.830   0.011  0.00  0.00    +0.150 HD
ENDROOT
BRANCH   2   5
ATOM      5  C   UNL     1       1.156   3.189  -0.020  0.00  0.00    +0.060 A 
ATOM      6  C   UNL     1      -0.072   3.855   0.005  0.00  0.00    +0.047 A 
ATOM      7  C   UNL     1      -1.246   3.133   0.011  0.00  0.00    +0.127 A 
ATOM      8  C   UNL     1      -1.216   1.748  -0.013  0.00  0.00    +0.034 A 
ATOM      9  C   UNL     1      -0.011   1.075  -0.032  0.00  0.00    +0.026 A 
ATOM     10  C   UNL     1       1.183   1.786  -0.038  0.00  0.00    +0.042 A 
BRANCH  10  11
ATOM     11  N   UNL     1       2.396   1.111  -0.063  0.00  0.00    -0.335 N 
ATOM     12  C   UNL     1       2.539   0.241   1.112  0.00  0.00    +0.129 C 
ATOM     13  C   UNL     1       2.548   0.345  -1.307  0.00  0.00    +0.129 C 
ENDBRANCH  10  11
BRANCH   7  14
ATOM     14  N   UNL     1      -2.545   3.841   0.036  0.00  0.00    +0.056 N 
ATOM     15  O   UNL     1      -2.575   5.059   0.052  0.00  0.00    -0.126 OA
ATOM     16  O   UNL     1      -3.585   3.206   0.042  0.00  0.00    -0.126 OA
ENDBRANCH   7  14
ENDBRANCH   2   5
BRANCH   1  17
ATOM     17  C   UNL     1       3.636   6.064  -0.014  0.00  0.00    +0.200 C 
BRANCH  17  19
ATOM     18  N   UNL     1       4.331   8.438   0.007  0.00  0.00    -0.284 N 
ATOM     19  C   UNL     1       3.327   7.539   0.008  0.00  0.00    +0.234 C 
ATOM     20  O   UNL     1       2.174   7.917   0.028  0.00  0.00    -0.274 OA
ATOM     21  H   UNL     1       5.374   8.098   0.082  0.00  0.00    +0.155 HD
BRANCH  18  28
ATOM     22  C   UNL     1       6.222  10.282   1.064  0.00  0.00    +0.046 C 
ATOM     23  C   UNL     1       4.942  10.739   0.414  0.00  0.00    -0.028 A 
ATOM     24  C   UNL     1       4.660  12.088   0.314  0.00  0.00    +0.020 A 
ATOM     25  C   UNL     1       3.482  12.508  -0.277  0.00  0.00    +0.018 A 
ATOM     26  C   UNL     1       2.585  11.579  -0.774  0.00  0.00    +0.017 A 
ATOM     27  C   UNL     1       2.864  10.229  -0.681  0.00  0.00    +0.024 A 
ATOM     28  C   UNL     1       4.046   9.805  -0.088  0.00  0.00    +0.036 A 
ATOM     29 BR   UNL     1       3.097  14.354  -0.405  0.00  0.00    -0.050 Br
ENDBRANCH  18  28
ENDBRANCH  17  19
ENDBRANCH   1  17
TORSDOF 6
