REMARK  Name = ZINC09134922
REMARK  11 active torsions:
REMARK  status: ('A' for Active; 'I' for Inactive)
REMARK    1  A    between atoms: C_1  and  C_2
REMARK    2  A    between atoms: C_9  and  C_38
REMARK    3  A    between atoms: C_10  and  C_17
REMARK    4  A    between atoms: C_15  and  C_16
REMARK    5  A    between atoms: C_17  and  C_18
REMARK    6  A    between atoms: N_20  and  C_21
REMARK    7  A    between atoms: C_21  and  C_22
REMARK    8  A    between atoms: C_22  and  C_24
REMARK    9  A    between atoms: C_22  and  C_31
REMARK   10  A    between atoms: C_24  and  C_25
REMARK   11  A    between atoms: N_27  and  C_28
REMARK                            x       y       z     vdW  Elec       q    Type
REMARK                         _______ _______ _______ _____ _____    ______ ____
ROOT
ATOM      1  C   UNL     1       3.004   5.375   0.371  0.00  0.00    +0.218 C 
ATOM      2  O   UNL     1       2.074   6.153   0.396  0.00  0.00    -0.275 OA
ATOM      3  N   UNL     1       2.773   4.053   0.243  0.00  0.00    -0.314 N 
ATOM      4  H   UNL     1       3.517   3.430   0.224  0.00  0.00    +0.149 HD
ENDROOT
BRANCH   1   5
ATOM      5  C   UNL     1       4.417   5.885   0.484  0.00  0.00    +0.138 C 
BRANCH   5  15
ATOM      6  C   UNL     1       4.571  12.998  -3.617  0.00  0.00    +0.047 C 
ATOM      7  C   UNL     1       4.497  13.014  -2.112  0.00  0.00    -0.005 A 
ATOM      8  C   UNL     1       4.452  14.093  -1.321  0.00  0.00    +0.199 A 
ATOM      9  O   UNL     1       4.392  13.723  -0.029  0.00  0.00    -0.462 OA
ATOM     10  C   UNL     1       4.394  12.379   0.088  0.00  0.00    +0.141 A 
ATOM     11  C   UNL     1       4.461  11.849  -1.217  0.00  0.00    +0.024 A 
ATOM     12  C   UNL     1       4.479  10.476  -1.419  0.00  0.00    +0.023 A 
ATOM     13  C   UNL     1       4.430   9.623  -0.316  0.00  0.00    +0.022 A 
ATOM     14  C   UNL     1       4.454   8.168  -0.492  0.00  0.00    -0.029 A 
ATOM     15  C   UNL     1       4.400   7.386   0.616  0.00  0.00    +0.049 A 
ATOM     16  C   UNL     1       4.334   7.984   1.893  0.00  0.00    +0.341 A 
ATOM     17  O   UNL     1       4.291   7.270   2.879  0.00  0.00    -0.245 OA
ATOM     18  O   UNL     1       4.317   9.316   2.050  0.00  0.00    -0.422 OA
ATOM     19  C   UNL     1       4.363  10.153   0.989  0.00  0.00    +0.146 A 
ATOM     20  C   UNL     1       4.346  11.524   1.179  0.00  0.00    +0.035 A 
ATOM     21  C   UNL     1       4.274  12.089   2.574  0.00  0.00    +0.051 C 
ATOM     22  C   UNL     1       4.531   7.556  -1.867  0.00  0.00    +0.045 C 
ENDBRANCH   5  15
ENDBRANCH   1   5
BRANCH   3  23
ATOM     23  C   UNL     1       1.399   3.556   0.134  0.00  0.00    +0.112 C 
BRANCH  23  24
ATOM     24  C   UNL     1       1.417   2.032  -0.001  0.00  0.00    +0.045 C 
BRANCH  24  25
ATOM     25  C   UNL     1       2.084   1.650  -1.297  0.00  0.00    -0.042 A 
ATOM     26  C   UNL     1       1.555   2.080  -2.499  0.00  0.00    +0.005 A 
ATOM     27  C   UNL     1       2.169   1.734  -3.688  0.00  0.00    +0.020 A 
ATOM     28  C   UNL     1       3.307   0.948  -3.675  0.00  0.00    +0.041 A 
ATOM     29  C   UNL     1       3.833   0.513  -2.472  0.00  0.00    +0.020 A 
ATOM     30  C   UNL     1       3.221   0.864  -1.283  0.00  0.00    +0.005 A 
ATOM     31 CL   UNL     1       4.075   0.507  -5.168  0.00  0.00    -0.084 Cl
ENDBRANCH  24  25
BRANCH  24  32
ATOM     32  C   UNL     1      -0.018   1.503   0.010  0.00  0.00    +0.105 C 
BRANCH  32  33
ATOM     33  C   UNL     1       0.002  -0.004   0.002  0.00  0.00    +0.214 C 
ATOM     34  O   UNL     1       1.060  -0.596  -0.011  0.00  0.00    -0.276 OA
ATOM     35  N   UNL     1      -1.156  -0.694   0.009  0.00  0.00    -0.312 N 
ATOM     36  H   UNL     1      -2.002  -0.220   0.020  0.00  0.00    +0.149 HD
BRANCH  35  37
ATOM     37  C   UNL     1      -1.136  -2.159   0.001  0.00  0.00    +0.073 C 
ATOM     38  C   UNL     1      -2.118  -2.873  -0.929  0.00  0.00    +0.024 C 
ATOM     39  C   UNL     1      -2.351  -2.885   0.583  0.00  0.00    +0.024 C 
ENDBRANCH  35  37
ENDBRANCH  32  33
ENDBRANCH  24  32
ENDBRANCH  23  24
ENDBRANCH   3  23
TORSDOF 8
