REMARK  Name = ZINC08860910
REMARK  6 active torsions:
REMARK  status: ('A' for Active; 'I' for Inactive)
REMARK    1  A    between atoms: C_4  and  C_7
REMARK    2  A    between atoms: C_13  and  C_15
REMARK    3  A    between atoms: N_17  and  N_18
REMARK    4  A    between atoms: C_19  and  C_20
REMARK    5  A    between atoms: C_23  and  O_28
REMARK    6  A    between atoms: C_25  and  O_26
REMARK                            x       y       z     vdW  Elec       q    Type
REMARK                         _______ _______ _______ _____ _____    ______ ____
ROOT
ATOM      1  C   UNL     1       5.496  -2.763  -1.114  0.00  0.00    +0.245 C 
ATOM      2  O   UNL     1       6.235  -1.904  -0.682  0.00  0.00    -0.273 OA
ATOM      3  N   UNL     1       5.776  -3.367  -2.286  0.00  0.00    -0.206 N 
ATOM      4  H   UNL     1       5.185  -4.054  -2.631  0.00  0.00    +0.177 HD
ENDROOT
BRANCH   1  10
ATOM      5  C   UNL     1       4.156  -2.329   0.962  0.00  0.00    +0.057 C 
ATOM      6  C   UNL     1       4.842  -3.262   1.985  0.00  0.00    +0.113 C 
ATOM      7  N   UNL     1       4.690  -4.617   1.443  0.00  0.00    -0.314 N 
ATOM      8  C   UNL     1       4.370  -4.588   0.137  0.00  0.00    +0.226 C 
ATOM      9  O   UNL     1       4.193  -5.566  -0.556  0.00  0.00    -0.275 OA
ATOM     10  C   UNL     1       4.263  -3.155  -0.341  0.00  0.00    +0.171 C 
ATOM     11  H   UNL     1       4.806  -5.429   1.960  0.00  0.00    +0.149 HD
BRANCH   5  15
ATOM     12  C   UNL     1       0.070  -1.652   2.010  0.00  0.00    +0.000 A 
ATOM     13  C   UNL     1       0.925  -0.580   1.833  0.00  0.00    +0.000 A 
ATOM     14  C   UNL     1       2.247  -0.799   1.494  0.00  0.00    +0.004 A 
ATOM     15  C   UNL     1       2.715  -2.090   1.333  0.00  0.00    -0.042 A 
ATOM     16  C   UNL     1       1.860  -3.162   1.511  0.00  0.00    +0.004 A 
ATOM     17  C   UNL     1       0.538  -2.943   1.848  0.00  0.00    +0.000 A 
ENDBRANCH   5  15
ENDBRANCH   1  10
BRANCH   3  18
ATOM     18  N   UNL     1       6.922  -3.002  -3.005  0.00  0.00    -0.188 NA
ATOM     19  C   UNL     1       7.137  -3.505  -4.183  0.00  0.00    +0.142 C 
BRANCH  19  20
ATOM     20  C   UNL     1       6.069  -4.250  -4.871  0.00  0.00    +0.038 A 
ATOM     21  C   UNL     1       4.728  -3.989  -4.575  0.00  0.00    +0.032 A 
ATOM     22  C   UNL     1       3.732  -4.687  -5.221  0.00  0.00    +0.061 A 
ATOM     23  C   UNL     1       4.055  -5.652  -6.169  0.00  0.00    +0.148 A 
ATOM     24  C   UNL     1       5.383  -5.919  -6.470  0.00  0.00    +0.102 A 
ATOM     25  C   UNL     1       6.393  -5.219  -5.831  0.00  0.00    +0.143 A 
ATOM     26 BR   UNL     1       5.815  -7.234  -7.759  0.00  0.00    -0.043 Br
ATOM     27 BR   UNL     1       1.918  -4.333  -4.819  0.00  0.00    -0.046 Br
BRANCH  25  28
ATOM     28  O   UNL     1       7.693  -5.475  -6.128  0.00  0.00    -0.505 OA
ATOM     29  H   UNL     1       8.115  -6.111  -5.534  0.00  0.00    +0.292 HD
ENDBRANCH  25  28
BRANCH  23  30
ATOM     30  O   UNL     1       3.067  -6.338  -6.802  0.00  0.00    -0.504 OA
ATOM     31  H   UNL     1       2.761  -5.921  -7.619  0.00  0.00    +0.292 HD
ENDBRANCH  23  30
ENDBRANCH  19  20
ENDBRANCH   3  18
TORSDOF 6
