REMARK  Name = ZINC38702103
REMARK  11 active torsions:
REMARK  status: ('A' for Active; 'I' for Inactive)
REMARK    1  A    between atoms: C_1  and  C_2
REMARK    2  A    between atoms: C_2  and  O_3
REMARK    3  A    between atoms: O_3  and  C_4
REMARK    4  A    between atoms: C_7  and  C_12
REMARK    5  A    between atoms: C_9  and  O_10
REMARK    6  A    between atoms: O_10  and  C_11
REMARK    7  A    between atoms: C_15  and  C_31
REMARK    8  A    between atoms: N_22  and  C_23
REMARK    9  A    between atoms: C_33  and  C_39
REMARK   10  A    between atoms: C_35  and  C_38
REMARK   11  A    between atoms: C_36  and  O_37
REMARK                            x       y       z     vdW  Elec       q    Type
REMARK                         _______ _______ _______ _____ _____    ______ ____
ROOT
ATOM      1  C   UNL     1       0.298  -5.927   2.077  0.00  0.00    +0.142 C 
ATOM      2  C   UNL     1      -1.048  -6.263   2.658  0.00  0.00    +0.035 A 
ATOM      3  C   UNL     1      -1.960  -6.082   3.703  0.00  0.00    +0.102 A 
ATOM      4  N   UNL     1      -3.026  -6.808   3.427  0.00  0.00    -0.173 NA
ATOM      5  N   UNL     1      -2.877  -7.429   2.312  0.00  0.00    -0.272 N 
ATOM      6  H   UNL     1      -3.534  -8.020   1.912  0.00  0.00    +0.189 HD
ATOM      7  C   UNL     1      -1.657  -7.133   1.773  0.00  0.00    +0.126 A 
ATOM      8  C   UNL     1      -0.747  -7.365   0.646  0.00  0.00    +0.266 C 
ATOM      9  O   UNL     1      -0.988  -8.085  -0.304  0.00  0.00    -0.268 OA
ATOM     10  N   UNL     1       0.394  -6.670   0.813  0.00  0.00    -0.280 N 
ENDROOT
BRANCH   3  11
ATOM     11  C   UNL     1      -1.764  -5.230   4.902  0.00  0.00    +0.044 A 
ATOM     12  C   UNL     1      -0.534  -4.616   5.131  0.00  0.00    +0.017 A 
ATOM     13  C   UNL     1      -0.357  -3.825   6.248  0.00  0.00    -0.049 A 
ATOM     14  C   UNL     1      -1.396  -3.638   7.142  0.00  0.00    +0.010 A 
ATOM     15  C   UNL     1      -2.619  -4.243   6.925  0.00  0.00    -0.008 A 
ATOM     16  C   UNL     1      -2.813  -5.035   5.804  0.00  0.00    +0.129 A 
ATOM     17  C   UNL     1      -3.746  -4.035   7.904  0.00  0.00    +0.047 C 
ATOM     18  C   UNL     1       0.974  -3.162   6.494  0.00  0.00    +0.044 C 
BRANCH  16  19
ATOM     19  O   UNL     1      -4.018  -5.624   5.586  0.00  0.00    -0.506 OA
ATOM     20  H   UNL     1      -4.103  -6.503   5.982  0.00  0.00    +0.292 HD
ENDBRANCH  16  19
ENDBRANCH   3  11
BRANCH  10  21
ATOM     21  C   UNL     1       1.534  -6.654  -0.107  0.00  0.00    +0.100 C 
ATOM     22  C   UNL     1       1.077  -6.166  -1.492  0.00  0.00    +0.047 C 
ATOM     23  C   UNL     1       2.180  -6.447  -2.541  0.00  0.00    +0.168 C 
ATOM     24  S   UNL     1       3.036  -7.917  -1.842  0.00  0.00    -0.029 S 
ATOM     25  O   UNL     1       2.769  -9.043  -2.667  0.00  0.00    -0.174 OA
ATOM     26  O   UNL     1       4.383  -7.571  -1.547  0.00  0.00    -0.174 OA
ATOM     27  C   UNL     1       2.101  -8.094  -0.265  0.00  0.00    +0.188 C 
ENDBRANCH  10  21
BRANCH   1  31
ATOM     28  C   UNL     1       0.582  -1.724   1.344  0.00  0.00    +0.162 A 
ATOM     29  C   UNL     1       1.341  -2.308   2.345  0.00  0.00    +0.050 A 
ATOM     30  C   UNL     1       1.247  -3.667   2.579  0.00  0.00    +0.009 A 
ATOM     31  C   UNL     1       0.397  -4.446   1.817  0.00  0.00    -0.019 A 
ATOM     32  C   UNL     1      -0.364  -3.869   0.817  0.00  0.00    +0.055 A 
ATOM     33  C   UNL     1      -0.279  -2.507   0.581  0.00  0.00    +0.162 A 
BRANCH  33  34
ATOM     34  O   UNL     1      -1.031  -1.937  -0.399  0.00  0.00    -0.491 OA
ATOM     35  C   UNL     1      -1.926  -2.793  -1.111  0.00  0.00    +0.277 C 
ENDBRANCH  33  34
BRANCH  28  36
ATOM     36  O   UNL     1       0.673  -0.387   1.112  0.00  0.00    -0.489 OA
BRANCH  36  38
ATOM     37  C   UNL     1       1.543   1.829   1.529  0.00  0.00    +0.048 C 
ATOM     38  C   UNL     1       1.577   0.354   1.934  0.00  0.00    +0.226 C 
ENDBRANCH  36  38
ENDBRANCH  28  36
ENDBRANCH   1  31
TORSDOF 7
