REMARK  Name = ZINC40815135
REMARK  9 active torsions:
REMARK  status: ('A' for Active; 'I' for Inactive)
REMARK    1  A    between atoms: C_1  and  C_2
REMARK    2  A    between atoms: C_5  and  S_8
REMARK    3  A    between atoms: S_8  and  N_11
REMARK    4  A    between atoms: N_11  and  N_12
REMARK    5  A    between atoms: C_19  and  C_33
REMARK    6  A    between atoms: C_20  and  C_22
REMARK    7  A    between atoms: N_24  and  C_25
REMARK    8  A    between atoms: N_24  and  C_26
REMARK    9  A    between atoms: N_29  and  C_32
REMARK                            x       y       z     vdW  Elec       q    Type
REMARK                         _______ _______ _______ _____ _____    ______ ____
ROOT
ATOM      1  N   UNL     1       3.071  -3.687   0.336  0.00  0.00    -0.170 NA
ATOM      2  C   UNL     1       4.303  -4.085   0.405  0.00  0.00    +0.071 C 
ATOM      3  C   UNL     1       5.013  -4.749  -0.766  0.00  0.00    +0.058 C 
ATOM      4  C   UNL     1       5.830  -5.927  -0.225  0.00  0.00    +0.014 C 
ATOM      5  C   UNL     1       6.938  -5.432   0.708  0.00  0.00    +0.075 C 
ATOM      6  C   UNL     1       6.340  -4.546   1.771  0.00  0.00    +0.115 A 
ATOM      7  C   UNL     1       5.123  -3.921   1.627  0.00  0.00    +0.042 A 
ATOM      8  C   UNL     1       4.886  -3.184   2.793  0.00  0.00    +0.009 A 
ATOM      9  C   UNL     1       5.973  -3.383   3.599  0.00  0.00    +0.193 A 
ATOM     10  O   UNL     1       6.833  -4.214   2.962  0.00  0.00    -0.454 OA
ATOM     11  C   UNL     1       3.676  -2.339   3.099  0.00  0.00    +0.048 C 
ENDROOT
BRANCH   9  12
ATOM     12  C   UNL     1       6.168  -2.804   4.933  0.00  0.00    +0.282 C 
ATOM     13  O   UNL     1       5.386  -1.974   5.356  0.00  0.00    -0.267 OA
ATOM     14  N   UNL     1       7.214  -3.192   5.689  0.00  0.00    -0.295 N 
ATOM     15  C   UNL     1       8.196  -4.137   5.152  0.00  0.00    +0.132 C 
BRANCH  14  16
ATOM     16  C   UNL     1       7.368  -2.669   7.049  0.00  0.00    +0.073 C 
ATOM     17  C   UNL     1       7.360  -3.830   8.048  0.00  0.00    +0.004 C 
ATOM     18  C   UNL     1       7.601  -3.284   9.457  0.00  0.00    -0.077 C 
ATOM     19  N   UNL     1       8.900  -2.603   9.507  0.00  0.00    +0.378 N 
ATOM     20  C   UNL     1       8.891  -1.446   8.604  0.00  0.00    -0.077 C 
ATOM     21  C   UNL     1       8.700  -1.921   7.162  0.00  0.00    +0.004 C 
ATOM     22  C   UNL     1       9.162  -2.150  10.879  0.00  0.00    -0.096 C 
ATOM     23  H   UNL     1       9.626  -3.245   9.222  0.00  0.00    -0.082 HD
ENDBRANCH  14  16
ENDBRANCH   9  12
BRANCH   1  24
ATOM     24  N   UNL     1       2.341  -3.868  -0.847  0.00  0.00    -0.136 N 
ATOM     25  H   UNL     1       2.758  -4.291  -1.614  0.00  0.00    +0.197 HD
BRANCH  24  26
ATOM     26  S   UNL     1       0.768  -3.360  -0.935  0.00  0.00    +0.086 S 
ATOM     27  O   UNL     1       0.086  -3.956   0.160  0.00  0.00    -0.149 OA
ATOM     28  O   UNL     1       0.355  -3.547  -2.282  0.00  0.00    -0.149 OA
BRANCH  26  33
ATOM     29  C   UNL     1       0.753   2.591   0.060  0.00  0.00    +0.044 C 
ATOM     30  C   UNL     1       0.757   1.105  -0.189  0.00  0.00    -0.050 A 
ATOM     31  C   UNL     1       0.889   0.620  -1.476  0.00  0.00    +0.005 A 
ATOM     32  C   UNL     1       0.892  -0.744  -1.704  0.00  0.00    +0.029 A 
ATOM     33  C   UNL     1       0.764  -1.622  -0.644  0.00  0.00    +0.110 A 
ATOM     34  C   UNL     1       0.633  -1.137   0.643  0.00  0.00    +0.029 A 
ATOM     35  C   UNL     1       0.634   0.226   0.872  0.00  0.00    +0.005 A 
ENDBRANCH  26  33
ENDBRANCH  24  26
ENDBRANCH   1  24
TORSDOF 5
