REMARK  Name = ZINC11065658
REMARK  9 active torsions:
REMARK  status: ('A' for Active; 'I' for Inactive)
REMARK    1  A    between atoms: C_1  and  C_2
REMARK    2  A    between atoms: C_4  and  C_14
REMARK    3  A    between atoms: C_5  and  C_13
REMARK    4  A    between atoms: C_9  and  C_12
REMARK    5  A    between atoms: C_14  and  C_16
REMARK    6  A    between atoms: C_16  and  O_17
REMARK    7  A    between atoms: O_17  and  C_18
REMARK    8  A    between atoms: C_18  and  C_20
REMARK    9  A    between atoms: C_21  and  C_35
REMARK                            x       y       z     vdW  Elec       q    Type
REMARK                         _______ _______ _______ _____ _____    ______ ____
ROOT
ATOM      1  C   UNL     1       4.034   5.905  -6.157  0.00  0.00    +0.347 C 
ATOM      2  O   UNL     1       3.902   7.076  -5.857  0.00  0.00    -0.244 OA
ENDROOT
BRANCH   1   3
ATOM      3  C   UNL     1       3.972   4.872  -5.121  0.00  0.00    +0.102 A 
ATOM      4  C   UNL     1       3.777   5.023  -3.778  0.00  0.00    -0.015 A 
ATOM      5  C   UNL     1       3.750   3.899  -2.950  0.00  0.00    +0.076 A 
ATOM      6  C   UNL     1       3.936   2.655  -3.594  0.00  0.00    +0.116 A 
ATOM      7  S   UNL     1       4.134   3.104  -5.300  0.00  0.00    -0.062 S 
ATOM      8  N   UNL     1       3.934   1.510  -2.922  0.00  0.00    -0.226 NA
ATOM      9  C   UNL     1       3.752   1.473  -1.632  0.00  0.00    +0.114 A 
ATOM     10  N   UNL     1       3.559   2.610  -0.903  0.00  0.00    -0.296 N 
ATOM     11  C   UNL     1       3.551   3.822  -1.484  0.00  0.00    +0.263 A 
ATOM     12  O   UNL     1       3.385   4.831  -0.823  0.00  0.00    -0.267 OA
ATOM     13  C   UNL     1       3.357   2.479   0.547  0.00  0.00    +0.126 C 
ATOM     14  C   UNL     1       1.956   1.930   0.810  0.00  0.00    +0.022 C 
ATOM     15  C   UNL     1       1.960   0.411   0.845  0.00  0.00    +0.002 C 
ATOM     16  C   UNL     1       2.312  -0.193  -0.503  0.00  0.00    +0.008 C 
ATOM     17  C   UNL     1       3.747   0.150  -0.901  0.00  0.00    +0.074 C 
ATOM     18  C   UNL     1       3.591   6.399  -3.192  0.00  0.00    +0.046 C 
ENDBRANCH   1   3
BRANCH   1  19
ATOM     19  O   UNL     1       4.237   5.558  -7.445  0.00  0.00    -0.453 OA
BRANCH  19  20
ATOM     20  C   UNL     1       4.288   6.634  -8.418  0.00  0.00    +0.312 C 
BRANCH  20  21
ATOM     21  C   UNL     1       4.520   6.059  -9.791  0.00  0.00    +0.202 C 
ATOM     22  O   UNL     1       4.633   4.859  -9.936  0.00  0.00    -0.288 OA
BRANCH  21  26
ATOM     23  C   UNL     1       4.598  10.226 -12.722  0.00  0.00    +0.064 C 
ATOM     24  C   UNL     1       4.642   8.802 -12.232  0.00  0.00    +0.023 A 
ATOM     25  C   UNL     1       4.491   8.412 -10.956  0.00  0.00    +0.034 A 
ATOM     26  C   UNL     1       4.611   6.947 -10.952  0.00  0.00    +0.042 A 
ATOM     27  C   UNL     1       4.819   6.580 -12.267  0.00  0.00    +0.033 A 
ATOM     28  N   UNL     1       4.835   7.699 -13.018  0.00  0.00    -0.299 N 
ATOM     29  C   UNL     1       5.022   7.729 -14.404  0.00  0.00    +0.181 A 
ATOM     30  C   UNL     1       4.253   8.452 -15.353  0.00  0.00    +0.094 A 
ATOM     31  C   UNL     1       4.830   8.152 -16.538  0.00  0.00    +0.136 A 
ATOM     32  O   UNL     1       5.848   7.321 -16.270  0.00  0.00    -0.358 OA
ATOM     33  N   UNL     1       5.944   7.101 -15.085  0.00  0.00    -0.060 NA
ATOM     34  C   UNL     1       4.411   8.652 -17.897  0.00  0.00    +0.089 C 
ATOM     35  C   UNL     1       4.999   5.172 -12.774  0.00  0.00    +0.064 C 
ENDBRANCH  21  26
ENDBRANCH  20  21
ENDBRANCH  19  20
ENDBRANCH   1  19
TORSDOF 5
