REMARK  Name = ZINC15086082
REMARK  10 active torsions:
REMARK  status: ('A' for Active; 'I' for Inactive)
REMARK    1  A    between atoms: C_1  and  C_2
REMARK    2  A    between atoms: C_2  and  C_4
REMARK    3  A    between atoms: C_4  and  C_5
REMARK    4  A    between atoms: C_6  and  C_18
REMARK    5  A    between atoms: C_7  and  O_16
REMARK    6  A    between atoms: C_10  and  O_11
REMARK    7  A    between atoms: O_11  and  C_12
REMARK    8  A    between atoms: O_16  and  C_17
REMARK    9  A    between atoms: C_20  and  C_31
REMARK   10  A    between atoms: C_21  and  N_30
REMARK                            x       y       z     vdW  Elec       q    Type
REMARK                         _______ _______ _______ _____ _____    ______ ____
ROOT
ATOM      1  C   UNL     1      -1.304   4.217   3.579  0.00  0.00    +0.007 A 
ATOM      2  C   UNL     1      -1.588   3.813   2.286  0.00  0.00    +0.018 A 
ATOM      3  C   UNL     1      -2.314   4.639   1.444  0.00  0.00    +0.170 A 
ATOM      4  C   UNL     1      -2.770   5.871   1.899  0.00  0.00    +0.211 A 
ATOM      5  C   UNL     1      -2.486   6.276   3.198  0.00  0.00    +0.211 A 
ATOM      6  C   UNL     1      -1.751   5.445   4.037  0.00  0.00    +0.169 A 
ATOM      7  O   UNL     1      -3.031   7.512   3.400  0.00  0.00    -0.449 OA
ATOM      8  C   UNL     1      -3.301   8.033   2.084  0.00  0.00    +0.467 C 
ATOM      9  O   UNL     1      -3.495   6.851   1.284  0.00  0.00    -0.449 OA
ENDROOT
BRANCH   2  10
ATOM     10  C   UNL     1      -1.099   2.476   1.792  0.00  0.00    +0.105 C 
ATOM     11  C   UNL     1      -2.222   1.764   1.090  0.00  0.00    +0.098 C 
ATOM     12  C   UNL     1      -2.274   1.733  -0.264  0.00  0.00    +0.198 C 
ATOM     13  O   UNL     1      -1.337   2.333  -1.013  0.00  0.00    -0.445 OA
ATOM     14  C   UNL     1      -0.126   2.596  -0.487  0.00  0.00    +0.115 C 
ATOM     15  C   UNL     1       0.056   2.684   0.843  0.00  0.00    +0.046 C 
ATOM     16  C   UNL     1       1.321   2.978   1.394  0.00  0.00    +0.163 C 
ATOM     17  O   UNL     1       1.452   3.032   2.600  0.00  0.00    -0.292 OA
ATOM     18  C   UNL     1       2.513   3.225   0.510  0.00  0.00    +0.080 C 
ATOM     19  C   UNL     1       2.030   3.782  -0.834  0.00  0.00    +0.016 C 
ATOM     20  C   UNL     1       1.032   2.793  -1.438  0.00  0.00    +0.075 C 
BRANCH  12  21
ATOM     21  N   UNL     1      -3.308   1.073  -0.881  0.00  0.00    -0.328 N 
ATOM     22  H   UNL     1      -3.991   0.635  -0.349  0.00  0.00    +0.145 HD
ATOM     23  H   UNL     1      -3.355   1.044  -1.850  0.00  0.00    +0.145 HD
ENDBRANCH  12  21
BRANCH  11  24
ATOM     24  C   UNL     1      -3.243   1.115   1.857  0.00  0.00    +0.101 C 
ATOM     25  N   UNL     1      -4.053   0.600   2.465  0.00  0.00    -0.191 NA
ENDBRANCH  11  24
ENDBRANCH   2  10
BRANCH   6  26
ATOM     26  O   UNL     1      -1.472   5.839   5.309  0.00  0.00    -0.491 OA
ATOM     27  C   UNL     1      -0.324   6.670   5.494  0.00  0.00    +0.277 C 
ENDBRANCH   6  26
BRANCH   3  28
ATOM     28  O   UNL     1      -2.587   4.241   0.171  0.00  0.00    -0.491 OA
ATOM     29  C   UNL     1      -3.938   3.879  -0.120  0.00  0.00    +0.277 C 
ENDBRANCH   3  28
BRANCH   1  30
ATOM     30  C   UNL     1      -0.509   3.318   4.490  0.00  0.00    +0.058 C 
BRANCH  30  32
ATOM     31  C   UNL     1      -0.649   1.799   6.469  0.00  0.00    +0.025 C 
ATOM     32  C   UNL     1      -1.460   2.567   5.423  0.00  0.00    +0.082 C 
ATOM     33 CL   UNL     1      -2.453   1.407   4.463  0.00  0.00    -0.122 Cl
ENDBRANCH  30  32
ENDBRANCH   1  30
TORSDOF 7
