REMARK  Name = ZINC10028713
REMARK  6 active torsions:
REMARK  status: ('A' for Active; 'I' for Inactive)
REMARK    1  A    between atoms: C_6  and  C_7
REMARK    2  A    between atoms: C_16  and  C_18
REMARK    3  A    between atoms: C_18  and  S_19
REMARK    4  A    between atoms: S_19  and  C_20
REMARK    5  A    between atoms: N_25  and  C_26
REMARK    6  A    between atoms: C_26  and  C_27
REMARK                            x       y       z     vdW  Elec       q    Type
REMARK                         _______ _______ _______ _____ _____    ______ ____
ROOT
ATOM      1  C   UNL     1      -1.270  -0.765   0.011  0.00  0.00    +0.004 A 
ATOM      2  C   UNL     1      -2.240  -0.478   0.911  0.00  0.00    +0.056 A 
ATOM      3  S   UNL     1      -3.530  -1.642   0.514  0.00  0.00    -0.076 S 
ATOM      4  C   UNL     1      -2.744  -2.480  -0.838  0.00  0.00    +0.116 A 
ATOM      5  C   UNL     1      -1.503  -1.833  -0.954  0.00  0.00    +0.080 A 
ATOM      6  C   UNL     1      -0.647  -2.317  -1.994  0.00  0.00    +0.260 A 
ATOM      7  O   UNL     1       0.453  -1.823  -2.170  0.00  0.00    -0.267 OA
ATOM      8  N   UNL     1      -1.075  -3.327  -2.775  0.00  0.00    -0.310 N 
ATOM      9  H   UNL     1      -0.499  -3.659  -3.481  0.00  0.00    +0.170 HD
ATOM     10  C   UNL     1      -2.296  -3.890  -2.592  0.00  0.00    +0.121 A 
ATOM     11  N   UNL     1      -3.096  -3.477  -1.646  0.00  0.00    -0.226 NA
ENDROOT
BRANCH   1  17
ATOM     12  C   UNL     1      -0.017   1.390   0.010  0.00  0.00    +0.010 A 
ATOM     13  C   UNL     1       1.170   2.094   0.002  0.00  0.00    +0.020 A 
ATOM     14  C   UNL     1       2.378   1.418  -0.013  0.00  0.00    +0.041 A 
ATOM     15  C   UNL     1       2.403   0.034  -0.021  0.00  0.00    +0.020 A 
ATOM     16  C   UNL     1       1.222  -0.680  -0.013  0.00  0.00    +0.010 A 
ATOM     17  C   UNL     1       0.002  -0.004   0.002  0.00  0.00    -0.016 A 
ATOM     18 CL   UNL     1       3.868   2.309  -0.024  0.00  0.00    -0.084 Cl
ENDBRANCH   1  17
BRANCH  10  19
ATOM     19  C   UNL     1      -2.733  -5.019  -3.490  0.00  0.00    +0.150 C 
BRANCH  19  20
ATOM     20  S   UNL     1      -4.396  -5.564  -3.011  0.00  0.00    -0.089 S 
BRANCH  20  21
ATOM     21  C   UNL     1      -4.758  -6.869  -4.139  0.00  0.00    +0.160 A 
ATOM     22  N   UNL     1      -4.015  -7.364  -5.111  0.00  0.00    -0.133 NA
ATOM     23  N   UNL     1      -4.497  -8.396  -5.881  0.00  0.00    -0.125 NA
ATOM     24  C   UNL     1      -5.699  -8.886  -5.646  0.00  0.00    +0.182 A 
ATOM     25  S   UNL     1      -6.225  -7.880  -4.267  0.00  0.00    -0.025 S 
ATOM     26  N   UNL     1      -6.373  -9.915  -6.294  0.00  0.00    -0.320 N 
ATOM     27  H   UNL     1      -7.264 -10.168  -6.005  0.00  0.00    +0.148 HD
BRANCH  26  28
ATOM     28  C   UNL     1      -5.738 -10.617  -7.412  0.00  0.00    +0.135 C 
BRANCH  28  29
ATOM     29  C   UNL     1      -6.686 -11.694  -7.941  0.00  0.00    +0.135 C 
ATOM     30  C   UNL     1      -5.981 -12.519  -9.040  0.00  0.00    +0.035 C 
ATOM     31  C   UNL     1      -7.122 -12.740 -10.070  0.00  0.00    +0.031 C 
ATOM     32  C   UNL     1      -7.906 -11.411  -9.930  0.00  0.00    +0.160 C 
ATOM     33  O   UNL     1      -7.838 -11.081  -8.531  0.00  0.00    -0.375 OA
ENDBRANCH  28  29
ENDBRANCH  26  28
ENDBRANCH  20  21
ENDBRANCH  19  20
ENDBRANCH  10  19
TORSDOF 6
