REMARK  Name = ZINC12445878
REMARK  6 active torsions:
REMARK  status: ('A' for Active; 'I' for Inactive)
REMARK    1  A    between atoms: C_1  and  C_2
REMARK    2  A    between atoms: C_7  and  N_8
REMARK    3  A    between atoms: C_11  and  C_18
REMARK    4  A    between atoms: C_13  and  C_16
REMARK    5  A    between atoms: C_14  and  N_15
REMARK    6  A    between atoms: C_21  and  N_23
REMARK                            x       y       z     vdW  Elec       q    Type
REMARK                         _______ _______ _______ _____ _____    ______ ____
ROOT
ATOM      1  N   UNL     1      -2.513   3.881   0.022  0.00  0.00    -0.260 N 
ATOM      2  C   UNL     1      -1.306   3.233   0.009  0.00  0.00    +0.024 C 
ATOM      3  C   UNL     1      -1.249   1.884   0.018  0.00  0.00    +0.026 C 
ATOM      4  C   UNL     1      -2.509   1.056   0.061  0.00  0.00    +0.104 C 
ATOM      5  C   UNL     1      -3.702   1.866  -0.351  0.00  0.00    +0.077 C 
ATOM      6  C   UNL     1      -3.663   3.223  -0.352  0.00  0.00    +0.107 C 
ATOM      7  C   UNL     1      -0.014   1.211   0.009  0.00  0.00    +0.162 C 
ATOM      8  O   UNL     1       0.002  -0.004   0.002  0.00  0.00    -0.292 OA
ATOM      9  C   UNL     1       1.286   1.967   0.000  0.00  0.00    +0.080 C 
ATOM     10  C   UNL     1       1.081   3.319   0.692  0.00  0.00    +0.014 C 
ATOM     11  C   UNL     1      -0.047   4.064  -0.026  0.00  0.00    +0.052 C 
ENDROOT
BRANCH   1  18
ATOM     12  C   UNL     1      -2.936   4.449   2.778  0.00  0.00    +0.046 C 
ATOM     13  C   UNL     1      -2.782   5.544   1.753  0.00  0.00    -0.028 A 
ATOM     14  C   UNL     1      -2.845   6.868   2.142  0.00  0.00    +0.020 A 
ATOM     15  C   UNL     1      -2.703   7.873   1.202  0.00  0.00    +0.018 A 
ATOM     16  C   UNL     1      -2.499   7.555  -0.130  0.00  0.00    +0.017 A 
ATOM     17  C   UNL     1      -2.431   6.233  -0.523  0.00  0.00    +0.025 A 
ATOM     18  C   UNL     1      -2.577   5.222   0.418  0.00  0.00    +0.043 A 
ATOM     19 BR   UNL     1      -2.788   9.685   1.737  0.00  0.00    -0.050 Br
ENDBRANCH   1  18
BRANCH   4  20
ATOM     20  C   UNL     1      -2.721   0.542   1.462  0.00  0.00    +0.005 A 
ATOM     21  C   UNL     1      -2.771  -0.739   1.903  0.00  0.00    +0.014 A 
ATOM     22  C   UNL     1      -2.975  -0.977   3.249  0.00  0.00    +0.041 A 
ATOM     23  C   UNL     1      -3.129   0.077   4.087  0.00  0.00    +0.164 A 
ATOM     24  S   UNL     1      -2.979   1.462   2.970  0.00  0.00    -0.068 S 
BRANCH  23  25
ATOM     25  N   UNL     1      -3.362   0.080   5.549  0.00  0.00    +0.063 N 
ATOM     26  O   UNL     1      -3.436  -0.973   6.156  0.00  0.00    -0.126 OA
ATOM     27  O   UNL     1      -3.478   1.136   6.145  0.00  0.00    -0.126 OA
ENDBRANCH  23  25
ENDBRANCH   4  20
BRANCH   6  28
ATOM     28  N   UNL     1      -4.773   3.942  -0.726  0.00  0.00    -0.345 N 
ATOM     29  H   UNL     1      -4.746   4.911  -0.727  0.00  0.00    +0.144 HD
ATOM     30  H   UNL     1      -5.584   3.479  -0.990  0.00  0.00    +0.144 HD
ENDBRANCH   6  28
BRANCH   5  31
ATOM     31  C   UNL     1      -4.903   1.196  -0.751  0.00  0.00    +0.099 C 
ATOM     32  N   UNL     1      -5.856   0.664  -1.069  0.00  0.00    -0.191 NA
ENDBRANCH   5  31
TORSDOF 5
