REMARK  Name = ZINC04875400
REMARK  7 active torsions:
REMARK  status: ('A' for Active; 'I' for Inactive)
REMARK    1  A    between atoms: C_4  and  C_7
REMARK    2  A    between atoms: C_7  and  C_8
REMARK    3  A    between atoms: C_8  and  N_9
REMARK    4  A    between atoms: C_10  and  C_14
REMARK    5  A    between atoms: C_14  and  C_16
REMARK    6  A    between atoms: C_14  and  N_55
REMARK    7  A    between atoms: C_25  and  C_28
REMARK                            x       y       z     vdW  Elec       q    Type
REMARK                         _______ _______ _______ _____ _____    ______ ____
ROOT
ATOM      1  C   UNL     1       3.512   0.638  -0.028  0.00  0.00    +0.033 C 
ENDROOT
BRANCH   1   2
ATOM      2  C   UNL     1       4.027   0.263   1.338  0.00  0.00    -0.054 A 
ATOM      3  C   UNL     1       4.061  -1.064   1.723  0.00  0.00    +0.004 A 
ATOM      4  C   UNL     1       4.538  -1.409   2.974  0.00  0.00    +0.020 A 
ATOM      5  C   UNL     1       4.972  -0.425   3.844  0.00  0.00    +0.041 A 
ATOM      6  C   UNL     1       4.933   0.904   3.460  0.00  0.00    +0.020 A 
ATOM      7  C   UNL     1       4.460   1.247   2.207  0.00  0.00    +0.004 A 
ATOM      8 CL   UNL     1       5.566  -0.857   5.417  0.00  0.00    -0.084 Cl
ENDBRANCH   1   2
BRANCH   1  14
ATOM      9  C   UNL     1       5.458  -0.434  -0.988  0.00  0.00    -0.077 C 
ATOM     10  C   UNL     1       5.913  -1.556  -1.924  0.00  0.00    -0.006 C 
ATOM     11  C   UNL     1       5.431  -1.256  -3.346  0.00  0.00    +0.071 C 
ATOM     12  C   UNL     1       3.906  -1.111  -3.339  0.00  0.00    -0.006 C 
ATOM     13  C   UNL     1       3.509  -0.001  -2.362  0.00  0.00    -0.077 C 
ATOM     14  N   UNL     1       3.982  -0.362  -1.009  0.00  0.00    +0.389 N 
ATOM     15  H   UNL     1       3.600  -1.281  -0.757  0.00  0.00    -0.080 HD
BRANCH  11  16
ATOM     16  C   UNL     1       5.824  -2.386  -4.261  0.00  0.00    +0.213 C 
ATOM     17  O   UNL     1       4.971  -3.014  -4.851  0.00  0.00    -0.276 OA
ATOM     18  N   UNL     1       7.125  -2.700  -4.425  0.00  0.00    -0.329 N 
ATOM     19  H   UNL     1       7.808  -2.197  -3.953  0.00  0.00    +0.145 HD
ATOM     20  H   UNL     1       7.379  -3.427  -5.014  0.00  0.00    +0.145 HD
ENDBRANCH  11  16
ENDBRANCH   1  14
BRANCH   1  22
ATOM     21  N   UNL     1       1.200   1.716  -0.000  0.00  0.00    -0.230 N 
ATOM     22  C   UNL     1       2.005   0.637  -0.014  0.00  0.00    +0.142 A 
ATOM     23  N   UNL     1       1.223  -0.415  -0.012  0.00  0.00    -0.115 NA
ATOM     24  N   UNL     1       0.002  -0.004   0.002  0.00  0.00    -0.023 NA
ATOM     25  N   UNL     1      -0.015   1.283   0.009  0.00  0.00    -0.044 NA
BRANCH  21  26
ATOM     26  C   UNL     1       1.625   3.118   0.003  0.00  0.00    +0.152 C 
BRANCH  26  27
ATOM     27  C   UNL     1       1.787   3.599   1.446  0.00  0.00    +0.058 C 
BRANCH  27  31
ATOM     28  C   UNL     1       3.025   7.687   1.456  0.00  0.00    +0.000 A 
ATOM     29  C   UNL     1       1.679   7.372   1.467  0.00  0.00    +0.000 A 
ATOM     30  C   UNL     1       1.278   6.049   1.464  0.00  0.00    +0.004 A 
ATOM     31  C   UNL     1       2.224   5.041   1.450  0.00  0.00    -0.046 A 
ATOM     32  C   UNL     1       3.570   5.355   1.444  0.00  0.00    +0.004 A 
ATOM     33  C   UNL     1       3.970   6.678   1.441  0.00  0.00    +0.000 A 
ENDBRANCH  27  31
ENDBRANCH  26  27
ENDBRANCH  21  26
ENDBRANCH   1  22
TORSDOF 7
