REMARK  Name = ZINC05146018
REMARK  9 active torsions:
REMARK  status: ('A' for Active; 'I' for Inactive)
REMARK    1  A    between atoms: C_1  and  C_2
REMARK    2  A    between atoms: C_2  and  O_3
REMARK    3  A    between atoms: O_3  and  C_4
REMARK    4  A    between atoms: C_7  and  C_9
REMARK    5  A    between atoms: C_13  and  N_14
REMARK    6  A    between atoms: C_15  and  C_17
REMARK    7  A    between atoms: C_20  and  C_24
REMARK    8  A    between atoms: C_22  and  C_23
REMARK    9  A    between atoms: C_26  and  C_30
REMARK                            x       y       z     vdW  Elec       q    Type
REMARK                         _______ _______ _______ _____ _____    ______ ____
ROOT
ATOM      1  C   UNL     1      -0.360  -4.357  -0.150  0.00  0.00    +0.069 A 
ATOM      2  C   UNL     1      -0.089  -2.990  -0.560  0.00  0.00    -0.023 A 
ATOM      3  C   UNL     1      -1.161  -2.297  -0.999  0.00  0.00    -0.004 A 
ATOM      4  S   UNL     1      -2.515  -3.431  -0.875  0.00  0.00    -0.077 S 
ATOM      5  C   UNL     1      -1.670  -4.808  -0.248  0.00  0.00    +0.085 A 
ATOM      6  C   UNL     1      -1.185  -0.880  -1.484  0.00  0.00    +0.046 C 
ATOM      7  C   UNL     1       0.259  -0.441  -1.764  0.00  0.00    -0.009 C 
ATOM      8  C   UNL     1       1.133  -0.829  -0.567  0.00  0.00    +0.008 C 
ATOM      9  C   UNL     1       1.293  -2.349  -0.512  0.00  0.00    +0.037 C 
ATOM     10  C   UNL     1       0.305   1.076  -1.961  0.00  0.00    +0.008 C 
ENDROOT
BRANCH   1  14
ATOM     11  C   UNL     1       2.390  -6.796  -0.054  0.00  0.00    +0.407 C 
ATOM     12  O   UNL     1       2.645  -6.826   1.134  0.00  0.00    -0.226 OA
ATOM     13  N   UNL     1       1.407  -5.995  -0.511  0.00  0.00    -0.217 N 
ATOM     14  C   UNL     1       0.708  -5.228   0.348  0.00  0.00    +0.255 C 
ATOM     15  O   UNL     1       0.964  -5.258   1.537  0.00  0.00    -0.270 OA
ATOM     16  H   UNL     1       1.203  -5.971  -1.459  0.00  0.00    +0.161 HD
BRANCH  11  17
ATOM     17  O   UNL     1       3.088  -7.563  -0.912  0.00  0.00    -0.450 OA
BRANCH  17  19
ATOM     18  C   UNL     1       4.809  -9.193  -1.468  0.00  0.00    +0.048 C 
ATOM     19  C   UNL     1       4.131  -8.400  -0.348  0.00  0.00    +0.230 C 
ENDBRANCH  17  19
ENDBRANCH  11  17
ENDBRANCH   1  14
BRANCH   5  20
ATOM     20  N   UNL     1      -2.178  -6.055   0.076  0.00  0.00    -0.275 N 
ATOM     21  C   UNL     1      -3.490  -6.312  -0.088  0.00  0.00    +0.249 C 
ATOM     22  O   UNL     1      -4.229  -5.449  -0.520  0.00  0.00    -0.270 OA
ATOM     23  H   UNL     1      -1.588  -6.744   0.421  0.00  0.00    +0.156 HD
BRANCH  21  24
ATOM     24  C   UNL     1      -4.032  -7.643   0.258  0.00  0.00    +0.040 A 
ATOM     25  C   UNL     1      -3.170  -8.676   0.630  0.00  0.00    +0.013 A 
ATOM     26  C   UNL     1      -3.682  -9.914   0.957  0.00  0.00    +0.004 A 
ATOM     27  C   UNL     1      -5.047 -10.137   0.906  0.00  0.00    -0.050 A 
ATOM     28  C   UNL     1      -5.907  -9.119   0.532  0.00  0.00    +0.007 A 
ATOM     29  C   UNL     1      -5.408  -7.874   0.208  0.00  0.00    -0.038 A 
ATOM     30  C   UNL     1      -6.346  -6.767  -0.198  0.00  0.00    +0.044 C 
ATOM     31  C   UNL     1      -5.599 -11.494   1.258  0.00  0.00    +0.044 C 
ENDBRANCH  21  24
ENDBRANCH   5  20
TORSDOF 5
