REMARK  Name = ZINC63362160
REMARK  5 active torsions:
REMARK  status: ('A' for Active; 'I' for Inactive)
REMARK    1  A    between atoms: C_1  and  C_2
REMARK    2  A    between atoms: C_5  and  N_8
REMARK    3  A    between atoms: C_9  and  C_11
REMARK    4  A    between atoms: C_16  and  N_17
REMARK    5  A    between atoms: C_20  and  C_36
REMARK                            x       y       z     vdW  Elec       q    Type
REMARK                         _______ _______ _______ _____ _____    ______ ____
ROOT
ATOM      1  N   UNL     1      -1.021  -4.167   6.082  0.00  0.00    -0.192 N 
ATOM      2  C   UNL     1       0.293  -4.180   6.386  0.00  0.00    +0.253 C 
ATOM      3  O   UNL     1       0.999  -3.224   6.623  0.00  0.00    -0.272 OA
ATOM      4  C   UNL     1       0.703  -5.637   6.370  0.00  0.00    +0.137 C 
ATOM      5  C   UNL     1       1.768  -5.872   5.292  0.00  0.00    +0.139 C 
ATOM      6  C   UNL     1       1.725  -7.359   4.960  0.00  0.00    -0.034 C 
ATOM      7  C   UNL     1       2.950  -7.827   5.181  0.00  0.00    -0.001 A 
ATOM      8  C   UNL     1       3.535  -9.163   4.985  0.00  0.00    +0.010 A 
ATOM      9  C   UNL     1       4.843  -9.300   5.330  0.00  0.00    +0.001 A 
ATOM     10  C   UNL     1       5.617  -8.254   5.844  0.00  0.00    +0.002 A 
ATOM     11  C   UNL     1       5.161  -6.993   6.052  0.00  0.00    +0.026 A 
ATOM     12  C   UNL     1       3.800  -6.725   5.723  0.00  0.00    +0.043 A 
ATOM     13  N   UNL     1       3.115  -5.609   5.805  0.00  0.00    -0.375 N 
ATOM     14  C   UNL     1       0.466  -8.078   4.539  0.00  0.00    +0.052 C 
ATOM     15  C   UNL     1      -0.615  -7.755   5.590  0.00  0.00    +0.115 C 
ATOM     16  N   UNL     1      -0.525  -6.329   5.918  0.00  0.00    -0.268 N 
ATOM     17  C   UNL     1      -1.488  -5.400   5.848  0.00  0.00    +0.317 C 
ATOM     18  O   UNL     1      -2.651  -5.648   5.597  0.00  0.00    -0.252 OA
ATOM     19  C   UNL     1       1.158  -6.118   7.749  0.00  0.00    +0.044 C 
ATOM     20  H   UNL     1       3.435  -4.759   6.146  0.00  0.00    +0.160 HD
ENDROOT
BRANCH   1  26
ATOM     21  C   UNL     1      -1.926  -2.304   4.820  0.00  0.00    +0.059 A 
ATOM     22  C   UNL     1      -2.713  -1.151   4.774  0.00  0.00    +0.015 A 
ATOM     23  C   UNL     1      -3.356  -0.712   5.911  0.00  0.00    +0.001 A 
ATOM     24  C   UNL     1      -3.225  -1.408   7.101  0.00  0.00    +0.002 A 
ATOM     25  C   UNL     1      -2.451  -2.550   7.161  0.00  0.00    +0.025 A 
ATOM     26  C   UNL     1      -1.801  -3.009   6.024  0.00  0.00    +0.058 A 
BRANCH  21  28
ATOM     27  N   UNL     1      -1.358  -2.098   2.449  0.00  0.00    -0.308 N 
ATOM     28  C   UNL     1      -1.235  -2.779   3.606  0.00  0.00    +0.246 C 
ATOM     29  O   UNL     1      -0.555  -3.786   3.648  0.00  0.00    -0.270 OA
ATOM     30  H   UNL     1      -1.901  -1.294   2.415  0.00  0.00    +0.149 HD
BRANCH  27  35
ATOM     31  C   UNL     1      -0.019   1.526   0.010  0.00  0.00    +0.007 C 
ATOM     32  C   UNL     1       0.002  -0.004   0.002  0.00  0.00    -0.014 C 
ATOM     33  C   UNL     1      -1.433  -0.534   0.013  0.00  0.00    +0.005 C 
ATOM     34  C   UNL     1      -1.413  -2.063   0.004  0.00  0.00    +0.022 C 
ATOM     35  C   UNL     1      -0.673  -2.570   1.244  0.00  0.00    +0.073 C 
ATOM     36  C   UNL     1       0.763  -2.041   1.233  0.00  0.00    +0.022 C 
ATOM     37  C   UNL     1       0.742  -0.511   1.242  0.00  0.00    +0.005 C 
ENDBRANCH  27  35
ENDBRANCH  21  28
ENDBRANCH   1  26
TORSDOF 3
