REMARK  Name = ZINC39393960
REMARK  7 active torsions:
REMARK  status: ('A' for Active; 'I' for Inactive)
REMARK    1  A    between atoms: C_1  and  O_2
REMARK    2  A    between atoms: O_2  and  C_3
REMARK    3  A    between atoms: C_3  and  C_5
REMARK    4  A    between atoms: N_11  and  C_26
REMARK    5  A    between atoms: C_18  and  O_20
REMARK    6  A    between atoms: O_20  and  C_21
REMARK    7  A    between atoms: C_26  and  C_27
REMARK                            x       y       z     vdW  Elec       q    Type
REMARK                         _______ _______ _______ _____ _____    ______ ____
ROOT
ATOM      1  C   UNL     1       0.657  -2.104  -1.120  0.00  0.00    +0.147 C 
ATOM      2  C   UNL     1       1.391  -2.523  -2.391  0.00  0.00    +0.090 C 
ATOM      3  C   UNL     1       0.618  -2.093  -3.617  0.00  0.00    +0.005 C 
ATOM      4  C   UNL     1       1.573  -1.853  -4.790  0.00  0.00    -0.076 C 
ATOM      5  N   UNL     1       1.941  -3.032  -5.458  0.00  0.00    +0.383 N 
ATOM      6  C   UNL     1       2.726  -3.944  -4.604  0.00  0.00    -0.059 C 
ATOM      7  C   UNL     1       1.821  -4.714  -3.672  0.00  0.00    +0.089 C 
ATOM      8  N   UNL     1       1.587  -3.983  -2.416  0.00  0.00    -0.299 N 
ATOM      9  C   UNL     1       1.587  -4.712  -1.290  0.00  0.00    +0.218 C 
ATOM     10  O   UNL     1       1.838  -5.894  -1.388  0.00  0.00    -0.276 OA
ATOM     11  C   UNL     1       1.302  -4.176   0.078  0.00  0.00    +0.128 C 
ATOM     12  C   UNL     1       1.421  -2.652   0.093  0.00  0.00    +0.143 C 
ATOM     13  H   UNL     1       1.105  -3.509  -5.762  0.00  0.00    -0.081 HD
ENDROOT
BRANCH   1  14
ATOM     14  C   UNL     1       0.598  -0.600  -1.043  0.00  0.00    +0.314 C 
ATOM     15  O   UNL     1       1.088   0.070  -1.921  0.00  0.00    -0.250 OA
BRANCH  14  17
ATOM     16  C   UNL     1      -0.017   1.425   0.010  0.00  0.00    +0.280 C 
ATOM     17  O   UNL     1       0.002  -0.004   0.002  0.00  0.00    -0.468 OA
ENDBRANCH  14  17
ENDBRANCH   1  14
BRANCH  12  18
ATOM     18  O   UNL     1       0.854  -2.131   1.296  0.00  0.00    -0.372 OA
BRANCH  18  19
ATOM     19  C   UNL     1       1.790  -1.988   2.366  0.00  0.00    +0.119 C 
ATOM     20  C   UNL     1       1.786  -3.256   3.245  0.00  0.00    +0.031 C 
ATOM     21  C   UNL     1       1.974  -2.719   4.686  0.00  0.00    +0.003 C 
ATOM     22  C   UNL     1       1.134  -1.418   4.678  0.00  0.00    +0.003 C 
ATOM     23  C   UNL     1       1.376  -0.820   3.277  0.00  0.00    +0.031 C 
ENDBRANCH  18  19
ENDBRANCH  12  18
BRANCH   5  24
ATOM     24  C   UNL     1       2.740  -2.680  -6.638  0.00  0.00    -0.041 C 
BRANCH  24  25
ATOM     25  C   UNL     1       3.039  -3.926  -7.433  0.00  0.00    -0.039 A 
ATOM     26  C   UNL     1       2.135  -4.600  -8.368  0.00  0.00    +0.001 A 
ATOM     27  C   UNL     1       0.831  -4.357  -8.803  0.00  0.00    +0.010 A 
ATOM     28  C   UNL     1       0.251  -5.198  -9.710  0.00  0.00    +0.001 A 
ATOM     29  C   UNL     1       0.947  -6.293 -10.203  0.00  0.00    +0.002 A 
ATOM     30  C   UNL     1       2.235  -6.552  -9.786  0.00  0.00    +0.026 A 
ATOM     31  C   UNL     1       2.845  -5.709  -8.864  0.00  0.00    +0.047 A 
ATOM     32  N   UNL     1       4.086  -5.696  -8.267  0.00  0.00    -0.360 N 
ATOM     33  C   UNL     1       4.185  -4.624  -7.422  0.00  0.00    +0.085 A 
ATOM     34  H   UNL     1       4.787  -6.348  -8.424  0.00  0.00    +0.165 HD
ENDBRANCH  24  25
ENDBRANCH   5  24
TORSDOF 6
