REMARK  Name = ZINC03332873
REMARK  7 active torsions:
REMARK  status: ('A' for Active; 'I' for Inactive)
REMARK    1  A    between atoms: C_1  and  C_2
REMARK    2  A    between atoms: C_15  and  C_17
REMARK    3  A    between atoms: C_17  and  S_18
REMARK    4  A    between atoms: S_18  and  C_19
REMARK    5  A    between atoms: C_22  and  C_31
REMARK    6  A    between atoms: N_23  and  C_24
REMARK    7  A    between atoms: C_24  and  C_25
REMARK                            x       y       z     vdW  Elec       q    Type
REMARK                         _______ _______ _______ _____ _____    ______ ____
ROOT
ATOM      1  S   UNL     1      -3.547  -5.276   1.234  0.00  0.00    -0.078 S 
ENDROOT
BRANCH   1   2
ATOM      2  C   UNL     1      -4.978  -6.177   1.732  0.00  0.00    +0.193 A 
ATOM      3  N   UNL     1      -6.121  -5.665   2.129  0.00  0.00    -0.122 NA
ATOM      4  N   UNL     1      -6.949  -6.604   2.417  0.00  0.00    -0.125 NA
ATOM      5  C   UNL     1      -6.386  -7.776   2.220  0.00  0.00    +0.201 A 
ATOM      6  N   UNL     1      -5.106  -7.537   1.770  0.00  0.00    -0.295 N 
BRANCH   5   7
ATOM      7  C   UNL     1      -7.006  -9.093   2.435  0.00  0.00    +0.172 A 
ATOM      8  C   UNL     1      -8.337  -9.333   2.602  0.00  0.00    +0.053 A 
ATOM      9  C   UNL     1      -8.479 -10.723   2.773  0.00  0.00    +0.042 A 
ATOM     10  C   UNL     1      -7.244 -11.258   2.712  0.00  0.00    +0.196 A 
ATOM     11  O   UNL     1      -6.356 -10.271   2.508  0.00  0.00    -0.460 OA
ENDBRANCH   5   7
BRANCH   6  12
ATOM     12  C   UNL     1      -4.093  -8.532   1.410  0.00  0.00    +0.161 C 
BRANCH  12  13
ATOM     13  C   UNL     1      -3.276  -8.881   2.627  0.00  0.00    -0.028 A 
ATOM     14  C   UNL     1      -2.129  -8.166   2.918  0.00  0.00    +0.005 A 
ATOM     15  C   UNL     1      -1.383  -8.483   4.037  0.00  0.00    +0.000 A 
ATOM     16  C   UNL     1      -1.777  -9.521   4.860  0.00  0.00    +0.000 A 
ATOM     17  C   UNL     1      -2.921 -10.239   4.567  0.00  0.00    +0.000 A 
ATOM     18  C   UNL     1      -3.671  -9.919   3.450  0.00  0.00    +0.005 A 
ENDBRANCH  12  13
ENDBRANCH   6  12
ENDBRANCH   1   2
BRANCH   1  19
ATOM     19  C   UNL     1      -4.152  -3.583   1.446  0.00  0.00    +0.151 C 
BRANCH  19  33
ATOM     20  C   UNL     1       3.546   2.093  -1.323  0.00  0.00    +0.008 C 
ATOM     21  C   UNL     1       2.193   1.398  -1.157  0.00  0.00    -0.009 C 
ATOM     22  C   UNL     1       1.421   2.037  -0.001  0.00  0.00    +0.008 C 
ATOM     23  C   UNL     1      -0.019   1.522   0.010  0.00  0.00    +0.037 C 
ATOM     24  C   UNL     1       0.002  -0.004   0.002  0.00  0.00    -0.023 A 
ATOM     25  C   UNL     1       1.113  -0.674  -0.386  0.00  0.00    -0.004 A 
ATOM     26  S   UNL     1       0.692  -2.393  -0.241  0.00  0.00    -0.073 S 
ATOM     27  C   UNL     1      -0.965  -2.210   0.337  0.00  0.00    +0.116 A 
ATOM     28  C   UNL     1      -1.139  -0.809   0.399  0.00  0.00    +0.075 A 
ATOM     29  C   UNL     1      -2.417  -0.330   0.844  0.00  0.00    +0.260 A 
ATOM     30  O   UNL     1      -2.668   0.860   0.933  0.00  0.00    -0.267 OA
ATOM     31  N   UNL     1      -3.325  -1.284   1.159  0.00  0.00    -0.310 N 
ATOM     32  H   UNL     1      -4.202  -1.004   1.465  0.00  0.00    +0.170 HD
ATOM     33  C   UNL     1      -3.065  -2.610   1.068  0.00  0.00    +0.121 A 
ATOM     34  N   UNL     1      -1.908  -3.088   0.665  0.00  0.00    -0.226 NA
ATOM     35  C   UNL     1       2.414  -0.088  -0.840  0.00  0.00    +0.046 C 
ENDBRANCH  19  33
ENDBRANCH   1  19
TORSDOF 6
