REMARK  Name = ZINC67129500
REMARK  13 active torsions:
REMARK  status: ('A' for Active; 'I' for Inactive)
REMARK    1  A    between atoms: C_1  and  C_2
REMARK    2  A    between atoms: C_4  and  C_26
REMARK    3  A    between atoms: C_6  and  C_25
REMARK    4  A    between atoms: C_7  and  C_8
REMARK    5  A    between atoms: C_8  and  C_9
REMARK    6  A    between atoms: C_9  and  N_10
REMARK    7  A    between atoms: C_11  and  C_13
REMARK    8  A    between atoms: C_13  and  N_14
REMARK    9  A    between atoms: C_16  and  O_24
REMARK   10  A    between atoms: C_19  and  C_21
REMARK   11  A    between atoms: C_26  and  C_27
REMARK   12  A    between atoms: C_26  and  C_28
REMARK   13  A    between atoms: C_26  and  C_29
REMARK                            x       y       z     vdW  Elec       q    Type
REMARK                         _______ _______ _______ _____ _____    ______ ____
ROOT
ATOM      1  N   UNL     1      -1.414   1.003   4.234  0.00  0.00    -0.317 N 
ATOM      2  C   UNL     1      -2.580   1.321   4.830  0.00  0.00    +0.196 C 
ATOM      3  O   UNL     1      -3.631   1.007   4.314  0.00  0.00    -0.278 OA
ATOM      4  H   UNL     1      -0.574   1.255   4.647  0.00  0.00    +0.149 HD
ENDROOT
BRANCH   1   5
ATOM      5  C   UNL     1      -1.416   0.278   2.961  0.00  0.00    +0.109 C 
BRANCH   5   6
ATOM      6  C   UNL     1       0.025   0.045   2.505  0.00  0.00    +0.054 C 
BRANCH   6  13
ATOM      7  C   UNL     1      -0.018   1.503   0.010  0.00  0.00    +0.044 C 
ATOM      8  C   UNL     1       0.002  -0.004   0.002  0.00  0.00    -0.047 A 
ATOM      9  C   UNL     1       0.006  -0.689  -1.199  0.00  0.00    +0.007 A 
ATOM     10  C   UNL     1       0.025  -2.071  -1.206  0.00  0.00    -0.041 A 
ATOM     11  C   UNL     1       0.040  -2.768  -0.013  0.00  0.00    +0.007 A 
ATOM     12  C   UNL     1       0.037  -2.084   1.188  0.00  0.00    -0.047 A 
ATOM     13  C   UNL     1       0.023  -0.702   1.195  0.00  0.00    -0.040 A 
ATOM     14  C   UNL     1       0.054  -2.844   2.489  0.00  0.00    +0.044 C 
BRANCH  10  15
ATOM     15  C   UNL     1       0.027  -2.817  -2.516  0.00  0.00    -0.013 C 
ATOM     16  C   UNL     1       1.267  -2.426  -3.323  0.00  0.00    +0.015 C 
ATOM     17  C   UNL     1       0.049  -4.323  -2.244  0.00  0.00    +0.015 C 
ATOM     18  C   UNL     1      -1.231  -2.460  -3.309  0.00  0.00    +0.015 C 
ENDBRANCH  10  15
ENDBRANCH   6  13
ENDBRANCH   5   6
ENDBRANCH   1   5
BRANCH   2  19
ATOM     19  C   UNL     1      -2.578   2.068   6.139  0.00  0.00    +0.020 C 
BRANCH  19  20
ATOM     20  N   UNL     1      -3.962   2.291   6.578  0.00  0.00    +0.395 N 
ATOM     21  C   UNL     1      -4.593   1.002   6.959  0.00  0.00    -0.045 C 
ATOM     22  C   UNL     1      -5.754   1.437   7.888  0.00  0.00    +0.097 C 
ATOM     23  C   UNL     1      -5.144   2.621   8.673  0.00  0.00    +0.023 C 
ATOM     24  C   UNL     1      -3.982   3.126   7.799  0.00  0.00    +0.022 C 
ATOM     25  H   UNL     1      -4.492   2.736   5.844  0.00  0.00    -0.080 HD
BRANCH  24  26
ATOM     26  C   UNL     1      -4.207   4.570   7.430  0.00  0.00    +0.197 C 
ATOM     27  O   UNL     1      -4.339   4.885   6.266  0.00  0.00    -0.278 OA
ATOM     28  N   UNL     1      -4.261   5.511   8.393  0.00  0.00    -0.331 N 
ATOM     29  H   UNL     1      -4.154   5.259   9.324  0.00  0.00    +0.145 HD
ATOM     30  H   UNL     1      -4.405   6.440   8.155  0.00  0.00    +0.145 HD
ENDBRANCH  24  26
BRANCH  22  31
ATOM     31  O   UNL     1      -6.120   0.375   8.772  0.00  0.00    -0.394 OA
ATOM     32  H   UNL     1      -6.842   0.596   9.375  0.00  0.00    +0.210 HD
ENDBRANCH  22  31
ENDBRANCH  19  20
ENDBRANCH   2  19
TORSDOF 8
