REMARK  Name = ZINC16525167
REMARK  4 active torsions:
REMARK  status: ('A' for Active; 'I' for Inactive)
REMARK    1  A    between atoms: N_10  and  N_11
REMARK    2  A    between atoms: C_12  and  C_14
REMARK    3  A    between atoms: C_19  and  N_20
REMARK    4  A    between atoms: C_21  and  C_23
REMARK                            x       y       z     vdW  Elec       q    Type
REMARK                         _______ _______ _______ _____ _____    ______ ____
ROOT
ATOM      1  C   UNL     1      -1.275  -0.838   0.373  0.00  0.00    +0.060 A 
ATOM      2  C   UNL     1      -2.494  -0.167   0.493  0.00  0.00    +0.015 A 
ATOM      3  C   UNL     1      -3.665  -0.798   0.132  0.00  0.00    +0.001 A 
ATOM      4  C   UNL     1      -3.640  -2.101  -0.341  0.00  0.00    +0.002 A 
ATOM      5  C   UNL     1      -2.444  -2.779  -0.460  0.00  0.00    +0.024 A 
ATOM      6  C   UNL     1      -1.254  -2.158  -0.105  0.00  0.00    +0.046 A 
ENDROOT
BRANCH   1   8
ATOM      7  N   UNL     1      -0.043   1.101   1.208  0.00  0.00    -0.202 N 
ATOM      8  C   UNL     1      -0.019  -0.168   0.753  0.00  0.00    +0.265 C 
ATOM      9  O   UNL     1       1.039  -0.758   0.655  0.00  0.00    -0.268 OA
ATOM     10  H   UNL     1      -0.887   1.573   1.283  0.00  0.00    +0.178 HD
BRANCH   7  20
ATOM     11  C   UNL     1       1.635   7.321   3.640  0.00  0.00    +0.001 A 
ATOM     12  C   UNL     1       0.261   7.346   3.499  0.00  0.00    +0.001 A 
ATOM     13  C   UNL     1      -0.413   6.234   3.023  0.00  0.00    +0.012 A 
ATOM     14  C   UNL     1       0.292   5.083   2.684  0.00  0.00    +0.035 A 
ATOM     15  C   UNL     1       1.691   5.059   2.828  0.00  0.00    +0.035 A 
ATOM     16  C   UNL     1       2.353   6.185   3.307  0.00  0.00    +0.012 A 
ATOM     17  C   UNL     1       2.196   3.731   2.403  0.00  0.00    +0.217 A 
ATOM     18  O   UNL     1       3.357   3.373   2.401  0.00  0.00    -0.285 OA
ATOM     19  C   UNL     1       1.033   2.922   1.984  0.00  0.00    +0.176 A 
ATOM     20  N   UNL     1       1.056   1.688   1.540  0.00  0.00    -0.172 NA
ATOM     21  C   UNL     1      -0.162   3.775   2.155  0.00  0.00    +0.217 A 
ATOM     22  O   UNL     1      -1.309   3.459   1.910  0.00  0.00    -0.285 OA
ENDBRANCH   7  20
ENDBRANCH   1   8
BRANCH   6  23
ATOM     23  N   UNL     1      -0.047  -2.840  -0.223  0.00  0.00    -0.281 N 
ATOM     24  C   UNL     1       0.040  -4.128   0.164  0.00  0.00    +0.248 C 
ATOM     25  O   UNL     1      -0.955  -4.720   0.533  0.00  0.00    -0.270 OA
ATOM     26  H   UNL     1       0.732  -2.389  -0.585  0.00  0.00    +0.155 HD
BRANCH  24  27
ATOM     27  C   UNL     1       1.346  -4.821   0.140  0.00  0.00    +0.038 A 
ATOM     28  C   UNL     1       1.439  -6.155   0.541  0.00  0.00    +0.013 A 
ATOM     29  C   UNL     1       2.660  -6.795   0.516  0.00  0.00    +0.002 A 
ATOM     30  C   UNL     1       3.792  -6.119   0.096  0.00  0.00    +0.015 A 
ATOM     31  C   UNL     1       3.707  -4.797  -0.303  0.00  0.00    +0.019 A 
ATOM     32  C   UNL     1       2.489  -4.145  -0.288  0.00  0.00    +0.028 A 
ATOM     33 BR   UNL     1       5.259  -3.882  -0.877  0.00  0.00    -0.050 Br
ENDBRANCH  24  27
ENDBRANCH   6  23
TORSDOF 4
