REMARK  Name = ZINC36005312
REMARK  10 active torsions:
REMARK  status: ('A' for Active; 'I' for Inactive)
REMARK    1  A    between atoms: C_1  and  C_2
REMARK    2  A    between atoms: C_2  and  C_3
REMARK    3  A    between atoms: N_9  and  C_12
REMARK    4  A    between atoms: C_12  and  C_13
REMARK    5  A    between atoms: C_14  and  C_30
REMARK    6  A    between atoms: C_15  and  C_22
REMARK    7  A    between atoms: N_20  and  C_21
REMARK    8  A    between atoms: C_30  and  O_32
REMARK    9  A    between atoms: O_32  and  C_33
REMARK   10  A    between atoms: C_33  and  C_34
REMARK                            x       y       z     vdW  Elec       q    Type
REMARK                         _______ _______ _______ _____ _____    ______ ____
ROOT
ATOM      1  C   UNL     1      -0.200  -4.214  -6.032  0.00  0.00    +0.041 C 
ATOM      2  C   UNL     1      -0.352  -5.466  -6.513  0.00  0.00    +0.080 C 
ATOM      3  C   UNL     1       0.627  -5.940  -7.568  0.00  0.00    +0.145 C 
ATOM      4  N   UNL     1       1.671  -4.989  -7.985  0.00  0.00    -0.288 N 
ATOM      5  C   UNL     1       1.693  -3.769  -7.411  0.00  0.00    +0.307 C 
ATOM      6  O   UNL     1       2.551  -2.977  -7.748  0.00  0.00    -0.252 OA
ATOM      7  N   UNL     1       0.799  -3.401  -6.486  0.00  0.00    -0.260 N 
ATOM      8  C   UNL     1       0.901  -2.052  -5.924  0.00  0.00    +0.139 C 
ATOM      9  H   UNL     1       2.326  -5.234  -8.656  0.00  0.00    +0.151 HD
ENDROOT
BRANCH   3  10
ATOM     10  C   UNL     1      -0.162  -6.329  -8.792  0.00  0.00    -0.003 A 
ATOM     11  C   UNL     1      -0.421  -5.391  -9.774  0.00  0.00    +0.007 A 
ATOM     12  C   UNL     1      -1.144  -5.747 -10.897  0.00  0.00    +0.002 A 
ATOM     13  C   UNL     1      -1.610  -7.041 -11.039  0.00  0.00    +0.021 A 
ATOM     14  C   UNL     1      -1.351  -7.981 -10.058  0.00  0.00    +0.060 A 
ATOM     15  C   UNL     1      -0.621  -7.626  -8.936  0.00  0.00    +0.064 A 
ATOM     16 CL   UNL     1      -0.289  -8.806  -7.707  0.00  0.00    -0.082 Cl
ATOM     17 CL   UNL     1      -1.935  -9.606 -10.236  0.00  0.00    -0.082 Cl
ENDBRANCH   3  10
BRANCH   2  18
ATOM     18  C   UNL     1      -1.389  -6.308  -6.048  0.00  0.00    +0.339 C 
ATOM     19  O   UNL     1      -1.159  -7.142  -5.192  0.00  0.00    -0.245 OA
BRANCH  18  20
ATOM     20  O   UNL     1      -2.635  -6.185  -6.552  0.00  0.00    -0.462 OA
BRANCH  20  21
ATOM     21  C   UNL     1      -3.657  -6.988  -5.958  0.00  0.00    +0.229 C 
ATOM     22  C   UNL     1      -4.964  -6.806  -6.733  0.00  0.00    +0.048 C 
ENDBRANCH  20  21
ENDBRANCH  18  20
ENDBRANCH   2  18
BRANCH   1  23
ATOM     23  C   UNL     1      -1.152  -3.703  -4.981  0.00  0.00    +0.136 C 
BRANCH  23  30
ATOM     24  C   UNL     1      -5.621  -1.722  -6.786  0.00  0.00    +0.215 C 
ATOM     25  O   UNL     1      -5.848  -2.601  -7.590  0.00  0.00    -0.276 OA
ATOM     26  N   UNL     1      -4.362  -1.269  -6.620  0.00  0.00    -0.300 N 
ATOM     27  C   UNL     1      -4.117  -0.203  -5.630  0.00  0.00    +0.109 C 
ATOM     28  C   UNL     1      -2.834  -0.472  -4.824  0.00  0.00    +0.034 C 
ATOM     29  C   UNL     1      -2.738  -1.946  -4.500  0.00  0.00    +0.086 C 
ATOM     30  N   UNL     1      -1.966  -2.617  -5.544  0.00  0.00    -0.295 NA
ATOM     31  C   UNL     1      -2.691  -3.060  -6.674  0.00  0.00    +0.103 C 
ATOM     32  C   UNL     1      -3.301  -1.853  -7.415  0.00  0.00    +0.123 C 
BRANCH  24  34
ATOM     33  C   UNL     1      -8.060  -1.820  -6.353  0.00  0.00    +0.013 C 
ATOM     34  C   UNL     1      -6.746  -1.135  -5.973  0.00  0.00    +0.092 C 
ENDBRANCH  24  34
ENDBRANCH  23  30
ENDBRANCH   1  23
TORSDOF 7
