REMARK  Name = ZINC32748090
REMARK  10 active torsions:
REMARK  status: ('A' for Active; 'I' for Inactive)
REMARK    1  A    between atoms: C_1  and  C_2
REMARK    2  A    between atoms: C_2  and  C_3
REMARK    3  A    between atoms: C_3  and  C_27
REMARK    4  A    between atoms: N_6  and  N_10
REMARK    5  A    between atoms: C_11  and  C_13
REMARK    6  A    between atoms: C_13  and  C_14
REMARK    7  A    between atoms: C_20  and  C_24
REMARK    8  A    between atoms: C_21  and  C_23
REMARK    9  A    between atoms: C_24  and  C_25
REMARK   10  A    between atoms: C_24  and  C_26
REMARK                            x       y       z     vdW  Elec       q    Type
REMARK                         _______ _______ _______ _____ _____    ______ ____
ROOT
ATOM      1  N   UNL     1       2.867   1.902   0.214  0.00  0.00    -0.223 N 
ATOM      2  C   UNL     1       3.190   1.331  -0.963  0.00  0.00    +0.234 C 
ATOM      3  O   UNL     1       2.456   1.456  -1.920  0.00  0.00    -0.274 OA
ATOM      4  H   UNL     1       3.533   1.788   1.082  0.00  0.00    +0.174 HD
ENDROOT
BRANCH   1   8
ATOM      5  C   UNL     1       0.164   4.338   0.511  0.00  0.00    +0.139 C 
ATOM      6  C   UNL     1       1.633   3.988   0.384  0.00  0.00    +0.268 C 
ATOM      7  O   UNL     1       2.569   4.757   0.340  0.00  0.00    -0.271 OA
ATOM      8  N   UNL     1       1.683   2.642   0.332  0.00  0.00    -0.137 N 
ATOM      9  C   UNL     1       0.462   2.099   0.407  0.00  0.00    +0.327 C 
ATOM     10  O   UNL     1       0.252   0.903   0.380  0.00  0.00    -0.251 OA
ATOM     11  N   UNL     1      -0.507   3.027   0.510  0.00  0.00    -0.280 N 
ATOM     12  H   UNL     1      -1.603   2.969   0.585  0.00  0.00    +0.152 HD
BRANCH   5  13
ATOM     13  C   UNL     1      -0.096   5.075   1.800  0.00  0.00    -0.015 A 
ATOM     14  C   UNL     1      -0.023   6.455   1.834  0.00  0.00    +0.006 A 
ATOM     15  C   UNL     1      -0.266   7.131   3.015  0.00  0.00    +0.000 A 
ATOM     16  C   UNL     1      -0.573   6.426   4.164  0.00  0.00    +0.000 A 
ATOM     17  C   UNL     1      -0.640   5.046   4.131  0.00  0.00    +0.000 A 
ATOM     18  C   UNL     1      -0.402   4.370   2.949  0.00  0.00    +0.006 A 
ENDBRANCH   5  13
BRANCH   5  20
ATOM     19  C   UNL     1      -0.186   4.337  -1.963  0.00  0.00    +0.007 C 
ATOM     20  C   UNL     1      -0.295   5.173  -0.686  0.00  0.00    +0.037 C 
ENDBRANCH   5  20
ENDBRANCH   1   8
BRANCH   2  21
ATOM     21  C   UNL     1       4.464   0.535  -1.090  0.00  0.00    +0.136 C 
BRANCH  21  22
ATOM     22  C   UNL     1       4.588   0.007  -2.496  0.00  0.00    +0.007 A 
ATOM     23  C   UNL     1       4.217  -1.203  -2.937  0.00  0.00    +0.200 A 
ATOM     24  O   UNL     1       4.478  -1.317  -4.251  0.00  0.00    -0.463 OA
ATOM     25  C   UNL     1       5.043  -0.190  -4.729  0.00  0.00    +0.135 A 
ATOM     26  C   UNL     1       5.147   0.712  -3.656  0.00  0.00    +0.024 A 
ATOM     27  C   UNL     1       5.699   1.976  -3.855  0.00  0.00    +0.016 A 
ATOM     28  C   UNL     1       6.143   2.335  -5.109  0.00  0.00    -0.041 A 
ATOM     29  C   UNL     1       6.040   1.446  -6.168  0.00  0.00    -0.044 A 
ATOM     30  C   UNL     1       5.495   0.193  -5.985  0.00  0.00    +0.050 A 
ATOM     31  C   UNL     1       6.528   1.854  -7.534  0.00  0.00    +0.044 C 
BRANCH  28  32
ATOM     32  C   UNL     1       6.741   3.700  -5.330  0.00  0.00    +0.013 C 
ATOM     33  C   UNL     1       5.667   4.769  -5.119  0.00  0.00    +0.012 C 
ATOM     34  C   UNL     1       7.884   3.923  -4.338  0.00  0.00    +0.012 C 
ENDBRANCH  28  32
ENDBRANCH  21  22
ENDBRANCH   2  21
TORSDOF 6
