REMARK  Name = ZINC21252519
REMARK  10 active torsions:
REMARK  status: ('A' for Active; 'I' for Inactive)
REMARK    1  A    between atoms: C_1  and  C_2
REMARK    2  A    between atoms: C_2  and  C_3
REMARK    3  A    between atoms: C_6  and  C_9
REMARK    4  A    between atoms: C_14  and  C_24
REMARK    5  A    between atoms: C_26  and  O_34
REMARK    6  A    between atoms: C_27  and  O_32
REMARK    7  A    between atoms: C_28  and  O_30
REMARK    8  A    between atoms: O_30  and  C_31
REMARK    9  A    between atoms: O_32  and  C_33
REMARK   10  A    between atoms: O_34  and  C_35
REMARK                            x       y       z     vdW  Elec       q    Type
REMARK                         _______ _______ _______ _____ _____    ______ ____
ROOT
ATOM      1  C   UNL     1       5.566  -2.721   4.873  0.00  0.00    +0.032 C 
ATOM      2  C   UNL     1       4.264  -3.514   4.782  0.00  0.00    +0.059 C 
ATOM      3  C   UNL     1       3.117  -2.691   5.346  0.00  0.00    +0.017 C 
ATOM      4  C   UNL     1       3.111  -1.354   5.215  0.00  0.00    +0.036 C 
ATOM      5  C   UNL     1       2.024  -0.421   5.691  0.00  0.00    +0.136 C 
ATOM      6  N   UNL     1       1.048  -1.036   6.567  0.00  0.00    -0.331 N 
ATOM      7  C   UNL     1       0.210  -2.052   6.110  0.00  0.00    +0.049 A 
ATOM      8  C   UNL     1      -1.161  -1.876   6.026  0.00  0.00    +0.025 A 
ATOM      9  C   UNL     1      -1.949  -2.897   5.524  0.00  0.00    +0.002 A 
ATOM     10  C   UNL     1      -1.374  -4.084   5.106  0.00  0.00    +0.002 A 
ATOM     11  C   UNL     1      -0.005  -4.269   5.205  0.00  0.00    +0.025 A 
ATOM     12  C   UNL     1       0.780  -3.257   5.726  0.00  0.00    +0.052 A 
ATOM     13  N   UNL     1       2.143  -3.417   5.951  0.00  0.00    -0.316 N 
ATOM     14  C   UNL     1       4.194  -0.695   4.586  0.00  0.00    +0.163 C 
ATOM     15  O   UNL     1       4.156   0.514   4.471  0.00  0.00    -0.292 OA
ATOM     16  C   UNL     1       5.387  -1.434   4.058  0.00  0.00    +0.088 C 
ATOM     17  H   UNL     1       0.960  -0.704   7.611  0.00  0.00    +0.147 HD
ATOM     18  H   UNL     1       2.411  -4.198   6.678  0.00  0.00    +0.152 HD
ENDROOT
BRANCH   1  22
ATOM     19  C   UNL     1       8.780  -5.024   3.255  0.00  0.00    -0.048 A 
ATOM     20  C   UNL     1       8.838  -4.579   4.563  0.00  0.00    +0.004 A 
ATOM     21  C   UNL     1       7.798  -3.834   5.086  0.00  0.00    +0.004 A 
ATOM     22  C   UNL     1       6.700  -3.533   4.302  0.00  0.00    -0.043 A 
ATOM     23  C   UNL     1       6.639  -3.982   2.996  0.00  0.00    +0.004 A 
ATOM     24  C   UNL     1       7.681  -4.723   2.471  0.00  0.00    +0.004 A 
BRANCH  19  26
ATOM     25  C   UNL     1       9.652  -7.322   2.932  0.00  0.00    +0.009 C 
ATOM     26  C   UNL     1       9.914  -5.835   2.684  0.00  0.00    +0.032 C 
ENDBRANCH  19  26
ENDBRANCH   1  22
BRANCH   5  27
ATOM     27  C   UNL     1       1.305   0.130   4.487  0.00  0.00    -0.016 A 
ATOM     28  C   UNL     1       0.618  -0.724   3.644  0.00  0.00    +0.055 A 
ATOM     29  C   UNL     1      -0.044  -0.222   2.534  0.00  0.00    +0.165 A 
ATOM     30  C   UNL     1      -0.017   1.143   2.270  0.00  0.00    +0.204 A 
ATOM     31  C   UNL     1       0.679   1.997   3.117  0.00  0.00    +0.165 A 
ATOM     32  C   UNL     1       1.334   1.487   4.228  0.00  0.00    +0.055 A 
BRANCH  31  33
ATOM     33  O   UNL     1       0.713   3.332   2.859  0.00  0.00    -0.491 OA
ATOM     34  C   UNL     1       1.527   4.137   3.715  0.00  0.00    +0.277 C 
ENDBRANCH  31  33
BRANCH  30  35
ATOM     35  O   UNL     1      -0.666   1.640   1.182  0.00  0.00    -0.488 OA
ATOM     36  C   UNL     1      -2.028   2.033   1.362  0.00  0.00    +0.277 C 
ENDBRANCH  30  35
BRANCH  29  37
ATOM     37  O   UNL     1      -0.719  -1.063   1.705  0.00  0.00    -0.491 OA
ATOM     38  C   UNL     1      -0.704  -2.452   2.038  0.00  0.00    +0.277 C 
ENDBRANCH  29  37
ENDBRANCH   5  27
TORSDOF 6
