REMARK  Name = ZINC31055970
REMARK  9 active torsions:
REMARK  status: ('A' for Active; 'I' for Inactive)
REMARK    1  A    between atoms: C_1  and  C_2
REMARK    2  A    between atoms: C_5  and  C_9
REMARK    3  A    between atoms: C_7  and  C_8
REMARK    4  A    between atoms: C_9  and  C_11
REMARK    5  A    between atoms: C_9  and  N_12
REMARK    6  A    between atoms: C_13  and  C_15
REMARK    7  A    between atoms: N_20  and  C_22
REMARK    8  A    between atoms: C_22  and  C_23
REMARK    9  A    between atoms: C_25  and  C_28
REMARK                            x       y       z     vdW  Elec       q    Type
REMARK                         _______ _______ _______ _____ _____    ______ ____
ROOT
ATOM      1  C   UNL     1       2.470  -6.466   1.990  0.00  0.00    +0.058 C 
ATOM      2  C   UNL     1       1.718  -6.538   3.322  0.00  0.00    +0.009 C 
ATOM      3  C   UNL     1       2.653  -7.099   4.397  0.00  0.00    -0.018 C 
ATOM      4  C   UNL     1       3.157  -8.476   3.960  0.00  0.00    -0.078 C 
ATOM      5  N   UNL     1       3.870  -8.354   2.681  0.00  0.00    +0.386 N 
ATOM      6  C   UNL     1       2.980  -7.861   1.622  0.00  0.00    -0.065 C 
ATOM      7  H   UNL     1       4.673  -7.614   2.815  0.00  0.00    -0.081 HD
ENDROOT
BRANCH   1   9
ATOM      8  N   UNL     1       0.964  -4.757   1.025  0.00  0.00    -0.309 N 
ATOM      9  C   UNL     1       1.539  -5.971   0.913  0.00  0.00    +0.215 C 
ATOM     10  O   UNL     1       1.308  -6.664  -0.055  0.00  0.00    -0.276 OA
ATOM     11  H   UNL     1       1.174  -4.128   1.903  0.00  0.00    +0.149 HD
BRANCH   8  12
ATOM     12  C   UNL     1       0.060  -4.275  -0.021  0.00  0.00    +0.100 C 
ATOM     13  C   UNL     1      -1.351  -4.806   0.240  0.00  0.00    +0.033 C 
BRANCH  12  18
ATOM     14  C   UNL     1      -0.018   1.503   0.010  0.00  0.00    +0.044 C 
ATOM     15  C   UNL     1       0.002  -0.004   0.002  0.00  0.00    -0.048 A 
ATOM     16  C   UNL     1       0.023  -0.702   1.196  0.00  0.00    +0.004 A 
ATOM     17  C   UNL     1       0.041  -2.084   1.188  0.00  0.00    +0.006 A 
ATOM     18  C   UNL     1       0.039  -2.768  -0.013  0.00  0.00    -0.027 A 
ATOM     19  C   UNL     1       0.018  -2.071  -1.206  0.00  0.00    +0.009 A 
ATOM     20  C   UNL     1      -0.006  -0.689  -1.199  0.00  0.00    -0.047 A 
ATOM     21  C   UNL     1      -0.035   0.072  -2.499  0.00  0.00    +0.044 C 
ENDBRANCH  12  18
ENDBRANCH   8  12
ENDBRANCH   1   9
BRANCH   5  22
ATOM     22  C   UNL     1       4.487  -9.631   2.299  0.00  0.00    +0.022 C 
BRANCH  22  23
ATOM     23  C   UNL     1       5.574  -9.978   3.284  0.00  0.00    +0.211 A 
ATOM     24  N   UNL     1       5.432 -10.669   4.387  0.00  0.00    -0.193 NA
ATOM     25  C   UNL     1       6.665 -10.729   4.939  0.00  0.00    +0.203 A 
ATOM     26  N   UNL     1       7.473 -10.069   4.151  0.00  0.00    -0.056 NA
ATOM     27  O   UNL     1       6.862  -9.633   3.198  0.00  0.00    -0.340 OA
BRANCH  25  28
ATOM     28  C   UNL     1       7.031 -11.410   6.205  0.00  0.00    +0.041 A 
ATOM     29  C   UNL     1       6.057 -12.073   6.950  0.00  0.00    +0.014 A 
ATOM     30  C   UNL     1       6.404 -12.711   8.123  0.00  0.00    +0.021 A 
ATOM     31  C   UNL     1       7.714 -12.682   8.569  0.00  0.00    +0.042 A 
ATOM     32  C   UNL     1       8.685 -12.020   7.838  0.00  0.00    +0.040 A 
ATOM     33  C   UNL     1       8.350 -11.384   6.658  0.00  0.00    +0.053 A 
ATOM     34 CL   UNL     1       9.568 -10.554   5.741  0.00  0.00    -0.083 Cl
ATOM     35 CL   UNL     1       8.142 -13.480  10.050  0.00  0.00    -0.083 Cl
ENDBRANCH  25  28
ENDBRANCH  22  23
ENDBRANCH   5  22
TORSDOF 6
