REMARK  Name = ZINC31808322
REMARK  9 active torsions:
REMARK  status: ('A' for Active; 'I' for Inactive)
REMARK    1  A    between atoms: C_1  and  O_2
REMARK    2  A    between atoms: O_2  and  C_3
REMARK    3  A    between atoms: C_3  and  C_5
REMARK    4  A    between atoms: C_5  and  C_6
REMARK    5  A    between atoms: C_6  and  C_8
REMARK    6  A    between atoms: C_6  and  N_12
REMARK    7  A    between atoms: C_8  and  O_10
REMARK    8  A    between atoms: O_10  and  C_11
REMARK    9  A    between atoms: C_24  and  C_26
REMARK                            x       y       z     vdW  Elec       q    Type
REMARK                         _______ _______ _______ _____ _____    ______ ____
ROOT
ATOM      1  N   UNL     1      -5.524  -2.224   0.195  0.00  0.00    -0.286 N 
ATOM      2  C   UNL     1      -4.722  -2.021   1.258  0.00  0.00    +0.304 C 
ATOM      3  O   UNL     1      -3.535  -2.273   1.181  0.00  0.00    -0.253 OA
ATOM      4  N   UNL     1      -5.234  -1.539   2.408  0.00  0.00    -0.273 N 
ATOM      5  C   UNL     1      -4.359  -1.203   3.540  0.00  0.00    +0.116 C 
ATOM      6  C   UNL     1      -4.684  -2.129   4.719  0.00  0.00    +0.074 C 
ATOM      7  C   UNL     1      -6.180  -2.213   4.872  0.00  0.00    +0.040 A 
ATOM      8  C   UNL     1      -7.073  -1.869   3.920  0.00  0.00    +0.062 A 
ATOM      9  N   UNL     1      -8.299  -2.079   4.405  0.00  0.00    -0.348 N 
ATOM     10  C   UNL     1      -8.203  -2.539   5.625  0.00  0.00    +0.171 A 
ATOM     11  N   UNL     1      -6.894  -2.635   5.952  0.00  0.00    -0.349 N 
ATOM     12  H   UNL     1      -6.532  -2.946   6.797  0.00  0.00    +0.166 HD
ATOM     13  C   UNL     1      -6.686  -1.332   2.558  0.00  0.00    +0.159 C 
ATOM     14  H   UNL     1      -6.481  -2.088   0.277  0.00  0.00    +0.151 HD
ATOM     15  H   UNL     1      -9.128  -1.917   3.928  0.00  0.00    +0.167 HD
ENDROOT
BRANCH  13  16
ATOM     16  C   UNL     1      -7.005   0.139   2.473  0.00  0.00    +0.014 A 
ATOM     17  C   UNL     1      -7.268   0.857   3.624  0.00  0.00    +0.010 A 
ATOM     18  C   UNL     1      -7.561   2.205   3.547  0.00  0.00    +0.020 A 
ATOM     19  C   UNL     1      -7.590   2.838   2.317  0.00  0.00    +0.044 A 
ATOM     20  C   UNL     1      -7.327   2.122   1.164  0.00  0.00    +0.058 A 
ATOM     21  C   UNL     1      -7.029   0.772   1.242  0.00  0.00    +0.130 A 
ATOM     22  F   UNL     1      -6.766   0.071   0.117  0.00  0.00    -0.205 F 
ATOM     23 CL   UNL     1      -7.959   4.532   2.221  0.00  0.00    -0.083 Cl
ENDBRANCH  13  16
BRANCH   1  24
ATOM     24  C   UNL     1      -4.952  -2.648  -1.085  0.00  0.00    +0.194 C 
BRANCH  24  25
ATOM     25  C   UNL     1      -4.483  -1.438  -1.852  0.00  0.00    +0.328 C 
ATOM     26  O   UNL     1      -4.614  -0.335  -1.377  0.00  0.00    -0.249 OA
BRANCH  25  27
ATOM     27  O   UNL     1      -3.921  -1.586  -3.061  0.00  0.00    -0.467 OA
ATOM     28  C   UNL     1      -3.500  -0.396  -3.731  0.00  0.00    +0.280 C 
ENDBRANCH  25  27
ENDBRANCH  24  25
BRANCH  24  29
ATOM     29  C   UNL     1      -6.015  -3.387  -1.899  0.00  0.00    +0.154 C 
BRANCH  29  30
ATOM     30  C   UNL     1      -6.395  -4.662  -1.190  0.00  0.00    +0.309 C 
ATOM     31  O   UNL     1      -5.869  -4.949  -0.141  0.00  0.00    -0.251 OA
BRANCH  30  33
ATOM     32  C   UNL     1      -7.629  -6.668  -0.998  0.00  0.00    +0.280 C 
ATOM     33  O   UNL     1      -7.318  -5.478  -1.724  0.00  0.00    -0.468 OA
ENDBRANCH  30  33
ENDBRANCH  29  30
ENDBRANCH  24  29
ENDBRANCH   1  24
TORSDOF 7
