REMARK  Name = ZINC14536920
REMARK  8 active torsions:
REMARK  status: ('A' for Active; 'I' for Inactive)
REMARK    1  A    between atoms: C_1  and  C_2
REMARK    2  A    between atoms: C_3  and  C_12
REMARK    3  A    between atoms: C_5  and  C_7
REMARK    4  A    between atoms: C_12  and  N_65
REMARK    5  A    between atoms: C_17  and  C_26
REMARK    6  A    between atoms: C_19  and  C_20
REMARK    7  A    between atoms: C_29  and  O_32
REMARK    8  A    between atoms: O_32  and  C_33
REMARK                            x       y       z     vdW  Elec       q    Type
REMARK                         _______ _______ _______ _____ _____    ______ ____
ROOT
ATOM      1  C   UNL     1       5.850   1.438  -2.251  0.00  0.00    -0.056 C 
ATOM      2  C   UNL     1       5.882   0.501  -1.036  0.00  0.00    +0.105 C 
ATOM      3  N   UNL     1       4.541   0.473  -0.446  0.00  0.00    -0.334 N 
ATOM      4  C   UNL     1       3.576   1.410  -0.722  0.00  0.00    +0.030 A 
ATOM      5  C   UNL     1       2.481   1.068  -0.015  0.00  0.00    +0.090 A 
ATOM      6  N   UNL     1       2.781  -0.051   0.682  0.00  0.00    -0.232 NA
ATOM      7  C   UNL     1       4.012  -0.406   0.419  0.00  0.00    +0.114 A 
ATOM      8  C   UNL     1       3.788   2.575  -1.654  0.00  0.00    -0.022 C 
ATOM      9  N   UNL     1       5.251   2.729  -1.851  0.00  0.00    +0.388 N 
ATOM     10  H   UNL     1       5.675   3.034  -0.968  0.00  0.00    -0.081 HD
ENDROOT
BRANCH   7  11
ATOM     11  C   UNL     1       4.722  -1.603   0.998  0.00  0.00    +0.059 C 
ATOM     12  C   UNL     1       3.963  -2.880   0.622  0.00  0.00    +0.039 C 
ATOM     13  C   UNL     1       4.647  -4.082   1.278  0.00  0.00    +0.160 C 
ATOM     14  O   UNL     1       4.686  -3.891   2.694  0.00  0.00    -0.380 OA
ATOM     15  C   UNL     1       5.423  -2.738   3.107  0.00  0.00    +0.160 C 
ATOM     16  C   UNL     1       4.770  -1.482   2.524  0.00  0.00    +0.039 C 
ENDBRANCH   7  11
BRANCH   5  17
ATOM     17  C   UNL     1       1.184   1.790   0.000  0.00  0.00    +0.002 A 
ATOM     18  C   UNL     1       0.495   1.962   1.199  0.00  0.00    +0.013 A 
ATOM     19  C   UNL     1      -0.712   2.629   1.210  0.00  0.00    +0.046 A 
ATOM     20  C   UNL     1      -1.235   3.138   0.029  0.00  0.00    +0.120 A 
ATOM     21  C   UNL     1      -0.551   2.969  -1.167  0.00  0.00    +0.046 A 
ATOM     22  C   UNL     1       0.654   2.298  -1.184  0.00  0.00    +0.013 A 
BRANCH  20  23
ATOM     23  O   UNL     1      -2.423   3.800   0.043  0.00  0.00    -0.495 OA
ATOM     24  C   UNL     1      -3.073   3.938   1.308  0.00  0.00    +0.277 C 
ENDBRANCH  20  23
ENDBRANCH   5  17
BRANCH   9  25
ATOM     25  C   UNL     1       5.514   3.750  -2.888  0.00  0.00    -0.018 C 
BRANCH  25  28
ATOM     26  C   UNL     1       7.826   5.355  -1.530  0.00  0.00    +0.088 C 
ATOM     27  C   UNL     1       7.966   4.393  -2.682  0.00  0.00    +0.124 A 
ATOM     28  C   UNL     1       6.972   3.702  -3.268  0.00  0.00    +0.066 A 
ATOM     29  N   UNL     1       7.508   2.966  -4.254  0.00  0.00    -0.215 NA
ATOM     30  C   UNL     1       8.804   3.184  -4.284  0.00  0.00    +0.234 A 
ATOM     31  O   UNL     1       9.111   4.065  -3.314  0.00  0.00    -0.440 OA
BRANCH  30  32
ATOM     32  C   UNL     1       9.758   2.570  -5.220  0.00  0.00    +0.074 A 
ATOM     33  C   UNL     1      11.125   2.752  -5.316  0.00  0.00    +0.021 A 
ATOM     34  C   UNL     1      11.811   2.055  -6.283  0.00  0.00    +0.008 A 
ATOM     35  C   UNL     1      11.130   1.223  -7.113  0.00  0.00    +0.046 A 
ATOM     36  S   UNL     1       9.451   1.399  -6.532  0.00  0.00    -0.092 S 
ENDBRANCH  30  32
ENDBRANCH  25  28
ENDBRANCH   9  25
TORSDOF 6
