REMARK  Name = ZINC27022804
REMARK  6 active torsions:
REMARK  status: ('A' for Active; 'I' for Inactive)
REMARK    1  A    between atoms: C_1  and  C_2
REMARK    2  A    between atoms: C_2  and  C_3
REMARK    3  A    between atoms: C_3  and  C_4
REMARK    4  A    between atoms: C_10  and  C_25
REMARK    5  A    between atoms: C_28  and  O_31
REMARK    6  A    between atoms: O_31  and  C_32
REMARK                            x       y       z     vdW  Elec       q    Type
REMARK                         _______ _______ _______ _____ _____    ______ ____
ROOT
ATOM      1  C   UNL     1      -0.421  -2.365  -4.789  0.00  0.00    +0.104 A 
ATOM      2  N   UNL     1      -0.472  -1.157  -4.263  0.00  0.00    -0.145 NA
ATOM      3  N   UNL     1      -0.704  -0.968  -3.037  0.00  0.00    -0.125 NA
ATOM      4  C   UNL     1      -0.912  -1.976  -2.201  0.00  0.00    +0.191 A 
ATOM      5  S   UNL     1      -0.742  -3.354  -3.332  0.00  0.00    -0.035 S 
ATOM      6  N   UNL     1      -1.179  -1.966  -0.838  0.00  0.00    -0.230 N 
ATOM      7  C   UNL     1      -1.293  -0.774   0.010  0.00  0.00    +0.151 C 
ATOM      8  C   UNL     1      -1.589  -1.278   1.399  0.00  0.00    +0.072 A 
ATOM      9  C   UNL     1      -1.811  -0.596   2.677  0.00  0.00    +0.199 A 
ATOM     10  O   UNL     1      -1.776   0.618   2.768  0.00  0.00    -0.287 OA
ATOM     11  C   UNL     1      -2.078  -1.454   3.848  0.00  0.00    +0.064 A 
ATOM     12  C   UNL     1      -2.303  -0.911   5.112  0.00  0.00    +0.015 A 
ATOM     13  C   UNL     1      -2.548  -1.742   6.170  0.00  0.00    +0.001 A 
ATOM     14  C   UNL     1      -2.572  -3.118   5.992  0.00  0.00    +0.004 A 
ATOM     15  C   UNL     1      -2.351  -3.672   4.750  0.00  0.00    +0.047 A 
ATOM     16  C   UNL     1      -2.101  -2.847   3.657  0.00  0.00    +0.139 A 
ATOM     17  O   UNL     1      -1.884  -3.372   2.438  0.00  0.00    -0.450 OA
ATOM     18  C   UNL     1      -1.635  -2.632   1.339  0.00  0.00    +0.199 A 
ATOM     19  C   UNL     1      -1.377  -3.047  -0.061  0.00  0.00    +0.289 C 
ATOM     20  O   UNL     1      -1.349  -4.197  -0.452  0.00  0.00    -0.266 OA
ENDROOT
BRANCH   7  21
ATOM     21  C   UNL     1       0.002  -0.004   0.002  0.00  0.00    -0.022 A 
ATOM     22  C   UNL     1      -0.017   1.378   0.010  0.00  0.00    +0.009 A 
ATOM     23  C   UNL     1       1.169   2.087   0.002  0.00  0.00    +0.046 A 
ATOM     24  C   UNL     1       2.380   1.409  -0.013  0.00  0.00    +0.120 A 
ATOM     25  C   UNL     1       2.396   0.022  -0.020  0.00  0.00    +0.046 A 
ATOM     26  C   UNL     1       1.207  -0.681  -0.013  0.00  0.00    +0.009 A 
BRANCH  24  27
ATOM     27  O   UNL     1       3.548   2.104  -0.020  0.00  0.00    -0.495 OA
ATOM     28  C   UNL     1       3.456   3.530  -0.012  0.00  0.00    +0.277 C 
ENDBRANCH  24  27
ENDBRANCH   7  21
BRANCH   1  29
ATOM     29  C   UNL     1      -0.161  -2.791  -6.211  0.00  0.00    +0.064 C 
BRANCH  29  31
ATOM     30  C   UNL     1       1.605  -3.429  -7.859  0.00  0.00    +0.004 C 
ATOM     31  C   UNL     1       1.341  -2.997  -6.415  0.00  0.00    +0.003 C 
ENDBRANCH  29  31
ENDBRANCH   1  29
TORSDOF 4
