REMARK  Name = ZINC59436982
REMARK  10 active torsions:
REMARK  status: ('A' for Active; 'I' for Inactive)
REMARK    1  A    between atoms: C_1  and  C_2
REMARK    2  A    between atoms: C_4  and  C_15
REMARK    3  A    between atoms: C_5  and  C_14
REMARK    4  A    between atoms: N_6  and  C_7
REMARK    5  A    between atoms: N_16  and  N_17
REMARK    6  A    between atoms: C_18  and  C_20
REMARK    7  A    between atoms: C_20  and  N_21
REMARK    8  A    between atoms: N_21  and  C_22
REMARK    9  A    between atoms: N_21  and  S_30
REMARK   10  A    between atoms: S_30  and  C_33
REMARK                            x       y       z     vdW  Elec       q    Type
REMARK                         _______ _______ _______ _____ _____    ______ ____
ROOT
ATOM      1  N   UNL     1       0.074  -5.710  -1.697  0.00  0.00    -0.206 N 
ATOM      2  C   UNL     1       0.093  -6.927  -1.116  0.00  0.00    +0.251 C 
ATOM      3  O   UNL     1       0.100  -7.021   0.093  0.00  0.00    -0.272 OA
ATOM      4  H   UNL     1       0.068  -5.635  -2.664  0.00  0.00    +0.177 HD
ENDROOT
BRANCH   1   6
ATOM      5  C   UNL     1       0.043  -3.384  -1.463  0.00  0.00    +0.140 C 
ATOM      6  N   UNL     1       0.061  -4.556  -0.904  0.00  0.00    -0.188 NA
BRANCH   5  10
ATOM      7  C   UNL     1      -0.018   1.503   0.010  0.00  0.00    +0.064 C 
ATOM      8  C   UNL     1       0.002  -0.004   0.002  0.00  0.00    +0.022 A 
ATOM      9  C   UNL     1       0.008  -0.781  -1.097  0.00  0.00    +0.032 A 
ATOM     10  C   UNL     1       0.030  -2.169  -0.628  0.00  0.00    +0.016 A 
ATOM     11  C   UNL     1       0.035  -2.113   0.736  0.00  0.00    +0.030 A 
ATOM     12  N   UNL     1       0.024  -0.804   1.108  0.00  0.00    -0.317 N 
ATOM     13  C   UNL     1       0.056  -3.296   1.669  0.00  0.00    +0.064 C 
BRANCH  12  14
ATOM     14  C   UNL     1       0.030  -0.345   2.433  0.00  0.00    +0.047 A 
ATOM     15  C   UNL     1       1.133  -0.576   3.244  0.00  0.00    +0.029 A 
ATOM     16  C   UNL     1       1.137  -0.122   4.548  0.00  0.00    +0.040 A 
ATOM     17  C   UNL     1       0.042   0.563   5.048  0.00  0.00    +0.124 A 
ATOM     18  C   UNL     1      -1.059   0.795   4.241  0.00  0.00    +0.040 A 
ATOM     19  C   UNL     1      -1.065   0.348   2.934  0.00  0.00    +0.029 A 
ATOM     20  F   UNL     1       0.048   1.006   6.324  0.00  0.00    -0.205 F 
ENDBRANCH  12  14
ENDBRANCH   5  10
ENDBRANCH   1   6
BRANCH   2  21
ATOM     21  C   UNL     1       0.106  -8.169  -1.969  0.00  0.00    +0.228 C 
BRANCH  21  22
ATOM     22  N   UNL     1       0.126  -9.353  -1.107  0.00  0.00    -0.199 N 
BRANCH  22  23
ATOM     23  C   UNL     1      -1.069  -9.872  -0.606  0.00  0.00    +0.054 A 
ATOM     24  C   UNL     1      -1.068 -10.611   0.570  0.00  0.00    +0.044 A 
ATOM     25  C   UNL     1      -2.253 -11.123   1.065  0.00  0.00    +0.044 A 
ATOM     26  C   UNL     1      -3.440 -10.900   0.389  0.00  0.00    +0.040 A 
ATOM     27  C   UNL     1      -3.444 -10.165  -0.784  0.00  0.00    +0.044 A 
ATOM     28  C   UNL     1      -2.263  -9.646  -1.279  0.00  0.00    +0.044 A 
ATOM     29 CL   UNL     1      -4.935  -9.890  -1.629  0.00  0.00    -0.083 Cl
ATOM     30 CL   UNL     1      -2.252 -12.047   2.535  0.00  0.00    -0.083 Cl
ENDBRANCH  22  23
BRANCH  22  31
ATOM     31  S   UNL     1       1.567 -10.076  -0.728  0.00  0.00    +0.043 S 
ATOM     32  O   UNL     1       1.247 -11.449  -0.547  0.00  0.00    -0.155 OA
ATOM     33  O   UNL     1       2.459  -9.670  -1.756  0.00  0.00    -0.155 OA
ATOM     34  C   UNL     1       2.058  -9.336   0.854  0.00  0.00    +0.218 C 
ENDBRANCH  22  31
ENDBRANCH  21  22
ENDBRANCH   2  21
TORSDOF 7
