REMARK  Name = ZINC45605764
REMARK  7 active torsions:
REMARK  status: ('A' for Active; 'I' for Inactive)
REMARK    1  A    between atoms: C_3  and  N_14
REMARK    2  A    between atoms: C_4  and  N_11
REMARK    3  A    between atoms: C_6  and  C_7
REMARK    4  A    between atoms: N_14  and  C_15
REMARK    5  A    between atoms: C_15  and  C_16
REMARK    6  A    between atoms: C_16  and  C_17
REMARK    7  A    between atoms: N_19  and  C_20
REMARK                            x       y       z     vdW  Elec       q    Type
REMARK                         _______ _______ _______ _____ _____    ______ ____
ROOT
ATOM      1  C   UNL     1       3.590   4.194  -0.098  0.00  0.00    +0.111 C 
ENDROOT
BRANCH   1   2
ATOM      2  N   UNL     1       3.707   2.740   0.034  0.00  0.00    -0.342 N 
ATOM      3  H   UNL     1       4.583   2.329   0.111  0.00  0.00    +0.146 HD
BRANCH   2   6
ATOM      4  C   UNL     1       0.169   1.747   0.055  0.00  0.00    +0.014 A 
ATOM      5  C   UNL     1       1.302   2.536   0.041  0.00  0.00    +0.026 A 
ATOM      6  C   UNL     1       2.559   1.944   0.048  0.00  0.00    +0.058 A 
ATOM      7  C   UNL     1       2.671   0.560   0.069  0.00  0.00    +0.147 A 
ATOM      8  C   UNL     1       1.534  -0.223   0.083  0.00  0.00    +0.047 A 
ATOM      9  C   UNL     1       0.284   0.369   0.076  0.00  0.00    +0.057 A 
BRANCH   9  10
ATOM     10  C   UNL     1      -0.954  -0.489   0.090  0.00  0.00    +0.417 C 
ATOM     11  F   UNL     1      -2.089   0.330   0.080  0.00  0.00    -0.166 F 
ATOM     12  F   UNL     1      -0.964  -1.314  -1.039  0.00  0.00    -0.166 F 
ATOM     13  F   UNL     1      -0.961  -1.279   1.245  0.00  0.00    -0.166 F 
ENDBRANCH   9  10
BRANCH   7  14
ATOM     14  N   UNL     1       4.008  -0.075   0.077  0.00  0.00    +0.058 N 
ATOM     15  O   UNL     1       4.188  -1.113  -0.516  0.00  0.00    -0.126 OA
ATOM     16  O   UNL     1       4.921   0.445   0.675  0.00  0.00    -0.126 OA
ENDBRANCH   7  14
ENDBRANCH   2   6
ENDBRANCH   1   2
BRANCH   1  17
ATOM     17  C   UNL     1       4.985   4.822  -0.086  0.00  0.00    +0.114 C 
BRANCH  17  18
ATOM     18  C   UNL     1       4.864   6.318  -0.221  0.00  0.00    +0.219 C 
ATOM     19  O   UNL     1       3.769   6.831  -0.318  0.00  0.00    -0.275 OA
ATOM     20  N   UNL     1       5.971   7.085  -0.235  0.00  0.00    -0.284 N 
ATOM     21  H   UNL     1       6.848   6.671  -0.241  0.00  0.00    +0.155 HD
BRANCH  20  22
ATOM     22  C   UNL     1       5.856   8.482  -0.241  0.00  0.00    +0.051 A 
ATOM     23  C   UNL     1       4.717   9.087   0.270  0.00  0.00    +0.073 A 
ATOM     24  C   UNL     1       4.603  10.468   0.265  0.00  0.00    +0.164 A 
ATOM     25  C   UNL     1       5.633  11.246  -0.251  0.00  0.00    +0.163 A 
ATOM     26  C   UNL     1       6.770  10.639  -0.763  0.00  0.00    +0.066 A 
ATOM     27  C   UNL     1       6.885   9.261  -0.753  0.00  0.00    +0.043 A 
ATOM     28 BR   UNL     1       8.441   8.438  -1.444  0.00  0.00    -0.048 Br
ATOM     29  O   UNL     1       5.543  12.605  -0.257  0.00  0.00    -0.485 OA
ATOM     30  C   UNL     1       4.237  13.165  -0.080  0.00  0.00    +0.270 C 
ATOM     31  C   UNL     1       3.558  12.439   1.090  0.00  0.00    +0.270 C 
ATOM     32  O   UNL     1       3.478  11.046   0.767  0.00  0.00    -0.485 OA
ENDBRANCH  20  22
ENDBRANCH  17  18
ENDBRANCH   1  17
TORSDOF 7
