REMARK  Name = ZINC14007346
REMARK  6 active torsions:
REMARK  status: ('A' for Active; 'I' for Inactive)
REMARK    1  A    between atoms: C_1  and  C_2
REMARK    2  A    between atoms: C_2  and  C_35
REMARK    3  A    between atoms: C_6  and  C_16
REMARK    4  A    between atoms: C_18  and  N_29
REMARK    5  A    between atoms: C_21  and  S_22
REMARK    6  A    between atoms: S_22  and  C_23
REMARK                            x       y       z     vdW  Elec       q    Type
REMARK                         _______ _______ _______ _____ _____    ______ ____
ROOT
ATOM      1  C   UNL     1       2.821   4.433  -1.965  0.00  0.00    +0.011 C 
ATOM      2  C   UNL     1       3.317   4.538  -0.521  0.00  0.00    -0.023 C 
ATOM      3  C   UNL     1       3.780   3.167  -0.031  0.00  0.00    +0.058 C 
ATOM      4  C   UNL     1       2.628   2.178  -0.089  0.00  0.00    +0.017 C 
ATOM      5  C   UNL     1       1.363   2.591   0.107  0.00  0.00    +0.036 C 
ATOM      6  C   UNL     1       0.134   1.716   0.090  0.00  0.00    +0.137 C 
ATOM      7  N   UNL     1       0.406   0.295   0.099  0.00  0.00    -0.331 N 
ATOM      8  C   UNL     1       1.058  -0.317  -0.971  0.00  0.00    +0.049 A 
ATOM      9  C   UNL     1       0.423  -1.260  -1.763  0.00  0.00    +0.025 A 
ATOM     10  C   UNL     1       1.096  -1.805  -2.843  0.00  0.00    +0.002 A 
ATOM     11  C   UNL     1       2.389  -1.411  -3.133  0.00  0.00    +0.002 A 
ATOM     12  C   UNL     1       3.033  -0.482  -2.332  0.00  0.00    +0.025 A 
ATOM     13  C   UNL     1       2.369   0.046  -1.239  0.00  0.00    +0.052 A 
ATOM     14  N   UNL     1       2.992   0.893  -0.330  0.00  0.00    -0.316 N 
ATOM     15  C   UNL     1       1.091   3.957   0.356  0.00  0.00    +0.163 C 
ATOM     16  O   UNL     1      -0.059   4.301   0.548  0.00  0.00    -0.292 OA
ATOM     17  C   UNL     1       2.171   4.997   0.389  0.00  0.00    +0.086 C 
ATOM     18  C   UNL     1       4.474   5.536  -0.442  0.00  0.00    +0.011 C 
ATOM     19  H   UNL     1       0.130  -0.240   0.860  0.00  0.00    +0.147 HD
ATOM     20  H   UNL     1       3.743   0.539   0.170  0.00  0.00    +0.152 HD
ENDROOT
BRANCH   6  21
ATOM     21  C   UNL     1      -0.666   2.042  -1.145  0.00  0.00    -0.007 A 
ATOM     22  C   UNL     1      -0.139   1.789  -2.397  0.00  0.00    +0.039 A 
ATOM     23  C   UNL     1      -0.872   2.087  -3.530  0.00  0.00    +0.127 A 
ATOM     24  C   UNL     1      -2.135   2.638  -3.416  0.00  0.00    +0.034 A 
ATOM     25  C   UNL     1      -2.668   2.893  -2.169  0.00  0.00    +0.017 A 
ATOM     26  C   UNL     1      -1.937   2.590  -1.027  0.00  0.00    +0.020 A 
BRANCH  23  27
ATOM     27  N   UNL     1      -0.303   1.814  -4.870  0.00  0.00    +0.056 N 
ATOM     28  O   UNL     1       0.809   1.328  -4.972  0.00  0.00    -0.126 OA
ATOM     29  O   UNL     1      -0.948   2.076  -5.870  0.00  0.00    -0.126 OA
ENDBRANCH  23  27
BRANCH  26  30
ATOM     30  S   UNL     1      -2.616   2.908   0.568  0.00  0.00    -0.070 S 
BRANCH  30  31
ATOM     31  C   UNL     1      -3.111   1.319   1.145  0.00  0.00    +0.102 A 
ATOM     32  C   UNL     1      -3.764   1.201   2.368  0.00  0.00    +0.035 A 
ATOM     33  C   UNL     1      -4.146  -0.052   2.809  0.00  0.00    +0.004 A 
ATOM     34  C   UNL     1      -3.862  -1.152   2.009  0.00  0.00    +0.020 A 
ATOM     35  C   UNL     1      -3.211  -0.963   0.806  0.00  0.00    +0.112 A 
ATOM     36  N   UNL     1      -2.862   0.246   0.408  0.00  0.00    -0.248 NA
ENDBRANCH  30  31
ENDBRANCH  26  30
ENDBRANCH   6  21
TORSDOF 4
