REMARK  Name = ZINC36637279
REMARK  17 active torsions:
REMARK  status: ('A' for Active; 'I' for Inactive)
REMARK    1  A    between atoms: C_1  and  C_2
REMARK    2  A    between atoms: C_2  and  C_3
REMARK    3  A    between atoms: C_3  and  C_4
REMARK    4  A    between atoms: C_4  and  N_5
REMARK    5  A    between atoms: N_5  and  C_6
REMARK    6  A    between atoms: N_5  and  S_10
REMARK    7  A    between atoms: C_6  and  C_7
REMARK    8  A    between atoms: C_7  and  C_8
REMARK    9  A    between atoms: C_8  and  C_9
REMARK   10  A    between atoms: S_10  and  C_13
REMARK   11  A    between atoms: C_16  and  C_19
REMARK   12  A    between atoms: N_21  and  C_22
REMARK   13  A    between atoms: C_22  and  C_23
REMARK   14  A    between atoms: C_23  and  N_24
REMARK   15  A    between atoms: N_24  and  C_25
REMARK   16  A    between atoms: N_24  and  C_26
REMARK   17  A    between atoms: C_32  and  C_36
REMARK                            x       y       z     vdW  Elec       q    Type
REMARK                         _______ _______ _______ _____ _____    ______ ____
ROOT
ATOM      1  C   UNL     1       5.851   1.806   3.546  0.00  0.00    +0.252 C 
ATOM      2  O   UNL     1       6.649   2.041   2.660  0.00  0.00    -0.270 OA
ATOM      3  N   UNL     1       5.862   2.541   4.675  0.00  0.00    -0.248 N 
ATOM      4  C   UNL     1       6.699   3.639   4.779  0.00  0.00    +0.168 A 
ATOM      5  N   UNL     1       6.853   4.463   5.788  0.00  0.00    -0.224 NA
ATOM      6  C   UNL     1       7.715   5.503   5.751  0.00  0.00    +0.080 A 
ATOM      7  C   UNL     1       7.975   6.458   6.761  0.00  0.00    +0.029 A 
ATOM      8  C   UNL     1       8.889   7.459   6.559  0.00  0.00    +0.005 A 
ATOM      9  C   UNL     1       9.589   7.572   5.366  0.00  0.00    -0.049 A 
ATOM     10  C   UNL     1       9.360   6.655   4.357  0.00  0.00    +0.020 A 
ATOM     11  C   UNL     1       8.446   5.649   4.550  0.00  0.00    +0.041 A 
ATOM     12  S   UNL     1       7.849   4.289   3.575  0.00  0.00    -0.052 S 
ATOM     13  C   UNL     1      10.588   8.683   5.172  0.00  0.00    +0.044 C 
ENDROOT
BRANCH   1  17
ATOM     14  C   UNL     1       3.025  -1.331   3.079  0.00  0.00    +0.106 A 
ATOM     15  C   UNL     1       3.248  -0.444   2.040  0.00  0.00    +0.029 A 
ATOM     16  C   UNL     1       4.164   0.577   2.185  0.00  0.00    +0.015 A 
ATOM     17  C   UNL     1       4.867   0.715   3.383  0.00  0.00    +0.037 A 
ATOM     18  C   UNL     1       4.638  -0.184   4.427  0.00  0.00    +0.015 A 
ATOM     19  C   UNL     1       3.715  -1.197   4.271  0.00  0.00    +0.029 A 
BRANCH  14  20
ATOM     20  S   UNL     1       1.853  -2.632   2.885  0.00  0.00    +0.061 S 
ATOM     21  O   UNL     1       2.221  -3.650   3.806  0.00  0.00    -0.153 OA
ATOM     22  O   UNL     1       1.740  -2.872   1.489  0.00  0.00    -0.153 OA
BRANCH  20  23
ATOM     23  N   UNL     1       0.387  -2.049   3.386  0.00  0.00    -0.177 NA
BRANCH  23  24
ATOM     24  C   UNL     1      -0.507  -1.394   2.427  0.00  0.00    +0.109 C 
BRANCH  24  25
ATOM     25  C   UNL     1      -0.296   0.120   2.485  0.00  0.00    +0.017 C 
BRANCH  25  27
ATOM     26  C   UNL     1      -1.018   2.318   1.541  0.00  0.00    +0.004 C 
ATOM     27  C   UNL     1      -1.230   0.803   1.484  0.00  0.00    -0.002 C 
ENDBRANCH  25  27
ENDBRANCH  24  25
ENDBRANCH  23  24
BRANCH  23  28
ATOM     28  C   UNL     1      -0.017  -2.187   4.787  0.00  0.00    +0.109 C 
BRANCH  28  29
ATOM     29  C   UNL     1      -0.873  -3.445   4.950  0.00  0.00    +0.017 C 
BRANCH  29  30
ATOM     30  C   UNL     1      -1.294  -3.589   6.414  0.00  0.00    -0.002 C 
ATOM     31  C   UNL     1      -2.150  -4.847   6.576  0.00  0.00    +0.004 C 
ENDBRANCH  29  30
ENDBRANCH  28  29
ENDBRANCH  23  28
ENDBRANCH  20  23
ENDBRANCH  14  20
ENDBRANCH   1  17
BRANCH   3  32
ATOM     32  C   UNL     1       4.988   2.178   5.794  0.00  0.00    +0.097 C 
BRANCH  32  33
ATOM     33  C   UNL     1       5.785   1.375   6.824  0.00  0.00    -0.060 C 
BRANCH  33  34
ATOM     34  N   UNL     1       4.882   0.899   7.880  0.00  0.00    +0.377 N 
ATOM     35  C   UNL     1       5.623   0.030   8.804  0.00  0.00    -0.097 C 
ATOM     36  C   UNL     1       4.341   2.049   8.617  0.00  0.00    -0.097 C 
ATOM     37  H   UNL     1       4.123   0.379   7.464  0.00  0.00    -0.083 HD
ENDBRANCH  33  34
ENDBRANCH  32  33
ENDBRANCH   3  32
TORSDOF 12
