REMARK  Name = ZINC63372871
REMARK  13 active torsions:
REMARK  status: ('A' for Active; 'I' for Inactive)
REMARK    1  A    between atoms: C_1  and  C_2
REMARK    2  A    between atoms: C_2  and  C_3
REMARK    3  A    between atoms: C_3  and  C_4
REMARK    4  A    between atoms: C_4  and  C_5
REMARK    5  A    between atoms: C_5  and  N_6
REMARK    6  A    between atoms: C_12  and  C_28
REMARK    7  A    between atoms: C_24  and  C_27
REMARK    8  A    between atoms: C_31  and  O_36
REMARK    9  A    between atoms: C_32  and  O_34
REMARK   10  A    between atoms: O_34  and  C_35
REMARK   11  A    between atoms: O_36  and  C_37
REMARK   12  A    between atoms: C_37  and  C_38
REMARK   13  A    between atoms: C_37  and  C_39
REMARK                            x       y       z     vdW  Elec       q    Type
REMARK                         _______ _______ _______ _____ _____    ______ ____
ROOT
ATOM      1  N   UNL     1       0.179  -3.815  -2.431  0.00  0.00    -0.291 N 
ATOM      2  C   UNL     1       1.430  -4.426  -2.014  0.00  0.00    +0.203 C 
ATOM      3  C   UNL     1       1.403  -5.912  -2.148  0.00  0.00    +0.234 C 
ATOM      4  O   UNL     1       2.401  -6.522  -1.829  0.00  0.00    -0.274 OA
ATOM      5  N   UNL     1       0.360  -6.621  -2.595  0.00  0.00    -0.283 N 
ATOM      6  C   UNL     1       0.511  -8.085  -2.704  0.00  0.00    +0.121 C 
ATOM      7  C   UNL     1      -0.557  -8.772  -1.834  0.00  0.00    +0.065 C 
ATOM      8  C   UNL     1      -1.865  -8.084  -2.131  0.00  0.00    -0.027 C 
ATOM      9  C   UNL     1      -3.052  -8.562  -2.483  0.00  0.00    -0.000 A 
ATOM     10  C   UNL     1      -3.559  -9.939  -2.600  0.00  0.00    +0.010 A 
ATOM     11  C   UNL     1      -4.846 -10.070  -3.017  0.00  0.00    +0.001 A 
ATOM     12  C   UNL     1      -5.670  -8.983  -3.326  0.00  0.00    +0.002 A 
ATOM     13  C   UNL     1      -5.290  -7.684  -3.238  0.00  0.00    +0.026 A 
ATOM     14  C   UNL     1      -3.960  -7.417  -2.801  0.00  0.00    +0.043 A 
ATOM     15  N   UNL     1      -3.349  -6.286  -2.605  0.00  0.00    -0.375 N 
ATOM     16  C   UNL     1      -2.012  -6.567  -2.082  0.00  0.00    +0.139 C 
ATOM     17  C   UNL     1      -0.908  -5.997  -2.978  0.00  0.00    +0.135 C 
ATOM     18  C   UNL     1      -0.874  -4.510  -2.858  0.00  0.00    +0.242 C 
ATOM     19  O   UNL     1      -1.869  -3.894  -3.175  0.00  0.00    -0.273 OA
ATOM     20  C   UNL     1      -1.217  -6.359  -4.433  0.00  0.00    +0.044 C 
ATOM     21  H   UNL     1      -3.718  -5.405  -2.777  0.00  0.00    +0.160 HD
ENDROOT
BRANCH   7  22
ATOM     22  C   UNL     1      -0.210  -8.619  -0.376  0.00  0.00    -0.035 A 
ATOM     23  C   UNL     1      -0.106  -7.357   0.180  0.00  0.00    +0.008 A 
ATOM     24  C   UNL     1       0.211  -7.211   1.517  0.00  0.00    +0.050 A 
ATOM     25  C   UNL     1       0.425  -8.331   2.305  0.00  0.00    +0.162 A 
ATOM     26  C   UNL     1       0.319  -9.601   1.746  0.00  0.00    +0.162 A 
ATOM     27  C   UNL     1      -0.004  -9.740   0.406  0.00  0.00    +0.053 A 
BRANCH  26  28
ATOM     28  O   UNL     1       0.528 -10.703   2.515  0.00  0.00    -0.491 OA
ATOM     29  C   UNL     1       0.403 -11.974   1.874  0.00  0.00    +0.277 C 
ENDBRANCH  26  28
BRANCH  25  30
ATOM     30  O   UNL     1       0.737  -8.189   3.621  0.00  0.00    -0.486 OA
BRANCH  30  31
ATOM     31  C   UNL     1       0.946  -6.859   4.098  0.00  0.00    +0.167 C 
ATOM     32  C   UNL     1      -0.400  -6.233   4.471  0.00  0.00    +0.051 C 
ATOM     33  C   UNL     1       1.851  -6.895   5.331  0.00  0.00    +0.051 C 
ENDBRANCH  30  31
ENDBRANCH  25  30
ENDBRANCH   7  22
BRANCH   1  34
ATOM     34  C   UNL     1       0.067  -2.355  -2.373  0.00  0.00    +0.108 C 
BRANCH  34  35
ATOM     35  C   UNL     1      -0.461  -1.939  -0.998  0.00  0.00    +0.019 C 
BRANCH  35  36
ATOM     36  C   UNL     1      -0.578  -0.414  -0.937  0.00  0.00    +0.001 C 
BRANCH  36  38
ATOM     37  C   UNL     1      -1.222   1.526   0.498  0.00  0.00    +0.004 C 
ATOM     38  C   UNL     1      -1.106   0.002   0.437  0.00  0.00    -0.003 C 
ENDBRANCH  36  38
ENDBRANCH  35  36
ENDBRANCH  34  35
ENDBRANCH   1  34
TORSDOF 8
