REMARK  Name = ZINC65280773
REMARK  7 active torsions:
REMARK  status: ('A' for Active; 'I' for Inactive)
REMARK    1  A    between atoms: C_1  and  C_2
REMARK    2  A    between atoms: N_4  and  C_10
REMARK    3  A    between atoms: C_6  and  C_8
REMARK    4  A    between atoms: C_6  and  C_9
REMARK    5  A    between atoms: C_13  and  S_19
REMARK    6  A    between atoms: C_15  and  N_16
REMARK    7  A    between atoms: S_19  and  N_22
REMARK                            x       y       z     vdW  Elec       q    Type
REMARK                         _______ _______ _______ _____ _____    ______ ____
ROOT
ATOM      1  C   UNL     1      -2.096  -2.848  -0.651  0.00  0.00    +0.061 A 
ATOM      2  C   UNL     1      -1.494  -3.338  -1.804  0.00  0.00    +0.027 A 
ATOM      3  C   UNL     1      -2.196  -4.181  -2.642  0.00  0.00    +0.030 A 
ATOM      4  C   UNL     1      -3.496  -4.538  -2.336  0.00  0.00    +0.108 A 
ATOM      5  C   UNL     1      -4.098  -4.053  -1.189  0.00  0.00    +0.063 A 
ATOM      6  C   UNL     1      -3.400  -3.213  -0.343  0.00  0.00    +0.149 A 
ENDROOT
BRANCH   1  10
ATOM      7  C   UNL     1      -0.019   1.526   0.010  0.00  0.00    +0.039 C 
ATOM      8  C   UNL     1       0.002  -0.004   0.002  0.00  0.00    +0.133 C 
ATOM      9  C   UNL     1      -1.436  -0.536   0.019  0.00  0.00    +0.136 C 
ATOM     10  N   UNL     1      -1.389  -1.995   0.200  0.00  0.00    -0.323 N 
ATOM     11  C   UNL     1      -0.575  -2.530   1.303  0.00  0.00    +0.139 C 
ATOM     12  C   UNL     1       0.821  -1.901   1.223  0.00  0.00    +0.080 C 
ATOM     13  O   UNL     1       0.693  -0.479   1.160  0.00  0.00    -0.368 OA
ATOM     14  C   UNL     1       1.627  -2.287   2.465  0.00  0.00    +0.043 C 
ATOM     15  C   UNL     1       1.538  -2.406  -0.030  0.00  0.00    +0.043 C 
ENDBRANCH   1  10
BRANCH   6  16
ATOM     16  N   UNL     1      -4.043  -2.699   0.886  0.00  0.00    +0.058 N 
ATOM     17  O   UNL     1      -5.178  -3.017   1.153  0.00  0.00    -0.126 OA
ATOM     18  O   UNL     1      -3.433  -1.960   1.624  0.00  0.00    -0.126 OA
ENDBRANCH   6  16
BRANCH   4  19
ATOM     19  S   UNL     1      -4.388  -5.615  -3.408  0.00  0.00    +0.061 S 
ATOM     20  O   UNL     1      -5.768  -5.361  -3.183  0.00  0.00    -0.153 OA
ATOM     21  O   UNL     1      -3.791  -5.494  -4.692  0.00  0.00    -0.153 OA
BRANCH  19  22
ATOM     22  N   UNL     1      -4.101  -7.164  -2.897  0.00  0.00    -0.172 NA
ATOM     23  C   UNL     1      -2.965  -7.937  -3.423  0.00  0.00    +0.137 C 
ATOM     24  C   UNL     1      -2.183  -8.514  -2.238  0.00  0.00    +0.177 C 
ATOM     25  O   UNL     1      -3.083  -9.215  -1.376  0.00  0.00    -0.377 OA
ATOM     26  C   UNL     1      -4.094  -8.390  -0.791  0.00  0.00    +0.177 C 
ATOM     27  C   UNL     1      -4.971  -7.805  -1.898  0.00  0.00    +0.137 C 
ENDBRANCH  19  22
ENDBRANCH   4  19
TORSDOF 4
