REMARK  Name = ZINC29116109
REMARK  8 active torsions:
REMARK  status: ('A' for Active; 'I' for Inactive)
REMARK    1  A    between atoms: C_1  and  C_2
REMARK    2  A    between atoms: C_2  and  O_3
REMARK    3  A    between atoms: O_3  and  C_4
REMARK    4  A    between atoms: C_7  and  C_10
REMARK    5  A    between atoms: N_15  and  C_16
REMARK    6  A    between atoms: C_16  and  C_17
REMARK    7  A    between atoms: N_19  and  C_20
REMARK    8  A    between atoms: C_25  and  N_26
REMARK                            x       y       z     vdW  Elec       q    Type
REMARK                         _______ _______ _______ _____ _____    ______ ____
ROOT
ATOM      1  C   UNL     1      -0.014   1.210   0.006  0.00  0.00    +0.201 C 
ATOM      2  O   UNL     1       0.002  -0.003  -0.016  0.00  0.00    -0.278 OA
ATOM      3  N   UNL     1       1.144   1.900   0.004  0.00  0.00    -0.285 N 
ATOM      4  H   UNL     1       1.130   2.997  -0.068  0.00  0.00    +0.155 HD
ENDROOT
BRANCH   3   5
ATOM      5  C   UNL     1       2.365   1.218   0.093  0.00  0.00    +0.066 A 
ATOM      6  C   UNL     1       2.419  -0.033   0.692  0.00  0.00    +0.052 A 
ATOM      7  C   UNL     1       3.628  -0.702   0.778  0.00  0.00    +0.078 A 
ATOM      8  C   UNL     1       4.786  -0.120   0.264  0.00  0.00    +0.145 A 
ATOM      9  C   UNL     1       4.728   1.127  -0.332  0.00  0.00    +0.082 A 
ATOM     10  C   UNL     1       3.519   1.793  -0.423  0.00  0.00    +0.151 A 
ATOM     11  O   UNL     1       5.968  -0.789   0.356  0.00  0.00    -0.481 OA
ATOM     12  C   UNL     1       6.150  -1.617   1.507  0.00  0.00    +0.325 C 
ATOM     13  C   UNL     1       4.915  -2.453   1.730  0.00  0.00    +0.255 C 
ATOM     14  O   UNL     1       5.008  -3.557   2.224  0.00  0.00    -0.272 OA
ATOM     15  N   UNL     1       3.704  -1.967   1.379  0.00  0.00    -0.280 N 
ATOM     16  H   UNL     1       2.787  -2.548   1.557  0.00  0.00    +0.155 HD
BRANCH  10  17
ATOM     17  N   UNL     1       3.456   3.124  -1.067  0.00  0.00    +0.058 N 
ATOM     18  O   UNL     1       4.448   3.591  -1.599  0.00  0.00    -0.126 OA
ATOM     19  O   UNL     1       2.414   3.754  -1.064  0.00  0.00    -0.126 OA
ENDBRANCH  10  17
ENDBRANCH   3   5
BRANCH   1  20
ATOM     20  C   UNL     1      -1.329   1.946   0.031  0.00  0.00    +0.020 C 
BRANCH  20  25
ATOM     21  C   UNL     1      -3.732   1.647   0.286  0.00  0.00    -0.037 C 
ATOM     22  C   UNL     1      -4.792   0.674  -0.273  0.00  0.00    -0.013 C 
ATOM     23  C   UNL     1      -4.048  -0.164  -1.333  0.00  0.00    -0.020 C 
ATOM     24  C   UNL     1      -2.600   0.373  -1.325  0.00  0.00    -0.077 C 
ATOM     25  N   UNL     1      -2.433   0.977   0.022  0.00  0.00    +0.390 N 
ATOM     26  H   UNL     1      -2.172   0.235   0.792  0.00  0.00    -0.080 HD
BRANCH  21  30
ATOM     27  C   UNL     1      -4.293   2.210   4.485  0.00  0.00    +0.121 A 
ATOM     28  C   UNL     1      -4.669   3.205   3.594  0.00  0.00    +0.046 A 
ATOM     29  C   UNL     1      -4.487   3.020   2.237  0.00  0.00    +0.005 A 
ATOM     30  C   UNL     1      -3.930   1.845   1.767  0.00  0.00    -0.061 A 
ATOM     31  C   UNL     1      -3.559   0.850   2.652  0.00  0.00    +0.005 A 
ATOM     32  C   UNL     1      -3.734   1.032   4.010  0.00  0.00    +0.046 A 
BRANCH  27  33
ATOM     33  O   UNL     1      -4.471   2.389   5.820  0.00  0.00    -0.492 OA
BRANCH  33  35
ATOM     34  C   UNL     1      -4.337   1.704   8.134  0.00  0.00    +0.048 C 
ATOM     35  C   UNL     1      -4.060   1.323   6.678  0.00  0.00    +0.225 C 
ENDBRANCH  33  35
ENDBRANCH  27  33
ENDBRANCH  21  30
ENDBRANCH  20  25
ENDBRANCH   1  20
TORSDOF 7
