REMARK  Name = ZINC59384806
REMARK  8 active torsions:
REMARK  status: ('A' for Active; 'I' for Inactive)
REMARK    1  A    between atoms: C_1  and  C_2
REMARK    2  A    between atoms: C_3  and  C_17
REMARK    3  A    between atoms: C_4  and  C_10
REMARK    4  A    between atoms: N_19  and  N_20
REMARK    5  A    between atoms: C_21  and  C_22
REMARK    6  A    between atoms: C_25  and  C_28
REMARK    7  A    between atoms: C_28  and  O_30
REMARK    8  A    between atoms: O_30  and  C_31
REMARK                            x       y       z     vdW  Elec       q    Type
REMARK                         _______ _______ _______ _____ _____    ______ ____
ROOT
ATOM      1  C   UNL     1       0.658   1.367   0.084  0.00  0.00    +0.061 C 
ATOM      2  C   UNL     1       0.360  -0.109   0.047  0.00  0.00    +0.017 C 
ATOM      3  C   UNL     1      -0.922  -0.526  -0.023  0.00  0.00    +0.057 C 
ATOM      4  C   UNL     1      -1.177  -2.020  -0.059  0.00  0.00    +0.139 C 
ATOM      5  N   UNL     1       0.003  -2.899  -0.015  0.00  0.00    -0.315 N 
ATOM      6  C   UNL     1       1.223  -2.332   0.054  0.00  0.00    +0.135 C 
ATOM      7  S   UNL     1       2.604  -3.343   0.106  0.00  0.00    -0.019 S 
ATOM      8  N   UNL     1       1.391  -1.004   0.078  0.00  0.00    -0.300 N 
ATOM      9  H   UNL     1      -0.096  -3.864  -0.034  0.00  0.00    +0.149 HD
ATOM     10  H   UNL     1       2.296  -0.658   0.124  0.00  0.00    +0.154 HD
ENDROOT
BRANCH   4  11
ATOM     11  C   UNL     1      -1.941  -2.330  -1.320  0.00  0.00    -0.023 A 
ATOM     12  C   UNL     1      -1.293  -2.313  -2.542  0.00  0.00    +0.007 A 
ATOM     13  C   UNL     1      -1.992  -2.598  -3.699  0.00  0.00    +0.020 A 
ATOM     14  C   UNL     1      -3.341  -2.900  -3.636  0.00  0.00    +0.041 A 
ATOM     15  C   UNL     1      -3.988  -2.918  -2.413  0.00  0.00    +0.020 A 
ATOM     16  C   UNL     1      -3.287  -2.638  -1.256  0.00  0.00    +0.007 A 
ATOM     17 CL   UNL     1      -4.220  -3.258  -5.089  0.00  0.00    -0.084 Cl
ENDBRANCH   4  11
BRANCH   3  18
ATOM     18  C   UNL     1      -1.992   0.400  -0.060  0.00  0.00    +0.263 C 
ATOM     19  O   UNL     1      -2.657   0.604   0.940  0.00  0.00    -0.269 OA
ATOM     20  N   UNL     1      -2.275   1.057  -1.203  0.00  0.00    -0.203 N 
ATOM     21  H   UNL     1      -1.795   0.842  -2.018  0.00  0.00    +0.178 HD
BRANCH  20  22
ATOM     22  N   UNL     1      -3.263   2.050  -1.214  0.00  0.00    -0.187 NA
ATOM     23  C   UNL     1      -3.535   2.683  -2.314  0.00  0.00    +0.138 C 
BRANCH  23  24
ATOM     24  C   UNL     1      -4.574   3.728  -2.326  0.00  0.00    -0.005 A 
ATOM     25  C   UNL     1      -5.263   4.042  -1.149  0.00  0.00    +0.010 A 
ATOM     26  C   UNL     1      -6.226   5.011  -1.160  0.00  0.00    +0.015 A 
ATOM     27  C   UNL     1      -6.523   5.688  -2.347  0.00  0.00    +0.059 A 
ATOM     28  C   UNL     1      -5.835   5.374  -3.523  0.00  0.00    +0.015 A 
ATOM     29  C   UNL     1      -4.868   4.409  -3.511  0.00  0.00    +0.010 A 
BRANCH  27  30
ATOM     30  C   UNL     1      -7.563   6.734  -2.358  0.00  0.00    +0.339 C 
ATOM     31  O   UNL     1      -8.162   7.006  -1.337  0.00  0.00    -0.245 OA
BRANCH  30  32
ATOM     32  O   UNL     1      -7.850   7.386  -3.502  0.00  0.00    -0.464 OA
ATOM     33  C   UNL     1      -8.869   8.386  -3.440  0.00  0.00    +0.280 C 
ENDBRANCH  30  32
ENDBRANCH  27  30
ENDBRANCH  23  24
ENDBRANCH  20  22
ENDBRANCH   3  18
TORSDOF 6
