REMARK  Name = ZINC36534173
REMARK  15 active torsions:
REMARK  status: ('A' for Active; 'I' for Inactive)
REMARK    1  A    between atoms: C_1  and  C_2
REMARK    2  A    between atoms: C_5  and  S_8
REMARK    3  A    between atoms: S_8  and  C_11
REMARK    4  A    between atoms: C_11  and  N_12
REMARK    5  A    between atoms: C_13  and  C_15
REMARK    6  A    between atoms: C_15  and  C_17
REMARK    7  A    between atoms: C_15  and  N_26
REMARK    8  A    between atoms: C_20  and  N_23
REMARK    9  A    between atoms: N_23  and  C_24
REMARK   10  A    between atoms: N_23  and  C_25
REMARK   11  A    between atoms: N_26  and  C_27
REMARK   12  A    between atoms: C_28  and  C_30
REMARK   13  A    between atoms: C_30  and  C_31
REMARK   14  A    between atoms: C_31  and  C_33
REMARK   15  A    between atoms: C_31  and  C_34
REMARK                            x       y       z     vdW  Elec       q    Type
REMARK                         _______ _______ _______ _____ _____    ______ ____
ROOT
ATOM      1  C   UNL     1       3.468  -4.874   3.579  0.00  0.00    +0.192 C 
ENDROOT
BRANCH   1   2
ATOM      2  C   UNL     1       2.540  -3.819   4.124  0.00  0.00    -0.018 A 
ATOM      3  C   UNL     1       1.197  -3.846   3.797  0.00  0.00    +0.008 A 
ATOM      4  C   UNL     1       0.343  -2.881   4.294  0.00  0.00    +0.023 A 
ATOM      5  C   UNL     1       0.836  -1.882   5.124  0.00  0.00    +0.029 A 
ATOM      6  C   UNL     1       2.186  -1.857   5.451  0.00  0.00    +0.023 A 
ATOM      7  C   UNL     1       3.033  -2.829   4.954  0.00  0.00    +0.008 A 
BRANCH   5   8
ATOM      8  N   UNL     1      -0.024  -0.904   5.629  0.00  0.00    -0.336 N 
ATOM      9  C   UNL     1      -1.466  -0.999   5.384  0.00  0.00    +0.129 C 
ATOM     10  C   UNL     1       0.514   0.217   6.403  0.00  0.00    +0.129 C 
ENDBRANCH   5   8
ENDBRANCH   1   2
BRANCH   1  12
ATOM     11  N   UNL     1       3.429  -3.971   1.276  0.00  0.00    -0.294 N 
ATOM     12  C   UNL     1       3.243  -5.024   2.097  0.00  0.00    +0.239 C 
ATOM     13  O   UNL     1       2.893  -6.093   1.642  0.00  0.00    -0.273 OA
ATOM     14  H   UNL     1       3.708  -3.117   1.640  0.00  0.00    +0.150 HD
BRANCH  11  15
ATOM     15  C   UNL     1       3.209  -4.118  -0.165  0.00  0.00    +0.278 C 
BRANCH  15  16
ATOM     16  S   UNL     1       1.524  -3.588  -0.577  0.00  0.00    +0.013 S 
ATOM     17  O   UNL     1       0.594  -4.171   0.326  0.00  0.00    -0.168 OA
ATOM     18  O   UNL     1       1.316  -3.665  -1.980  0.00  0.00    -0.168 OA
BRANCH  16  23
ATOM     19  C   UNL     1       1.399   2.312   0.677  0.00  0.00    +0.044 C 
ATOM     20  C   UNL     1       1.430   0.838   0.364  0.00  0.00    -0.050 A 
ATOM     21  C   UNL     1       1.796   0.407  -0.897  0.00  0.00    +0.005 A 
ATOM     22  C   UNL     1       1.825  -0.944  -1.185  0.00  0.00    +0.027 A 
ATOM     23  C   UNL     1       1.488  -1.865  -0.210  0.00  0.00    +0.090 A 
ATOM     24  C   UNL     1       1.124  -1.435   1.052  0.00  0.00    +0.027 A 
ATOM     25  C   UNL     1       1.099  -0.083   1.340  0.00  0.00    +0.005 A 
ENDBRANCH  16  23
ENDBRANCH  15  16
ENDBRANCH  11  15
ENDBRANCH   1  12
BRANCH   1  26
ATOM     26  N   UNL     1       3.202  -6.150   4.246  0.00  0.00    -0.289 N 
ATOM     27  C   UNL     1       1.875  -6.764   4.150  0.00  0.00    +0.133 C 
ATOM     28  C   UNL     1       4.177  -6.761   4.948  0.00  0.00    +0.217 C 
ATOM     29  O   UNL     1       5.276  -6.253   5.027  0.00  0.00    -0.276 OA
BRANCH  28  30
ATOM     30  C   UNL     1       3.903  -8.074   5.634  0.00  0.00    +0.104 C 
BRANCH  30  31
ATOM     31  C   UNL     1       5.167  -8.547   6.354  0.00  0.00    +0.025 C 
ATOM     32  C   UNL     1       5.511  -7.568   7.478  0.00  0.00    +0.013 C 
BRANCH  31  33
ATOM     33  C   UNL     1       4.931  -9.917   6.936  0.00  0.00    -0.044 A 
ATOM     34  C   UNL     1       3.922 -10.110   7.861  0.00  0.00    +0.004 A 
ATOM     35  C   UNL     1       3.705 -11.367   8.395  0.00  0.00    +0.000 A 
ATOM     36  C   UNL     1       4.497 -12.430   8.004  0.00  0.00    +0.000 A 
ATOM     37  C   UNL     1       5.505 -12.237   7.079  0.00  0.00    +0.000 A 
ATOM     38  C   UNL     1       5.719 -10.982   6.541  0.00  0.00    +0.004 A 
ENDBRANCH  31  33
ENDBRANCH  30  31
ENDBRANCH  28  30
ENDBRANCH   1  26
TORSDOF 10
