REMARK  Name = ZINC39695445
REMARK  10 active torsions:
REMARK  status: ('A' for Active; 'I' for Inactive)
REMARK    1  A    between atoms: C_1  and  C_2
REMARK    2  A    between atoms: C_2  and  N_3
REMARK    3  A    between atoms: C_7  and  C_9
REMARK    4  A    between atoms: C_9  and  N_10
REMARK    5  A    between atoms: C_11  and  C_13
REMARK    6  A    between atoms: C_24  and  C_26
REMARK    7  A    between atoms: C_28  and  O_34
REMARK    8  A    between atoms: C_30  and  O_32
REMARK    9  A    between atoms: O_32  and  C_33
REMARK   10  A    between atoms: O_34  and  C_35
REMARK                            x       y       z     vdW  Elec       q    Type
REMARK                         _______ _______ _______ _____ _____    ______ ____
ROOT
ATOM      1  C   UNL     1       5.127  -0.929   0.516  0.00  0.00    +0.100 C 
ATOM      2  C   UNL     1       5.134   0.613   0.616  0.00  0.00    +0.121 C 
ATOM      3  N   UNL     1       6.474   0.947   1.153  0.00  0.00    -0.296 N 
ATOM      4  C   UNL     1       7.391   0.002   0.471  0.00  0.00    +0.115 C 
ATOM      5  C   UNL     1       6.610  -1.326   0.420  0.00  0.00    -0.004 C 
ATOM      6  C   UNL     1       6.880  -2.046  -0.897  0.00  0.00    -0.010 C 
ATOM      7  C   UNL     1       8.348  -2.482  -0.943  0.00  0.00    -0.082 C 
ATOM      8  N   UNL     1       8.633  -3.369   0.191  0.00  0.00    +0.379 N 
ATOM      9  C   UNL     1       8.460  -2.641   1.453  0.00  0.00    -0.082 C 
ATOM     10  C   UNL     1       6.997  -2.212   1.601  0.00  0.00    -0.010 C 
ATOM     11  C   UNL     1       6.788   1.895   2.058  0.00  0.00    +0.247 C 
ATOM     12  O   UNL     1       5.906   2.508   2.627  0.00  0.00    -0.270 OA
ATOM     13  H   UNL     1       8.000  -4.155   0.168  0.00  0.00    -0.086 HD
ATOM     14  H   UNL     1       9.582  -3.704   0.124  0.00  0.00    -0.086 HD
ENDROOT
BRANCH  11  15
ATOM     15  C   UNL     1       8.205   2.189   2.360  0.00  0.00    +0.044 A 
ATOM     16  C   UNL     1       9.202   1.835   1.449  0.00  0.00    +0.059 A 
ATOM     17  C   UNL     1      10.528   2.113   1.735  0.00  0.00    +0.124 A 
ATOM     18  C   UNL     1      10.867   2.741   2.925  0.00  0.00    +0.091 A 
ATOM     19  C   UNL     1       9.879   3.095   3.833  0.00  0.00    +0.124 A 
ATOM     20  C   UNL     1       8.549   2.826   3.552  0.00  0.00    +0.059 A 
BRANCH  19  21
ATOM     21  O   UNL     1      10.216   3.710   4.997  0.00  0.00    -0.495 OA
ATOM     22  C   UNL     1      11.605   3.962   5.219  0.00  0.00    +0.277 C 
ENDBRANCH  19  21
BRANCH  17  23
ATOM     23  O   UNL     1      11.500   1.769   0.849  0.00  0.00    -0.495 OA
ATOM     24  C   UNL     1      12.846   2.086   1.208  0.00  0.00    +0.277 C 
ENDBRANCH  17  23
ENDBRANCH  11  15
BRANCH   1  26
ATOM     25  N   UNL     1       3.736  -2.553  -0.728  0.00  0.00    -0.317 N 
ATOM     26  C   UNL     1       4.385  -1.372  -0.719  0.00  0.00    +0.218 C 
ATOM     27  O   UNL     1       4.372  -0.665  -1.704  0.00  0.00    -0.275 OA
ATOM     28  H   UNL     1       3.746  -3.118   0.060  0.00  0.00    +0.149 HD
BRANCH  25  29
ATOM     29  C   UNL     1       3.014  -2.983  -1.929  0.00  0.00    +0.089 C 
BRANCH  29  34
ATOM     30  N   UNL     1       1.518  -4.285  -0.474  0.00  0.00    +0.382 N 
ATOM     31  C   UNL     1       0.134  -4.632  -0.861  0.00  0.00    -0.078 C 
ATOM     32  C   UNL     1       0.052  -4.304  -2.373  0.00  0.00    -0.020 C 
ATOM     33  C   UNL     1       1.462  -4.728  -2.863  0.00  0.00    -0.016 C 
ATOM     34  C   UNL     1       2.371  -4.348  -1.675  0.00  0.00    -0.051 C 
ATOM     35  H   UNL     1       1.538  -3.352  -0.092  0.00  0.00    -0.081 HD
BRANCH  30  37
ATOM     36  C   UNL     1       1.196  -5.086   1.817  0.00  0.00    -0.017 C 
ATOM     37  C   UNL     1       2.005  -5.242   0.528  0.00  0.00    -0.082 C 
ENDBRANCH  30  37
ENDBRANCH  29  34
ENDBRANCH  25  29
ENDBRANCH   1  26
TORSDOF 7
