REMARK  Name = ZINC64707613
REMARK  5 active torsions:
REMARK  status: ('A' for Active; 'I' for Inactive)
REMARK    1  A    between atoms: C_6  and  C_29
REMARK    2  A    between atoms: C_8  and  C_11
REMARK    3  A    between atoms: C_11  and  C_12
REMARK    4  A    between atoms: C_12  and  C_13
REMARK    5  A    between atoms: C_17  and  C_26
REMARK                            x       y       z     vdW  Elec       q    Type
REMARK                         _______ _______ _______ _____ _____    ______ ____
ROOT
ATOM      1  C   UNL     1       0.690  -3.188  -0.039  0.00  0.00    +0.043 C 
ENDROOT
BRANCH   1   8
ATOM      2  C   UNL     1      -0.018   1.345  -0.066  0.00  0.00    +0.001 A 
ATOM      3  C   UNL     1       1.163   2.098  -0.085  0.00  0.00    +0.002 A 
ATOM      4  C   UNL     1       2.389   1.532  -0.093  0.00  0.00    +0.026 A 
ATOM      5  C   UNL     1       2.527   0.117  -0.084  0.00  0.00    +0.043 A 
ATOM      6  N   UNL     1       3.585  -0.657  -0.089  0.00  0.00    -0.374 N 
ATOM      7  C   UNL     1       3.142  -2.055  -0.074  0.00  0.00    +0.137 C 
ATOM      8  C   UNL     1       1.630  -2.011  -0.057  0.00  0.00    -0.034 C 
ATOM      9  C   UNL     1       1.294  -0.701  -0.064  0.00  0.00    -0.000 A 
ATOM     10  C   UNL     1       0.000  -0.007  -0.055  0.00  0.00    +0.010 A 
ATOM     11  H   UNL     1       4.507  -0.355  -0.102  0.00  0.00    +0.161 HD
BRANCH   7  12
ATOM     12  C   UNL     1       3.629  -2.768  -1.309  0.00  0.00    -0.021 A 
ATOM     13  C   UNL     1       3.645  -2.111  -2.525  0.00  0.00    +0.009 A 
ATOM     14  C   UNL     1       4.092  -2.764  -3.658  0.00  0.00    +0.039 A 
ATOM     15  C   UNL     1       4.524  -4.077  -3.575  0.00  0.00    +0.123 A 
ATOM     16  C   UNL     1       4.507  -4.734  -2.357  0.00  0.00    +0.039 A 
ATOM     17  C   UNL     1       4.065  -4.078  -1.224  0.00  0.00    +0.009 A 
ATOM     18  F   UNL     1       4.960  -4.716  -4.683  0.00  0.00    -0.205 F 
ENDBRANCH   7  12
ENDBRANCH   1   8
BRANCH   1  19
ATOM     19  C   UNL     1      -0.750  -2.689   0.101  0.00  0.00    +0.101 C 
BRANCH  19  20
ATOM     20  C   UNL     1      -1.679  -3.867   0.244  0.00  0.00    +0.220 C 
ATOM     21  O   UNL     1      -1.226  -4.989   0.327  0.00  0.00    -0.275 OA
ATOM     22  N   UNL     1      -3.012  -3.673   0.281  0.00  0.00    -0.264 N 
ATOM     23  C   UNL     1      -3.585  -2.317   0.303  0.00  0.00    +0.168 C 
ATOM     24  C   UNL     1      -4.742  -2.319   1.313  0.00  0.00    +0.276 C 
ATOM     25  O   UNL     1      -5.699  -3.303   0.914  0.00  0.00    -0.476 OA
ATOM     26  C   UNL     1      -5.242  -4.548   0.620  0.00  0.00    +0.143 A 
ATOM     27  C   UNL     1      -3.904  -4.759   0.292  0.00  0.00    +0.078 A 
ATOM     28  C   UNL     1      -3.454  -6.032  -0.017  0.00  0.00    +0.027 A 
ATOM     29  C   UNL     1      -4.335  -7.098  -0.001  0.00  0.00    +0.002 A 
ATOM     30  C   UNL     1      -5.663  -6.893   0.322  0.00  0.00    +0.004 A 
ATOM     31  C   UNL     1      -6.118  -5.623   0.640  0.00  0.00    +0.047 A 
BRANCH  24  32
ATOM     32  C   UNL     1      -5.391  -0.959   1.340  0.00  0.00    +0.253 C 
ATOM     33  O   UNL     1      -6.539  -0.828   0.970  0.00  0.00    -0.272 OA
ATOM     34  N   UNL     1      -4.697   0.111   1.774  0.00  0.00    -0.326 N 
ATOM     35  H   UNL     1      -3.779   0.006   2.070  0.00  0.00    +0.145 HD
ATOM     36  H   UNL     1      -5.115   0.986   1.792  0.00  0.00    +0.145 HD
ENDBRANCH  24  32
ENDBRANCH  19  20
ENDBRANCH   1  19
TORSDOF 5
