REMARK  Name = ZINC36658165
REMARK  7 active torsions:
REMARK  status: ('A' for Active; 'I' for Inactive)
REMARK    1  A    between atoms: C_1  and  C_2
REMARK    2  A    between atoms: C_2  and  C_3
REMARK    3  A    between atoms: C_6  and  C_9
REMARK    4  A    between atoms: C_9  and  C_10
REMARK    5  A    between atoms: C_16  and  C_18
REMARK    6  A    between atoms: N_21  and  S_24
REMARK    7  A    between atoms: S_24  and  C_27
REMARK                            x       y       z     vdW  Elec       q    Type
REMARK                         _______ _______ _______ _____ _____    ______ ____
ROOT
ATOM      1  C   UNL     1       3.162  -0.686  -5.568  0.00  0.00    +0.223 A 
ATOM      2  N   UNL     1       4.310  -0.081  -5.471  0.00  0.00    -0.111 NA
ATOM      3  N   UNL     1       4.360   0.885  -6.320  0.00  0.00    -0.092 NA
ATOM      4  C   UNL     1       3.237   0.929  -6.993  0.00  0.00    +0.314 A 
ATOM      5  O   UNL     1       2.457  -0.068  -6.535  0.00  0.00    -0.409 OA
ATOM      6  N   UNL     1       2.913   1.832  -7.995  0.00  0.00    -0.238 N 
ATOM      7  C   UNL     1       3.799   2.782  -8.358  0.00  0.00    +0.224 C 
ATOM      8  O   UNL     1       4.878   2.846  -7.809  0.00  0.00    -0.275 OA
ATOM      9  H   UNL     1       2.050   1.781  -8.434  0.00  0.00    +0.159 HD
ENDROOT
BRANCH   7  10
ATOM     10  C   UNL     1       3.447   3.763  -9.446  0.00  0.00    +0.078 C 
ATOM     11  C   UNL     1       3.163   3.004 -10.745  0.00  0.00    +0.030 C 
ATOM     12  C   UNL     1       2.772   4.002 -11.839  0.00  0.00    +0.110 C 
ATOM     13  N   UNL     1       3.828   5.017 -11.952  0.00  0.00    -0.177 NA
ATOM     14  C   UNL     1       4.243   5.743 -10.744  0.00  0.00    +0.110 C 
ATOM     15  C   UNL     1       4.617   4.726  -9.661  0.00  0.00    +0.030 C 
BRANCH  13  16
ATOM     16  S   UNL     1       4.539   5.337 -13.414  0.00  0.00    +0.061 S 
ATOM     17  O   UNL     1       5.818   5.888 -13.132  0.00  0.00    -0.153 OA
ATOM     18  O   UNL     1       4.370   4.173 -14.211  0.00  0.00    -0.153 OA
BRANCH  16  19
ATOM     19  C   UNL     1       3.598   6.614 -14.182  0.00  0.00    +0.106 A 
ATOM     20  C   UNL     1       2.530   6.290 -14.997  0.00  0.00    +0.030 A 
ATOM     21  C   UNL     1       1.792   7.291 -15.600  0.00  0.00    +0.022 A 
ATOM     22  C   UNL     1       2.122   8.617 -15.387  0.00  0.00    +0.041 A 
ATOM     23  C   UNL     1       3.191   8.941 -14.571  0.00  0.00    +0.022 A 
ATOM     24  C   UNL     1       3.925   7.939 -13.964  0.00  0.00    +0.030 A 
ATOM     25 CL   UNL     1       1.196   9.875 -16.145  0.00  0.00    -0.084 Cl
ENDBRANCH  16  19
ENDBRANCH  13  16
ENDBRANCH   7  10
BRANCH   1  26
ATOM     26  C   UNL     1       2.707  -1.868  -4.752  0.00  0.00    +0.132 C 
BRANCH  26  30
ATOM     27  C   UNL     1       0.707  -0.490  -1.238  0.00  0.00    -0.048 A 
ATOM     28  C   UNL     1      -0.011  -0.719  -2.397  0.00  0.00    +0.004 A 
ATOM     29  C   UNL     1       0.636  -1.164  -3.534  0.00  0.00    +0.004 A 
ATOM     30  C   UNL     1       2.002  -1.381  -3.513  0.00  0.00    -0.038 A 
ATOM     31  C   UNL     1       2.720  -1.152  -2.354  0.00  0.00    +0.004 A 
ATOM     32  C   UNL     1       2.073  -0.702  -1.218  0.00  0.00    +0.004 A 
BRANCH  27  34
ATOM     33  C   UNL     1      -0.019   1.526   0.010  0.00  0.00    +0.009 C 
ATOM     34  C   UNL     1       0.002  -0.004   0.002  0.00  0.00    +0.032 C 
ENDBRANCH  27  34
ENDBRANCH  26  30
ENDBRANCH   1  26
TORSDOF 6
