REMARK  Name = ZINC11022298
REMARK  7 active torsions:
REMARK  status: ('A' for Active; 'I' for Inactive)
REMARK    1  A    between atoms: C_1  and  N_2
REMARK    2  A    between atoms: C_6  and  C_8
REMARK    3  A    between atoms: C_8  and  S_9
REMARK    4  A    between atoms: S_9  and  C_10
REMARK    5  A    between atoms: C_13  and  C_25
REMARK    6  A    between atoms: N_14  and  C_15
REMARK    7  A    between atoms: C_20  and  C_21
REMARK                            x       y       z     vdW  Elec       q    Type
REMARK                         _______ _______ _______ _____ _____    ______ ____
ROOT
ATOM      1  C   UNL     1       3.140   0.702   1.066  0.00  0.00    +0.197 A 
ATOM      2  N   UNL     1       4.212   0.099   0.604  0.00  0.00    -0.122 NA
ATOM      3  N   UNL     1       4.203   0.103  -0.681  0.00  0.00    -0.128 NA
ATOM      4  C   UNL     1       3.122   0.705  -1.121  0.00  0.00    +0.169 A 
ATOM      5  N   UNL     1       2.404   1.105  -0.015  0.00  0.00    -0.270 N 
ENDROOT
BRANCH   4   6
ATOM      6  C   UNL     1       2.745   0.913  -2.535  0.00  0.00    +0.021 A 
ATOM      7  C   UNL     1       1.439   1.276  -2.866  0.00  0.00    +0.012 A 
ATOM      8  C   UNL     1       1.094   1.474  -4.187  0.00  0.00    +0.002 A 
ATOM      9  C   UNL     1       2.038   1.304  -5.184  0.00  0.00    +0.020 A 
ATOM     10  C   UNL     1       3.335   0.939  -4.864  0.00  0.00    +0.042 A 
ATOM     11  C   UNL     1       3.693   0.743  -3.545  0.00  0.00    +0.031 A 
ATOM     12 CL   UNL     1       4.512   0.728  -6.122  0.00  0.00    -0.084 Cl
ENDBRANCH   4   6
BRANCH   5  13
ATOM     13  C   UNL     1       1.180   1.787   0.000  0.00  0.00    +0.062 A 
ATOM     14  C   UNL     1      -0.013   1.076   0.008  0.00  0.00    +0.027 A 
ATOM     15  C   UNL     1      -1.217   1.751   0.017  0.00  0.00    +0.002 A 
ATOM     16  C   UNL     1      -1.237   3.134   0.031  0.00  0.00    +0.001 A 
ATOM     17  C   UNL     1      -0.051   3.844   0.023  0.00  0.00    +0.014 A 
ATOM     18  C   UNL     1       1.157   3.175   0.008  0.00  0.00    +0.079 A 
BRANCH  18  19
ATOM     19  C   UNL     1       2.449   3.951   0.000  0.00  0.00    +0.419 C 
ATOM     20  F   UNL     1       2.170   5.322   0.010  0.00  0.00    -0.166 F 
ATOM     21  F   UNL     1       3.199   3.619   1.134  0.00  0.00    -0.166 F 
ATOM     22  F   UNL     1       3.178   3.631  -1.150  0.00  0.00    -0.166 F 
ENDBRANCH  18  19
ENDBRANCH   5  13
BRANCH   1  23
ATOM     23  S   UNL     1       2.726   0.943   2.762  0.00  0.00    -0.076 S 
BRANCH  23  24
ATOM     24  C   UNL     1       4.152   0.154   3.549  0.00  0.00    +0.173 C 
BRANCH  24  30
ATOM     25  C   UNL     1       5.650  -0.643   9.439  0.00  0.00    +0.129 C 
ATOM     26  N   UNL     1       5.787  -0.728   7.983  0.00  0.00    -0.302 N 
ATOM     27  C   UNL     1       4.836  -0.204   7.185  0.00  0.00    +0.306 C 
ATOM     28  O   UNL     1       3.865   0.340   7.673  0.00  0.00    -0.252 OA
ATOM     29  N   UNL     1       4.962  -0.282   5.845  0.00  0.00    -0.240 N 
ATOM     30  C   UNL     1       4.011   0.242   5.047  0.00  0.00    +0.231 C 
ATOM     31  O   UNL     1       3.042   0.784   5.534  0.00  0.00    -0.274 OA
ATOM     32  H   UNL     1       6.562  -1.162   7.593  0.00  0.00    +0.150 HD
ATOM     33  H   UNL     1       5.737  -0.716   5.455  0.00  0.00    +0.159 HD
ENDBRANCH  24  30
ENDBRANCH  23  24
ENDBRANCH   1  23
TORSDOF 6
