REMARK  Name = ZINC24612402
REMARK  9 active torsions:
REMARK  status: ('A' for Active; 'I' for Inactive)
REMARK    1  A    between atoms: C_1  and  C_2
REMARK    2  A    between atoms: C_6  and  C_8
REMARK    3  A    between atoms: C_8  and  S_9
REMARK    4  A    between atoms: S_9  and  N_12
REMARK    5  A    between atoms: C_15  and  C_18
REMARK    6  A    between atoms: N_20  and  C_21
REMARK    7  A    between atoms: C_26  and  C_27
REMARK    8  A    between atoms: N_29  and  C_30
REMARK    9  A    between atoms: C_30  and  C_31
REMARK                            x       y       z     vdW  Elec       q    Type
REMARK                         _______ _______ _______ _____ _____    ______ ____
ROOT
ATOM      1  C   UNL     1      -0.139  11.030   0.960  0.00  0.00    +0.220 C 
ATOM      2  O   UNL     1       0.785  10.994   1.744  0.00  0.00    -0.275 OA
ATOM      3  N   UNL     1      -1.162  11.884   1.163  0.00  0.00    -0.285 N 
ATOM      4  H   UNL     1      -1.955  11.982   0.407  0.00  0.00    +0.155 HD
ENDROOT
BRANCH   1   8
ATOM      5  N   UNL     1      -0.122   7.593  -1.512  0.00  0.00    -0.181 NA
ATOM      6  C   UNL     1      -1.398   8.318  -1.437  0.00  0.00    +0.110 C 
ATOM      7  C   UNL     1      -1.378   9.216  -0.192  0.00  0.00    +0.030 C 
ATOM      8  C   UNL     1      -0.144  10.121  -0.242  0.00  0.00    +0.078 C 
ATOM      9  C   UNL     1       1.121   9.260  -0.235  0.00  0.00    +0.030 C 
ATOM     10  C   UNL     1       1.130   8.362  -1.476  0.00  0.00    +0.110 C 
BRANCH   5  11
ATOM     11  S   UNL     1      -0.095   5.943  -1.640  0.00  0.00    +0.036 S 
ATOM     12  O   UNL     1       1.134   5.649  -2.291  0.00  0.00    -0.158 OA
ATOM     13  O   UNL     1      -1.335   5.606  -2.247  0.00  0.00    -0.158 OA
BRANCH  11  14
ATOM     14  C   UNL     1      -0.054   5.342   0.071  0.00  0.00    +0.220 C 
BRANCH  14  20
ATOM     15  C   UNL     1      -2.479   0.965   0.114  0.00  0.00    +0.044 C 
ATOM     16  C   UNL     1      -1.188   1.741   0.095  0.00  0.00    -0.050 A 
ATOM     17  C   UNL     1       0.021   1.071   0.081  0.00  0.00    +0.003 A 
ATOM     18  C   UNL     1       1.206   1.783   0.058  0.00  0.00    +0.001 A 
ATOM     19  C   UNL     1       1.181   3.166   0.055  0.00  0.00    +0.005 A 
ATOM     20  C   UNL     1      -0.027   3.836   0.074  0.00  0.00    -0.025 A 
ATOM     21  C   UNL     1      -1.212   3.123   0.098  0.00  0.00    +0.008 A 
ENDBRANCH  14  20
ENDBRANCH  11  14
ENDBRANCH   5  11
ENDBRANCH   1   8
BRANCH   3  22
ATOM     22  C   UNL     1      -1.216  12.641   2.331  0.00  0.00    +0.046 A 
ATOM     23  C   UNL     1      -0.580  12.195   3.482  0.00  0.00    +0.024 A 
ATOM     24  C   UNL     1      -0.634  12.947   4.638  0.00  0.00    +0.002 A 
ATOM     25  C   UNL     1      -1.321  14.150   4.660  0.00  0.00    +0.001 A 
ATOM     26  C   UNL     1      -1.957  14.609   3.527  0.00  0.00    +0.015 A 
ATOM     27  C   UNL     1      -1.907  13.862   2.348  0.00  0.00    +0.058 A 
BRANCH  27  28
ATOM     28  C   UNL     1      -2.582  14.350   1.131  0.00  0.00    +0.246 C 
ATOM     29  O   UNL     1      -2.617  13.653   0.134  0.00  0.00    -0.270 OA
ATOM     30  N   UNL     1      -3.159  15.567   1.122  0.00  0.00    -0.304 N 
ATOM     31  H   UNL     1      -3.128  16.197   2.023  0.00  0.00    +0.149 HD
BRANCH  30  32
ATOM     32  C   UNL     1      -3.830  16.052  -0.087  0.00  0.00    +0.179 C 
BRANCH  32  33
ATOM     33  C   UNL     1      -4.387  17.429   0.165  0.00  0.00    +0.122 A 
ATOM     34  C   UNL     1      -3.741  18.590  -0.045  0.00  0.00    +0.046 A 
ATOM     35  C   UNL     1      -4.630  19.626   0.323  0.00  0.00    +0.041 A 
ATOM     36  C   UNL     1      -5.766  19.036   0.736  0.00  0.00    +0.195 A 
ATOM     37  O   UNL     1      -5.615  17.706   0.633  0.00  0.00    -0.466 OA
ENDBRANCH  32  33
ENDBRANCH  30  32
ENDBRANCH  27  28
ENDBRANCH   3  22
TORSDOF 8
