REMARK  Name = ZINC24140768
REMARK  8 active torsions:
REMARK  status: ('A' for Active; 'I' for Inactive)
REMARK    1  A    between atoms: C_4  and  C_7
REMARK    2  A    between atoms: C_8  and  S_9
REMARK    3  A    between atoms: S_9  and  N_12
REMARK    4  A    between atoms: C_18  and  C_20
REMARK    5  A    between atoms: C_20  and  S_21
REMARK    6  A    between atoms: S_21  and  C_22
REMARK    7  A    between atoms: C_25  and  C_28
REMARK    8  A    between atoms: N_26  and  N_27
REMARK                            x       y       z     vdW  Elec       q    Type
REMARK                         _______ _______ _______ _____ _____    ______ ____
ROOT
ATOM      1  N   UNL     1       2.386  14.405   0.826  0.00  0.00    -0.174 NA
ATOM      2  C   UNL     1       3.773  14.084   1.190  0.00  0.00    +0.128 C 
ATOM      3  C   UNL     1       4.324  13.072   0.177  0.00  0.00    +0.125 C 
ATOM      4  N   UNL     1       3.356  11.976   0.035  0.00  0.00    -0.298 N 
ATOM      5  C   UNL     1       1.971  12.297  -0.335  0.00  0.00    +0.125 C 
ATOM      6  C   UNL     1       1.418  13.308   0.683  0.00  0.00    +0.128 C 
ATOM      7  C   UNL     1       3.734  10.697   0.235  0.00  0.00    +0.226 C 
ATOM      8  O   UNL     1       4.882  10.444   0.535  0.00  0.00    -0.275 OA
ENDROOT
BRANCH   1   9
ATOM      9  S   UNL     1       1.922  15.976   0.579  0.00  0.00    +0.054 S 
ATOM     10  O   UNL     1       0.519  16.025   0.802  0.00  0.00    -0.153 OA
ATOM     11  O   UNL     1       2.837  16.788   1.301  0.00  0.00    -0.153 OA
BRANCH   9  13
ATOM     12  C   UNL     1       1.135  16.597  -1.909  0.00  0.00    +0.028 C 
ATOM     13  C   UNL     1       2.172  16.331  -1.129  0.00  0.00    +0.153 C 
BRANCH  12  17
ATOM     14  C   UNL     1       1.738  17.454  -6.025  0.00  0.00    +0.000 A 
ATOM     15  C   UNL     1       0.457  17.453  -5.503  0.00  0.00    +0.001 A 
ATOM     16  C   UNL     1       0.255  17.176  -4.166  0.00  0.00    +0.008 A 
ATOM     17  C   UNL     1       1.345  16.895  -3.342  0.00  0.00    -0.024 A 
ATOM     18  C   UNL     1       2.635  16.903  -3.874  0.00  0.00    +0.008 A 
ATOM     19  C   UNL     1       2.823  17.176  -5.213  0.00  0.00    +0.001 A 
ENDBRANCH  12  17
ENDBRANCH   9  13
ENDBRANCH   1   9
BRANCH   7  20
ATOM     20  C   UNL     1       2.731   9.583   0.085  0.00  0.00    +0.173 C 
BRANCH  20  21
ATOM     21  S   UNL     1       3.538   7.997   0.415  0.00  0.00    -0.075 S 
BRANCH  21  22
ATOM     22  C   UNL     1       2.175   6.905   0.176  0.00  0.00    +0.209 A 
ATOM     23  N   UNL     1       0.950   7.248  -0.151  0.00  0.00    -0.121 NA
ATOM     24  N   UNL     1       0.209   6.203  -0.249  0.00  0.00    -0.126 NA
ATOM     25  C   UNL     1       0.914   5.126   0.019  0.00  0.00    +0.188 A 
ATOM     26  N   UNL     1       2.197   5.543   0.297  0.00  0.00    -0.223 N 
BRANCH  25  27
ATOM     27  C   UNL     1       0.426   3.737   0.017  0.00  0.00    +0.058 A 
ATOM     28  C   UNL     1      -0.866   3.275   0.026  0.00  0.00    +0.019 A 
ATOM     29  C   UNL     1      -1.081   1.915   0.017  0.00  0.00    +0.008 A 
ATOM     30  C   UNL     1      -0.013   1.076   0.008  0.00  0.00    +0.046 A 
ATOM     31  S   UNL     1       1.361   2.216   0.001  0.00  0.00    -0.093 S 
ENDBRANCH  25  27
BRANCH  26  32
ATOM     32  N   UNL     1       3.267   4.760   0.623  0.00  0.00    -0.295 N 
ATOM     33  H   UNL     1       3.151   3.668   0.687  0.00  0.00    +0.163 HD
ATOM     34  H   UNL     1       4.246   5.221   0.822  0.00  0.00    +0.163 HD
ENDBRANCH  26  32
ENDBRANCH  21  22
ENDBRANCH  20  21
ENDBRANCH   7  20
TORSDOF 8
