REMARK  Name = ZINC62993111
REMARK  13 active torsions:
REMARK  status: ('A' for Active; 'I' for Inactive)
REMARK    1  A    between atoms: C_1  and  C_2
REMARK    2  A    between atoms: C_2  and  N_3
REMARK    3  A    between atoms: N_3  and  C_4
REMARK    4  A    between atoms: N_3  and  C_6
REMARK    5  A    between atoms: C_4  and  C_5
REMARK    6  A    between atoms: C_9  and  C_12
REMARK    7  A    between atoms: N_24  and  C_27
REMARK    8  A    between atoms: C_27  and  C_28
REMARK    9  A    between atoms: C_28  and  C_29
REMARK   10  A    between atoms: C_32  and  O_37
REMARK   11  A    between atoms: C_33  and  O_35
REMARK   12  A    between atoms: O_35  and  C_36
REMARK   13  A    between atoms: O_37  and  C_38
REMARK                            x       y       z     vdW  Elec       q    Type
REMARK                         _______ _______ _______ _____ _____    ______ ____
ROOT
ATOM      1  C   UNL     1       0.880  -6.293   0.979  0.00  0.00    +0.058 C 
ATOM      2  C   UNL     1       2.045  -6.970   1.138  0.00  0.00    +0.176 C 
ATOM      3  C   UNL     1       2.233  -8.423   0.997  0.00  0.00    +0.231 C 
ATOM      4  O   UNL     1       1.393  -9.260   0.719  0.00  0.00    -0.283 OA
ATOM      5  C   UNL     1       3.666  -8.637   1.268  0.00  0.00    +0.068 A 
ATOM      6  C   UNL     1       4.474  -9.775   1.294  0.00  0.00    +0.019 A 
ATOM      7  C   UNL     1       5.802  -9.658   1.585  0.00  0.00    +0.047 A 
ATOM      8  C   UNL     1       6.358  -8.407   1.855  0.00  0.00    +0.130 A 
ATOM      9  C   UNL     1       5.568  -7.271   1.829  0.00  0.00    +0.051 A 
ATOM     10  C   UNL     1       4.212  -7.372   1.537  0.00  0.00    +0.147 A 
ATOM     11  O   UNL     1       3.247  -6.431   1.449  0.00  0.00    -0.451 OA
ATOM     12  C   UNL     1       6.158  -5.913   2.112  0.00  0.00    +0.130 C 
ATOM     13  N   UNL     1       7.456  -6.069   2.784  0.00  0.00    -0.266 NA
ATOM     14  C   UNL     1       8.292  -7.035   2.053  0.00  0.00    +0.318 C 
ATOM     15  O   UNL     1       7.683  -8.326   2.144  0.00  0.00    -0.476 OA
ENDROOT
BRANCH   1  19
ATOM     16  C   UNL     1       0.870  -2.053   1.014  0.00  0.00    +0.013 A 
ATOM     17  C   UNL     1       2.072  -2.739   1.042  0.00  0.00    +0.022 A 
ATOM     18  C   UNL     1       2.084  -4.117   1.031  0.00  0.00    +0.010 A 
ATOM     19  C   UNL     1       0.877  -4.823   0.991  0.00  0.00    -0.021 A 
ATOM     20  C   UNL     1      -0.334  -4.122   0.963  0.00  0.00    +0.010 A 
ATOM     21  C   UNL     1      -0.329  -2.744   0.980  0.00  0.00    +0.022 A 
BRANCH  16  22
ATOM     22  N   UNL     1       0.867  -0.655   1.025  0.00  0.00    -0.394 NA
ATOM     23  H   UNL     1      -0.085  -0.321   1.005  0.00  0.00    +0.126 HD
BRANCH  22  25
ATOM     24  C   UNL     1       0.708  -0.583   3.467  0.00  0.00    +0.022 C 
ATOM     25  C   UNL     1       1.530  -0.173   2.244  0.00  0.00    +0.081 C 
ENDBRANCH  22  25
BRANCH  22  26
ATOM     26  C   UNL     1       1.586  -0.154  -0.154  0.00  0.00    +0.081 C 
ATOM     27  C   UNL     1       0.829  -0.556  -1.422  0.00  0.00    +0.022 C 
ENDBRANCH  22  26
ENDBRANCH  16  22
ENDBRANCH   1  19
BRANCH  13  28
ATOM     28  C   UNL     1       8.139  -4.775   2.915  0.00  0.00    +0.092 C 
BRANCH  28  29
ATOM     29  C   UNL     1       9.356  -4.933   3.829  0.00  0.00    +0.050 C 
BRANCH  29  30
ATOM     30  C   UNL     1      10.057  -3.606   3.965  0.00  0.00    -0.042 A 
ATOM     31  C   UNL     1      11.055  -3.258   3.073  0.00  0.00    +0.007 A 
ATOM     32  C   UNL     1      11.701  -2.042   3.192  0.00  0.00    +0.049 A 
ATOM     33  C   UNL     1      11.349  -1.168   4.208  0.00  0.00    +0.161 A 
ATOM     34  C   UNL     1      10.345  -1.517   5.106  0.00  0.00    +0.162 A 
ATOM     35  C   UNL     1       9.698  -2.736   4.977  0.00  0.00    +0.053 A 
BRANCH  34  36
ATOM     36  O   UNL     1       9.996  -0.662   6.105  0.00  0.00    -0.491 OA
ATOM     37  C   UNL     1       8.957  -1.087   6.989  0.00  0.00    +0.277 C 
ENDBRANCH  34  36
BRANCH  33  38
ATOM     38  O   UNL     1      11.984   0.029   4.328  0.00  0.00    -0.491 OA
ATOM     39  C   UNL     1      13.005   0.320   3.371  0.00  0.00    +0.277 C 
ENDBRANCH  33  38
ENDBRANCH  29  30
ENDBRANCH  28  29
ENDBRANCH  13  28
TORSDOF 9
