REMARK  Name = ZINC63385189
REMARK  9 active torsions:
REMARK  status: ('A' for Active; 'I' for Inactive)
REMARK    1  A    between atoms: C_1  and  C_2
REMARK    2  A    between atoms: C_3  and  C_34
REMARK    3  A    between atoms: C_9  and  C_33
REMARK    4  A    between atoms: C_10  and  C_17
REMARK    5  A    between atoms: C_15  and  C_16
REMARK    6  A    between atoms: C_17  and  C_18
REMARK    7  A    between atoms: N_20  and  C_21
REMARK    8  A    between atoms: C_21  and  C_22
REMARK    9  A    between atoms: C_22  and  C_23
REMARK                            x       y       z     vdW  Elec       q    Type
REMARK                         _______ _______ _______ _____ _____    ______ ____
ROOT
ATOM      1  C   UNL     1      -0.018   1.503   0.010  0.00  0.00    +0.048 C 
ATOM      2  C   UNL     1       0.002  -0.004   0.002  0.00  0.00    -0.002 A 
ATOM      3  C   UNL     1       0.009  -0.802  -1.073  0.00  0.00    +0.106 A 
ATOM      4  O   UNL     1       0.028  -2.093  -0.695  0.00  0.00    -0.459 OA
ATOM      5  C   UNL     1       0.035  -2.202   0.649  0.00  0.00    +0.142 A 
ATOM      6  C   UNL     1       0.025  -0.893   1.172  0.00  0.00    +0.024 A 
ATOM      7  C   UNL     1       0.035  -0.683   2.544  0.00  0.00    +0.023 A 
ATOM      8  C   UNL     1       0.058  -1.782   3.403  0.00  0.00    +0.022 A 
ATOM      9  C   UNL     1       0.068  -1.597   4.857  0.00  0.00    -0.029 A 
ATOM     10  C   UNL     1       0.090  -2.703   5.644  0.00  0.00    +0.049 A 
ATOM     11  C   UNL     1       0.102  -3.985   5.054  0.00  0.00    +0.341 A 
ATOM     12  O   UNL     1       0.121  -4.968   5.772  0.00  0.00    -0.245 OA
ATOM     13  O   UNL     1       0.092  -4.149   3.722  0.00  0.00    -0.422 OA
ATOM     14  C   UNL     1       0.071  -3.092   2.879  0.00  0.00    +0.146 A 
ATOM     15  C   UNL     1       0.053  -3.290   1.510  0.00  0.00    +0.035 A 
ATOM     16  C   UNL     1       0.070  -4.690   0.952  0.00  0.00    +0.051 C 
ATOM     17  C   UNL     1       0.056  -0.217   5.462  0.00  0.00    +0.045 C 
ATOM     18  C   UNL     1      -0.004  -0.323  -2.502  0.00  0.00    +0.086 C 
ENDROOT
BRANCH  10  19
ATOM     19  C   UNL     1       0.102  -2.562   7.144  0.00  0.00    +0.138 C 
BRANCH  19  20
ATOM     20  C   UNL     1      -1.308  -2.658   7.669  0.00  0.00    +0.218 C 
ATOM     21  O   UNL     1      -2.231  -2.823   6.900  0.00  0.00    -0.275 OA
ATOM     22  N   UNL     1      -1.543  -2.558   8.992  0.00  0.00    -0.315 N 
ATOM     23  H   UNL     1      -0.804  -2.426   9.607  0.00  0.00    +0.149 HD
BRANCH  22  24
ATOM     24  C   UNL     1      -2.913  -2.651   9.502  0.00  0.00    +0.108 C 
BRANCH  24  25
ATOM     25  C   UNL     1      -2.901  -2.508  11.026  0.00  0.00    +0.052 C 
BRANCH  25  26
ATOM     26  C   UNL     1      -4.311  -2.603  11.550  0.00  0.00    -0.040 C 
ATOM     27  C   UNL     1      -4.928  -3.708  12.025  0.00  0.00    +0.002 A 
ATOM     28  C   UNL     1      -4.490  -5.099  12.189  0.00  0.00    +0.048 A 
ATOM     29  C   UNL     1      -5.355  -6.004  12.705  0.00  0.00    +0.124 A 
ATOM     30  C   UNL     1      -6.657  -5.644  13.087  0.00  0.00    +0.040 A 
ATOM     31  C   UNL     1      -7.131  -4.386  12.966  0.00  0.00    +0.029 A 
ATOM     32  C   UNL     1      -6.307  -3.355  12.435  0.00  0.00    +0.043 A 
ATOM     33  N   UNL     1      -6.532  -2.082  12.222  0.00  0.00    -0.380 N 
ATOM     34  C   UNL     1      -5.318  -1.480  11.658  0.00  0.00    +0.144 C 
ATOM     35  F   UNL     1      -4.955  -7.285  12.857  0.00  0.00    -0.205 F 
ATOM     36  H   UNL     1      -7.361  -1.614  12.409  0.00  0.00    +0.160 HD
ENDBRANCH  25  26
ENDBRANCH  24  25
ENDBRANCH  22  24
ENDBRANCH  19  20
ENDBRANCH  10  19
TORSDOF 5
