REMARK  Name = ZINC13894266
REMARK  12 active torsions:
REMARK  status: ('A' for Active; 'I' for Inactive)
REMARK    1  A    between atoms: C_1  and  C_2
REMARK    2  A    between atoms: C_2  and  C_3
REMARK    3  A    between atoms: C_3  and  C_5
REMARK    4  A    between atoms: C_3  and  C_6
REMARK    5  A    between atoms: C_11  and  O_12
REMARK    6  A    between atoms: O_12  and  C_13
REMARK    7  A    between atoms: C_13  and  C_14
REMARK    8  A    between atoms: C_14  and  O_15
REMARK    9  A    between atoms: O_15  and  C_16
REMARK   10  A    between atoms: C_17  and  O_33
REMARK   11  A    between atoms: C_19  and  C_23
REMARK   12  A    between atoms: O_33  and  C_34
REMARK                            x       y       z     vdW  Elec       q    Type
REMARK                         _______ _______ _______ _____ _____    ______ ____
ROOT
ATOM      1  C   UNL     1      -0.351  -2.663   0.942  0.00  0.00    +0.180 A 
ATOM      2  C   UNL     1      -1.470  -1.836   1.044  0.00  0.00    +0.164 A 
ATOM      3  C   UNL     1      -1.366  -0.493   0.748  0.00  0.00    +0.057 A 
ATOM      4  C   UNL     1      -0.134   0.036   0.332  0.00  0.00    -0.019 A 
ATOM      5  C   UNL     1       0.986  -0.802   0.232  0.00  0.00    +0.032 A 
ATOM      6  C   UNL     1       0.872  -2.140   0.536  0.00  0.00    +0.087 A 
ATOM      7 CL   UNL     1       2.259  -3.177   0.412  0.00  0.00    -0.080 Cl
ENDROOT
BRANCH   4   8
ATOM      8  C   UNL     1      -0.018   1.458   0.010  0.00  0.00    +0.026 C 
ATOM      9  C   UNL     1      -0.972   2.068  -0.781  0.00  0.00    +0.100 C 
ATOM     10  C   UNL     1      -1.992   1.282  -1.503  0.00  0.00    +0.255 C 
ATOM     11  O   UNL     1      -2.021   0.068  -1.420  0.00  0.00    -0.270 OA
ATOM     12  N   UNL     1      -2.896   1.946  -2.252  0.00  0.00    -0.263 N 
ATOM     13  C   UNL     1      -2.873   3.282  -2.358  0.00  0.00    +0.143 C 
ATOM     14  S   UNL     1      -4.055   4.037  -3.339  0.00  0.00    -0.018 S 
ATOM     15  N   UNL     1      -1.974   4.059  -1.737  0.00  0.00    -0.263 N 
ATOM     16  C   UNL     1      -1.013   3.534  -0.948  0.00  0.00    +0.255 C 
ATOM     17  O   UNL     1      -0.204   4.250  -0.390  0.00  0.00    -0.270 OA
ATOM     18  H   UNL     1      -3.576   1.445  -2.730  0.00  0.00    +0.157 HD
ATOM     19  H   UNL     1      -2.016   5.020  -1.857  0.00  0.00    +0.157 HD
ENDBRANCH   4   8
BRANCH   2  20
ATOM     20  O   UNL     1      -2.664  -2.353   1.441  0.00  0.00    -0.491 OA
ATOM     21  C   UNL     1      -3.768  -1.449   1.523  0.00  0.00    +0.277 C 
ENDBRANCH   2  20
BRANCH   1  22
ATOM     22  O   UNL     1      -0.456  -3.983   1.240  0.00  0.00    -0.483 OA
BRANCH  22  23
ATOM     23  C   UNL     1      -0.211  -4.364   2.595  0.00  0.00    +0.270 C 
BRANCH  23  24
ATOM     24  C   UNL     1      -0.376  -5.879   2.737  0.00  0.00    +0.270 C 
BRANCH  24  25
ATOM     25  O   UNL     1       0.632  -6.541   1.970  0.00  0.00    -0.488 OA
BRANCH  25  31
ATOM     26  C   UNL     1       1.577  -8.608   1.266  0.00  0.00    -0.003 A 
ATOM     27  C   UNL     1       1.569  -9.989   1.286  0.00  0.00    +0.007 A 
ATOM     28  C   UNL     1       0.617 -10.666   2.025  0.00  0.00    +0.001 A 
ATOM     29  C   UNL     1      -0.331  -9.963   2.746  0.00  0.00    +0.004 A 
ATOM     30  C   UNL     1      -0.324  -8.582   2.734  0.00  0.00    +0.046 A 
ATOM     31  C   UNL     1       0.627  -7.900   1.988  0.00  0.00    +0.124 A 
BRANCH  26  32
ATOM     32  C   UNL     1       2.615  -7.870   0.461  0.00  0.00    +0.019 C 
ATOM     33  C   UNL     1       4.011  -8.240   0.969  0.00  0.00    +0.012 C 
BRANCH  32  35
ATOM     34  C   UNL     1       3.459  -7.420  -1.847  0.00  0.00    +0.004 C 
ATOM     35  C   UNL     1       2.489  -8.260  -1.013  0.00  0.00    +0.004 C 
ENDBRANCH  32  35
ENDBRANCH  26  32
ENDBRANCH  25  31
ENDBRANCH  24  25
ENDBRANCH  23  24
ENDBRANCH  22  23
ENDBRANCH   1  22
TORSDOF 9
