REMARK  Name = ZINC39852180
REMARK  5 active torsions:
REMARK  status: ('A' for Active; 'I' for Inactive)
REMARK    1  A    between atoms: C_5  and  C_7
REMARK    2  A    between atoms: N_9  and  N_10
REMARK    3  A    between atoms: C_11  and  C_13
REMARK    4  A    between atoms: C_16  and  N_19
REMARK    5  A    between atoms: C_22  and  C_24
REMARK                            x       y       z     vdW  Elec       q    Type
REMARK                         _______ _______ _______ _____ _____    ______ ____
ROOT
ATOM      1  C   UNL     1      -1.006  -6.428  -0.026  0.00  0.00    +0.038 A 
ATOM      2  C   UNL     1       0.203  -7.105  -0.206  0.00  0.00    +0.015 A 
ATOM      3  C   UNL     1       0.226  -8.482  -0.214  0.00  0.00    +0.028 A 
ATOM      4  C   UNL     1      -0.954  -9.199  -0.044  0.00  0.00    +0.066 A 
ATOM      5  C   UNL     1      -2.159  -8.528   0.136  0.00  0.00    +0.028 A 
ATOM      6  C   UNL     1      -2.188  -7.152   0.152  0.00  0.00    +0.015 A 
ENDROOT
BRANCH   4   7
ATOM      7  N   UNL     1      -0.928 -10.596  -0.053  0.00  0.00    -0.231 N 
ATOM      8  C   UNL     1      -0.021 -11.378   0.559  0.00  0.00    +0.082 A 
ATOM      9  C   UNL     1      -0.376 -12.697   0.331  0.00  0.00    +0.011 A 
ATOM     10  C   UNL     1      -1.508 -12.686  -0.468  0.00  0.00    +0.169 A 
ATOM     11  N   UNL     1      -1.848 -11.439  -0.700  0.00  0.00    -0.161 NA
ATOM     12  C   UNL     1       0.381 -13.856   0.921  0.00  0.00    +0.047 C 
ATOM     13  C   UNL     1       1.864 -13.524   1.097  0.00  0.00    +0.080 C 
ATOM     14  C   UNL     1       2.055 -12.132   1.637  0.00  0.00    +0.114 A 
ATOM     15  C   UNL     1       1.179 -11.107   1.363  0.00  0.00    +0.042 A 
ATOM     16  C   UNL     1       1.714  -9.922   1.995  0.00  0.00    +0.051 A 
ATOM     17  C   UNL     1       2.842 -10.320   2.619  0.00  0.00    +0.196 A 
ATOM     18  O   UNL     1       3.019 -11.639   2.413  0.00  0.00    -0.467 OA
BRANCH  10  19
ATOM     19  C   UNL     1      -2.232 -13.904  -0.982  0.00  0.00    +0.436 C 
ATOM     20  F   UNL     1      -3.216 -14.283  -0.063  0.00  0.00    -0.164 F 
ATOM     21  F   UNL     1      -2.830 -13.607  -2.211  0.00  0.00    -0.164 F 
ATOM     22  F   UNL     1      -1.321 -14.953  -1.148  0.00  0.00    -0.164 F 
ENDBRANCH  10  19
ENDBRANCH   4   7
BRANCH   1  24
ATOM     23  N   UNL     1       0.108  -4.256  -0.188  0.00  0.00    -0.230 N 
ATOM     24  C   UNL     1      -1.033  -4.952  -0.017  0.00  0.00    +0.260 C 
ATOM     25  O   UNL     1      -2.086  -4.365   0.145  0.00  0.00    -0.269 OA
ATOM     26  H   UNL     1       0.947  -4.724  -0.318  0.00  0.00    +0.173 HD
BRANCH  23  29
ATOM     27  C   UNL     1       1.223  -2.159  -0.351  0.00  0.00    +0.262 C 
ATOM     28  O   UNL     1       2.275  -2.746  -0.513  0.00  0.00    -0.269 OA
ATOM     29  N   UNL     1       0.082  -2.855  -0.179  0.00  0.00    -0.230 N 
ATOM     30  H   UNL     1      -0.758  -2.386  -0.050  0.00  0.00    +0.173 HD
BRANCH  27  35
ATOM     31  C   UNL     1      -0.031   1.376  -0.150  0.00  0.00    +0.001 A 
ATOM     32  C   UNL     1       1.143   2.089  -0.326  0.00  0.00    +0.001 A 
ATOM     33  C   UNL     1       2.342   1.425  -0.510  0.00  0.00    +0.021 A 
ATOM     34  C   UNL     1       2.376   0.044  -0.519  0.00  0.00    +0.053 A 
ATOM     35  C   UNL     1       1.195  -0.681  -0.342  0.00  0.00    +0.056 A 
ATOM     36  C   UNL     1      -0.012  -0.003  -0.156  0.00  0.00    +0.014 A 
ATOM     37 CL   UNL     1       3.882  -0.788  -0.751  0.00  0.00    -0.083 Cl
ENDBRANCH  27  35
ENDBRANCH  23  29
ENDBRANCH   1  24
TORSDOF 5
