REMARK  Name = ZINC59788626
REMARK  10 active torsions:
REMARK  status: ('A' for Active; 'I' for Inactive)
REMARK    1  A    between atoms: C_1  and  C_2
REMARK    2  A    between atoms: C_2  and  C_30
REMARK    3  A    between atoms: C_4  and  N_10
REMARK    4  A    between atoms: C_6  and  C_8
REMARK    5  A    between atoms: C_6  and  C_9
REMARK    6  A    between atoms: C_11  and  C_13
REMARK    7  A    between atoms: C_13  and  S_14
REMARK    8  A    between atoms: S_14  and  C_15
REMARK    9  A    between atoms: C_18  and  C_21
REMARK   10  A    between atoms: C_25  and  N_27
REMARK                            x       y       z     vdW  Elec       q    Type
REMARK                         _______ _______ _______ _____ _____    ______ ____
ROOT
ATOM      1  C   UNL     1       4.312  -0.866  -4.426  0.00  0.00    +0.173 C 
ENDROOT
BRANCH   1   3
ATOM      2  N   UNL     1       2.615  -0.819  -2.626  0.00  0.00    -0.312 N 
ATOM      3  C   UNL     1       3.770  -0.334  -3.123  0.00  0.00    +0.224 C 
ATOM      4  O   UNL     1       4.374   0.530  -2.523  0.00  0.00    -0.275 OA
ATOM      5  H   UNL     1       2.133  -1.510  -3.106  0.00  0.00    +0.149 HD
BRANCH   2   9
ATOM      6  C   UNL     1      -0.019   1.528   0.010  0.00  0.00    -0.010 C 
ATOM      7  C   UNL     1       0.002  -0.004   0.002  0.00  0.00    -0.072 C 
ATOM      8  C   UNL     1       0.573  -0.505  -1.321  0.00  0.00    +0.009 C 
ATOM      9  C   UNL     1       2.088  -0.301  -1.357  0.00  0.00    +0.070 C 
ATOM     10  C   UNL     1       2.703  -1.086  -0.198  0.00  0.00    +0.009 C 
ATOM     11  C   UNL     1       2.147  -0.590   1.133  0.00  0.00    -0.072 C 
ATOM     12  N   UNL     1       0.697  -0.529   1.164  0.00  0.00    +0.386 N 
ATOM     13  C   UNL     1       2.769   0.766   1.481  0.00  0.00    -0.010 C 
ATOM     14  C   UNL     1       2.600  -1.589   2.223  0.00  0.00    -0.010 C 
ATOM     15  C   UNL     1      -1.468  -0.478   0.079  0.00  0.00    -0.010 C 
ATOM     16  H   UNL     1       0.416   0.021   1.982  0.00  0.00    -0.084 HD
ATOM     17  H   UNL     1       0.341  -1.472   1.351  0.00  0.00    -0.084 HD
ENDBRANCH   2   9
ENDBRANCH   1   3
BRANCH   1  18
ATOM     18  S   UNL     1       5.867  -0.020  -4.824  0.00  0.00    -0.077 S 
BRANCH  18  19
ATOM     19  C   UNL     1       6.365  -0.743  -6.352  0.00  0.00    +0.185 A 
ATOM     20  N   UNL     1       5.719  -1.679  -7.011  0.00  0.00    -0.201 NA
ATOM     21  H   UNL     1       8.146   0.233  -6.816  0.00  0.00    +0.191 HD
ATOM     22  C   UNL     1       6.389  -1.987  -8.131  0.00  0.00    +0.182 A 
ATOM     23  N   UNL     1       7.472  -1.246  -8.195  0.00  0.00    -0.152 NA
ATOM     24  N   UNL     1       7.476  -0.428  -7.054  0.00  0.00    -0.253 N 
BRANCH  22  25
ATOM     25  C   UNL     1       5.975  -2.999  -9.134  0.00  0.00    +0.023 A 
ATOM     26  C   UNL     1       4.796  -3.720  -8.955  0.00  0.00    +0.012 A 
ATOM     27  C   UNL     1       4.415  -4.659  -9.891  0.00  0.00    +0.003 A 
ATOM     28  C   UNL     1       5.202  -4.887 -11.006  0.00  0.00    +0.033 A 
ATOM     29  C   UNL     1       6.374  -4.175 -11.189  0.00  0.00    +0.127 A 
ATOM     30  C   UNL     1       6.761  -3.228 -10.261  0.00  0.00    +0.044 A 
BRANCH  29  31
ATOM     31  N   UNL     1       7.211  -4.424 -12.383  0.00  0.00    +0.056 N 
ATOM     32  O   UNL     1       6.871  -5.250 -13.198  0.00  0.00    -0.126 OA
ATOM     33  O   UNL     1       8.235  -3.802 -12.544  0.00  0.00    -0.126 OA
ENDBRANCH  29  31
ENDBRANCH  22  25
ENDBRANCH  18  19
ENDBRANCH   1  18
TORSDOF 6
