REMARK  Name = ZINC44162882
REMARK  9 active torsions:
REMARK  status: ('A' for Active; 'I' for Inactive)
REMARK    1  A    between atoms: C_1  and  C_2
REMARK    2  A    between atoms: C_3  and  C_25
REMARK    3  A    between atoms: C_5  and  C_13
REMARK    4  A    between atoms: N_6  and  C_7
REMARK    5  A    between atoms: C_7  and  C_8
REMARK    6  A    between atoms: C_16  and  C_18
REMARK    7  A    between atoms: N_27  and  C_28
REMARK    8  A    between atoms: C_28  and  C_29
REMARK    9  A    between atoms: C_29  and  N_30
REMARK                            x       y       z     vdW  Elec       q    Type
REMARK                         _______ _______ _______ _____ _____    ______ ____
ROOT
ATOM      1  C   UNL     1       0.170   1.499   0.011  0.00  0.00    +0.064 C 
ATOM      2  C   UNL     1       0.087  -0.006   0.002  0.00  0.00    +0.029 A 
ATOM      3  C   UNL     1      -0.162  -0.794  -1.100  0.00  0.00    +0.058 A 
ATOM      4  C   UNL     1      -0.152  -2.143  -0.655  0.00  0.00    +0.042 A 
ATOM      5  C   UNL     1       0.098  -2.120   0.679  0.00  0.00    +0.069 A 
ATOM      6  N   UNL     1       0.248  -0.813   1.071  0.00  0.00    -0.337 N 
ENDROOT
BRANCH   5   7
ATOM      7  C   UNL     1       0.197  -3.304   1.560  0.00  0.00    +0.095 A 
ATOM      8  C   UNL     1       0.314  -3.150   2.919  0.00  0.00    +0.077 A 
ATOM      9  S   UNL     1       0.390  -4.858   3.442  0.00  0.00    -0.075 S 
ATOM     10  C   UNL     1       0.260  -5.594   1.818  0.00  0.00    +0.110 A 
ATOM     11  N   UNL     1       0.168  -4.521   1.048  0.00  0.00    -0.238 NA
BRANCH  10  12
ATOM     12  C   UNL     1       0.251  -7.022   1.436  0.00  0.00    +0.025 A 
ATOM     13  C   UNL     1       0.146  -7.389   0.094  0.00  0.00    +0.012 A 
ATOM     14  C   UNL     1       0.139  -8.723  -0.256  0.00  0.00    +0.001 A 
ATOM     15  C   UNL     1       0.236  -9.698   0.721  0.00  0.00    +0.001 A 
ATOM     16  C   UNL     1       0.341  -9.343   2.054  0.00  0.00    +0.020 A 
ATOM     17  C   UNL     1       0.355  -8.011   2.417  0.00  0.00    +0.051 A 
ATOM     18 CL   UNL     1       0.494  -7.566   4.090  0.00  0.00    -0.083 Cl
ENDBRANCH  10  12
ENDBRANCH   5   7
BRANCH   3  19
ATOM     19  C   UNL     1      -0.394  -0.327  -2.478  0.00  0.00    +0.246 C 
ATOM     20  O   UNL     1      -0.376   0.863  -2.727  0.00  0.00    -0.270 OA
ATOM     21  N   UNL     1      -0.626  -1.219  -3.461  0.00  0.00    -0.313 N 
ATOM     22  H   UNL     1      -0.640  -2.168  -3.262  0.00  0.00    +0.149 HD
BRANCH  21  23
ATOM     23  C   UNL     1      -0.857  -0.754  -4.831  0.00  0.00    +0.086 C 
BRANCH  23  24
ATOM     24  C   UNL     1      -1.092  -1.958  -5.745  0.00  0.00    -0.060 C 
BRANCH  24  25
ATOM     25  N   UNL     1      -1.324  -1.492  -7.119  0.00  0.00    +0.381 N 
ATOM     26  C   UNL     1      -2.564  -0.710  -7.166  0.00  0.00    -0.079 C 
ATOM     27  C   UNL     1      -2.768  -0.154  -8.578  0.00  0.00    -0.019 C 
ATOM     28  C   UNL     1      -2.858  -1.317  -9.570  0.00  0.00    -0.004 C 
ATOM     29  C   UNL     1      -1.591  -2.169  -9.459  0.00  0.00    -0.019 C 
ATOM     30  C   UNL     1      -1.431  -2.650  -8.015  0.00  0.00    -0.079 C 
ATOM     31  H   UNL     1      -0.551  -0.913  -7.411  0.00  0.00    -0.082 HD
ENDBRANCH  24  25
ENDBRANCH  23  24
ENDBRANCH  21  23
ENDBRANCH   3  19
BRANCH   6  32
ATOM     32  C   UNL     1       0.535  -0.365   2.436  0.00  0.00    +0.164 C 
BRANCH  32  33
ATOM     33  C   UNL     1      -0.759  -0.114   3.165  0.00  0.00    +0.009 A 
ATOM     34  C   UNL     1      -1.498  -0.969   3.913  0.00  0.00    +0.013 A 
ATOM     35  C   UNL     1      -2.666  -0.514   4.495  0.00  0.00    +0.008 A 
ATOM     36  C   UNL     1      -3.038   0.775   4.302  0.00  0.00    +0.045 A 
ATOM     37  S   UNL     1      -1.713   1.391   3.275  0.00  0.00    -0.100 S 
ENDBRANCH  32  33
ENDBRANCH   6  32
TORSDOF 8
