REMARK  Name = ZINC34786471
REMARK  8 active torsions:
REMARK  status: ('A' for Active; 'I' for Inactive)
REMARK    1  A    between atoms: C_1  and  C_2
REMARK    2  A    between atoms: C_2  and  N_3
REMARK    3  A    between atoms: N_3  and  C_4
REMARK    4  A    between atoms: N_3  and  N_6
REMARK    5  A    between atoms: C_4  and  C_5
REMARK    6  A    between atoms: N_6  and  N_27
REMARK    7  A    between atoms: C_17  and  C_22
REMARK    8  A    between atoms: C_19  and  C_21
REMARK                            x       y       z     vdW  Elec       q    Type
REMARK                         _______ _______ _______ _____ _____    ______ ____
ROOT
ATOM      1  N   UNL     1      -1.992   0.035   1.282  0.00  0.00    -0.176 N 
ATOM      2  C   UNL     1      -3.075   0.882   1.125  0.00  0.00    +0.164 A 
ATOM      3  C   UNL     1      -3.643   1.092  -0.163  0.00  0.00    +0.054 A 
ATOM      4  C   UNL     1      -3.238   0.517  -1.447  0.00  0.00    -0.025 A 
ATOM      5  C   UNL     1      -3.949   0.882  -2.533  0.00  0.00    -0.004 A 
ATOM      6  S   UNL     1      -5.184   1.998  -1.923  0.00  0.00    -0.073 S 
ATOM      7  C   UNL     1      -4.741   1.973  -0.205  0.00  0.00    +0.116 A 
ATOM      8  N   UNL     1      -5.201   2.557   0.884  0.00  0.00    -0.203 NA
ATOM      9  C   UNL     1      -4.631   2.324   2.057  0.00  0.00    +0.254 A 
ATOM     10  N   UNL     1      -3.597   1.502   2.169  0.00  0.00    -0.192 NA
ATOM     11  N   UNL     1      -5.132   2.953   3.197  0.00  0.00    -0.202 N 
ATOM     12  C   UNL     1      -6.186   3.809   3.242  0.00  0.00    +0.045 A 
ATOM     13  C   UNL     1      -6.347   4.193   4.529  0.00  0.00    +0.048 A 
ATOM     14  C   UNL     1      -5.365   3.555   5.296  0.00  0.00    +0.061 A 
ATOM     15  N   UNL     1      -4.642   2.809   4.502  0.00  0.00    -0.169 NA
ATOM     16  C   UNL     1      -5.177   3.700   6.784  0.00  0.00    +0.067 C 
ATOM     17  C   UNL     1      -7.024   4.252   2.070  0.00  0.00    +0.066 C 
ATOM     18  C   UNL     1      -3.737   0.439  -3.949  0.00  0.00    +0.043 C 
ATOM     19  C   UNL     1      -2.350  -0.211  -4.050  0.00  0.00    +0.005 C 
ATOM     20  C   UNL     1      -2.190  -1.208  -2.898  0.00  0.00    +0.005 C 
ATOM     21  C   UNL     1      -2.067  -0.454  -1.573  0.00  0.00    +0.037 C 
ENDROOT
BRANCH   1  22
ATOM     22  N   UNL     1      -1.957  -0.840   2.331  0.00  0.00    -0.206 NA
ATOM     23  C   UNL     1      -3.048  -1.821   2.235  0.00  0.00    +0.135 C 
ATOM     24  C   UNL     1      -2.936  -2.816   3.393  0.00  0.00    +0.177 C 
ATOM     25  O   UNL     1      -2.957  -2.102   4.632  0.00  0.00    -0.377 OA
ATOM     26  C   UNL     1      -1.907  -1.139   4.759  0.00  0.00    +0.177 C 
ATOM     27  C   UNL     1      -2.009  -0.127   3.615  0.00  0.00    +0.135 C 
ENDBRANCH   1  22
BRANCH   1  28
ATOM     28  N   UNL     1      -0.959   0.074   0.390  0.00  0.00    -0.211 NA
BRANCH  28  30
ATOM     29  C   UNL     1      -1.313   2.430  -0.174  0.00  0.00    +0.022 C 
ATOM     30  C   UNL     1      -0.326   1.399   0.376  0.00  0.00    +0.104 C 
ENDBRANCH  28  30
BRANCH  28  31
ATOM     31  C   UNL     1       0.026  -0.977   0.679  0.00  0.00    +0.104 C 
ATOM     32  C   UNL     1      -0.601  -2.348   0.420  0.00  0.00    +0.022 C 
ENDBRANCH  28  31
ENDBRANCH   1  28
TORSDOF 4
