REMARK  Name = ZINC39324391
REMARK  7 active torsions:
REMARK  status: ('A' for Active; 'I' for Inactive)
REMARK    1  A    between atoms: C_1  and  C_2
REMARK    2  A    between atoms: C_2  and  C_3
REMARK    3  A    between atoms: C_3  and  N_4
REMARK    4  A    between atoms: C_7  and  C_8
REMARK    5  A    between atoms: C_16  and  C_24
REMARK    6  A    between atoms: C_18  and  C_22
REMARK    7  A    between atoms: C_19  and  N_21
REMARK                            x       y       z     vdW  Elec       q    Type
REMARK                         _______ _______ _______ _____ _____    ______ ____
ROOT
ATOM      1  N   UNL     1      -2.026  -2.133  -0.780  0.00  0.00    -0.294 NA
ATOM      2  C   UNL     1      -1.180  -2.719  -1.835  0.00  0.00    +0.123 C 
ATOM      3  C   UNL     1      -0.866  -4.139  -1.412  0.00  0.00    +0.010 C 
ATOM      4  C   UNL     1       0.366  -4.664  -1.583  0.00  0.00    +0.023 C 
ATOM      5  C   UNL     1      -1.956  -4.927  -0.805  0.00  0.00    +0.136 C 
ATOM      6  C   UNL     1      -3.095  -4.322  -0.459  0.00  0.00    -0.000 C 
ATOM      7  C   UNL     1      -3.300  -2.846  -0.682  0.00  0.00    +0.120 C 
ATOM      8  C   UNL     1      -4.216  -5.113   0.172  0.00  0.00    +0.102 C 
ATOM      9  C   UNL     1      -4.030  -6.581  -0.085  0.00  0.00    +0.098 C 
ATOM     10  C   UNL     1      -2.823  -7.071  -0.462  0.00  0.00    +0.199 C 
ATOM     11  O   UNL     1      -1.766  -6.256  -0.616  0.00  0.00    -0.441 OA
ENDROOT
BRANCH   4  12
ATOM     12  C   UNL     1       1.370  -3.937  -2.364  0.00  0.00    +0.013 A 
ATOM     13  C   UNL     1       2.712  -4.226  -2.545  0.00  0.00    +0.015 A 
ATOM     14  C   UNL     1       3.461  -3.384  -3.334  0.00  0.00    +0.008 A 
ATOM     15  C   UNL     1       2.866  -2.304  -3.905  0.00  0.00    +0.046 A 
ATOM     16  S   UNL     1       1.181  -2.452  -3.336  0.00  0.00    -0.097 S 
ENDBRANCH   4  12
BRANCH   8  17
ATOM     17  C   UNL     1      -4.225  -4.867   1.658  0.00  0.00    +0.002 A 
ATOM     18  C   UNL     1      -5.210  -4.349   2.432  0.00  0.00    +0.012 A 
ATOM     19  C   UNL     1      -4.994  -4.215   3.791  0.00  0.00    +0.008 A 
ATOM     20  C   UNL     1      -3.803  -4.604   4.309  0.00  0.00    +0.045 A 
ATOM     21  S   UNL     1      -2.943  -5.189   2.858  0.00  0.00    -0.101 S 
ENDBRANCH   8  17
BRANCH  10  22
ATOM     22  N   UNL     1      -2.679  -8.417  -0.689  0.00  0.00    -0.328 N 
ATOM     23  H   UNL     1      -3.438  -9.011  -0.580  0.00  0.00    +0.145 HD
ATOM     24  H   UNL     1      -1.819  -8.774  -0.959  0.00  0.00    +0.145 HD
ENDBRANCH  10  22
BRANCH   9  25
ATOM     25  C   UNL     1      -5.139  -7.474   0.072  0.00  0.00    +0.101 C 
ATOM     26  N   UNL     1      -6.019  -8.182   0.196  0.00  0.00    -0.191 NA
ENDBRANCH   9  25
BRANCH   1  27
ATOM     27  C   UNL     1      -2.241  -0.699  -1.014  0.00  0.00    +0.085 C 
BRANCH  27  29
ATOM     28  C   UNL     1      -1.139   1.542  -1.106  0.00  0.00    +0.005 C 
ATOM     29  C   UNL     1      -0.914   0.048  -0.862  0.00  0.00    +0.012 C 
ENDBRANCH  27  29
ENDBRANCH   1  27
TORSDOF 6
