REMARK  Name = ZINC12465856
REMARK  8 active torsions:
REMARK  status: ('A' for Active; 'I' for Inactive)
REMARK    1  A    between atoms: C_1  and  C_2
REMARK    2  A    between atoms: C_5  and  C_36
REMARK    3  A    between atoms: N_14  and  C_15
REMARK    4  A    between atoms: C_15  and  C_16
REMARK    5  A    between atoms: C_16  and  C_17
REMARK    6  A    between atoms: C_17  and  S_18
REMARK    7  A    between atoms: S_18  and  C_19
REMARK    8  A    between atoms: N_34  and  C_35
REMARK                            x       y       z     vdW  Elec       q    Type
REMARK                         _______ _______ _______ _____ _____    ______ ____
ROOT
ATOM      1  C   UNL     1      -2.058  -1.515  -1.273  0.00  0.00    +0.009 C 
ATOM      2  C   UNL     1      -1.413  -2.005   0.025  0.00  0.00    +0.004 C 
ATOM      3  C   UNL     1      -2.121  -1.364   1.220  0.00  0.00    +0.009 C 
ATOM      4  C   UNL     1      -1.498  -1.879   2.520  0.00  0.00    +0.004 C 
ATOM      5  C   UNL     1      -0.019  -1.482   2.564  0.00  0.00    +0.111 C 
ATOM      6  N   UNL     1       0.639  -1.971   1.345  0.00  0.00    -0.300 N 
ATOM      7  C   UNL     1       0.067  -1.611   0.040  0.00  0.00    +0.111 C 
ATOM      8  C   UNL     1       1.768  -2.753   1.423  0.00  0.00    +0.201 A 
ATOM      9  N   UNL     1       1.780  -4.064   1.549  0.00  0.00    -0.196 NA
ATOM     10  C   UNL     1       3.038  -4.506   1.595  0.00  0.00    +0.170 A 
ATOM     11  C   UNL     1       3.875  -3.401   1.490  0.00  0.00    +0.153 A 
ATOM     12  N   UNL     1       3.047  -2.292   1.376  0.00  0.00    -0.306 N 
ATOM     13  C   UNL     1       5.268  -3.590   1.512  0.00  0.00    +0.280 A 
ATOM     14  O   UNL     1       6.021  -2.636   1.422  0.00  0.00    -0.265 OA
ATOM     15  N   UNL     1       5.763  -4.839   1.633  0.00  0.00    -0.273 N 
ATOM     16  H   UNL     1       6.723  -4.973   1.649  0.00  0.00    +0.173 HD
ATOM     17  C   UNL     1       4.945  -5.901   1.734  0.00  0.00    +0.331 A 
ATOM     18  O   UNL     1       5.426  -7.013   1.843  0.00  0.00    -0.246 OA
ATOM     19  N   UNL     1       3.606  -5.764   1.717  0.00  0.00    -0.280 N 
ATOM     20  C   UNL     1       2.748  -6.947   1.830  0.00  0.00    +0.155 C 
ATOM     21  C   UNL     1      -2.228  -1.263   3.715  0.00  0.00    +0.009 C 
ENDROOT
BRANCH  12  22
ATOM     22  C   UNL     1       3.468  -0.897   1.234  0.00  0.00    +0.126 C 
BRANCH  22  23
ATOM     23  C   UNL     1       3.704  -0.292   2.620  0.00  0.00    +0.033 C 
BRANCH  23  24
ATOM     24  C   UNL     1       4.144   1.165   2.473  0.00  0.00    +0.078 C 
BRANCH  24  25
ATOM     25  S   UNL     1       4.424   1.882   4.116  0.00  0.00    -0.099 S 
BRANCH  25  26
ATOM     26  C   UNL     1       4.918   3.539   3.780  0.00  0.00    +0.136 A 
ATOM     27  N   UNL     1       5.053   4.140   2.618  0.00  0.00    -0.233 NA
ATOM     28  C   UNL     1       5.444   5.428   2.510  0.00  0.00    +0.079 A 
ATOM     29  C   UNL     1       5.628   6.188   1.332  0.00  0.00    +0.029 A 
ATOM     30  C   UNL     1       6.032   7.496   1.398  0.00  0.00    +0.002 A 
ATOM     31  C   UNL     1       6.275   8.119   2.613  0.00  0.00    +0.001 A 
ATOM     32  C   UNL     1       6.105   7.405   3.786  0.00  0.00    +0.017 A 
ATOM     33  C   UNL     1       5.700   6.096   3.729  0.00  0.00    +0.040 A 
ATOM     34  S   UNL     1       5.356   4.834   4.931  0.00  0.00    -0.061 S 
ENDBRANCH  25  26
ENDBRANCH  24  25
ENDBRANCH  23  24
ENDBRANCH  22  23
ENDBRANCH  12  22
TORSDOF 5
