REMARK  Name = ZINC34739269
REMARK  9 active torsions:
REMARK  status: ('A' for Active; 'I' for Inactive)
REMARK    1  A    between atoms: C_1  and  C_2
REMARK    2  A    between atoms: C_2  and  C_3
REMARK    3  A    between atoms: C_2  and  C_4
REMARK    4  A    between atoms: C_7  and  C_10
REMARK    5  A    between atoms: C_12  and  S_18
REMARK    6  A    between atoms: N_16  and  C_17
REMARK    7  A    between atoms: S_18  and  N_21
REMARK    8  A    between atoms: N_21  and  C_22
REMARK    9  A    between atoms: C_22  and  C_23
REMARK                            x       y       z     vdW  Elec       q    Type
REMARK                         _______ _______ _______ _____ _____    ______ ____
ROOT
ATOM      1  C   UNL     1       2.797  -1.919   4.683  0.00  0.00    +0.142 C 
ATOM      2  C   UNL     1       2.398  -1.091   5.923  0.00  0.00    +0.199 C 
ATOM      3  C   UNL     1       1.743  -2.116   6.875  0.00  0.00    +0.215 C 
ATOM      4  O   UNL     1       1.303  -3.177   5.997  0.00  0.00    -0.295 OA
ATOM      5  N   UNL     1       2.385  -3.308   4.996  0.00  0.00    -0.182 NA
ATOM      6  C   UNL     1       3.511  -4.082   5.535  0.00  0.00    +0.138 C 
ENDROOT
BRANCH   1  10
ATOM      7  C   UNL     1       0.731  -0.503   1.223  0.00  0.00    -0.045 A 
ATOM      8  C   UNL     1       2.050  -0.148   1.434  0.00  0.00    +0.004 A 
ATOM      9  C   UNL     1       2.719  -0.606   2.554  0.00  0.00    +0.005 A 
ATOM     10  C   UNL     1       2.068  -1.419   3.463  0.00  0.00    -0.026 A 
ATOM     11  C   UNL     1       0.749  -1.773   3.252  0.00  0.00    +0.005 A 
ATOM     12  C   UNL     1       0.079  -1.312   2.135  0.00  0.00    +0.004 A 
BRANCH   7  14
ATOM     13  C   UNL     1      -0.019   1.526   0.010  0.00  0.00    +0.012 C 
ATOM     14  C   UNL     1       0.002  -0.004   0.002  0.00  0.00    +0.013 C 
ATOM     15  C   UNL     1       0.718  -0.497  -1.257  0.00  0.00    +0.012 C 
ENDBRANCH   7  14
ENDBRANCH   1  10
BRANCH   2  16
ATOM     16  S   UNL     1       3.866  -0.354   6.692  0.00  0.00    +0.037 S 
ATOM     17  O   UNL     1       4.740  -1.374   7.155  0.00  0.00    -0.158 OA
ATOM     18  O   UNL     1       4.357   0.711   5.890  0.00  0.00    -0.158 OA
BRANCH  16  19
ATOM     19  N   UNL     1       3.304   0.377   8.068  0.00  0.00    -0.190 NA
ATOM     20  H   UNL     1       3.351   1.342   8.158  0.00  0.00    +0.148 HD
BRANCH  19  21
ATOM     21  C   UNL     1       2.737  -0.433   9.148  0.00  0.00    +0.140 C 
BRANCH  21  22
ATOM     22  C   UNL     1       2.645   0.397  10.403  0.00  0.00    -0.028 A 
ATOM     23  C   UNL     1       3.706   0.429  11.288  0.00  0.00    +0.009 A 
ATOM     24  C   UNL     1       3.627   1.189  12.440  0.00  0.00    +0.050 A 
ATOM     25  C   UNL     1       2.482   1.921  12.710  0.00  0.00    +0.166 A 
ATOM     26  C   UNL     1       1.412   1.889  11.819  0.00  0.00    +0.167 A 
ATOM     27  C   UNL     1       1.502   1.129  10.663  0.00  0.00    +0.054 A 
ATOM     28  O   UNL     1       0.415   2.683  12.305  0.00  0.00    -0.453 OA
ATOM     29  C   UNL     1       0.722   2.877  13.698  0.00  0.00    +0.466 C 
ATOM     30  O   UNL     1       2.154   2.736  13.755  0.00  0.00    -0.453 OA
ENDBRANCH  21  22
ENDBRANCH  19  21
ENDBRANCH  16  19
ENDBRANCH   2  16
TORSDOF 6
