REMARK  Name = ZINC64333828
REMARK  3 active torsions:
REMARK  status: ('A' for Active; 'I' for Inactive)
REMARK    1  A    between atoms: C_8  and  C_23
REMARK    2  A    between atoms: C_11  and  C_13
REMARK    3  A    between atoms: C_18  and  N_19
REMARK                            x       y       z     vdW  Elec       q    Type
REMARK                         _______ _______ _______ _____ _____    ______ ____
ROOT
ATOM      1  C   UNL     1       0.021   1.445   0.074  0.00  0.00    +0.000 A 
ATOM      2  C   UNL     1       1.218   2.138   0.090  0.00  0.00    +0.002 A 
ATOM      3  C   UNL     1       2.415   1.455   0.057  0.00  0.00    +0.024 A 
ATOM      4  C   UNL     1       2.429   0.060   0.007  0.00  0.00    +0.041 A 
ATOM      5  C   UNL     1       1.224  -0.625  -0.009  0.00  0.00    -0.024 A 
ATOM      6  C   UNL     1       0.027   0.064   0.025  0.00  0.00    +0.005 A 
ATOM      7  C   UNL     1       1.514  -2.108  -0.063  0.00  0.00    +0.069 C 
ATOM      8  C   UNL     1       3.049  -2.202  -0.077  0.00  0.00    +0.171 C 
ATOM      9  N   UNL     1       3.519  -0.815  -0.031  0.00  0.00    -0.255 N 
ATOM     10  C   UNL     1       4.812  -0.437  -0.027  0.00  0.00    +0.254 C 
ATOM     11  O   UNL     1       5.102   0.742  -0.095  0.00  0.00    -0.270 OA
ENDROOT
BRANCH  10  12
ATOM     12  C   UNL     1       5.879  -1.456   0.059  0.00  0.00    +0.067 A 
ATOM     13  C   UNL     1       5.900  -2.360   1.124  0.00  0.00    +0.017 A 
ATOM     14  C   UNL     1       6.898  -3.308   1.199  0.00  0.00    +0.021 A 
ATOM     15  C   UNL     1       7.878  -3.366   0.222  0.00  0.00    +0.043 A 
ATOM     16  C   UNL     1       7.863  -2.472  -0.836  0.00  0.00    +0.053 A 
ATOM     17  C   UNL     1       6.866  -1.523  -0.925  0.00  0.00    +0.140 A 
ATOM     18 CL   UNL     1       9.132  -4.562   0.324  0.00  0.00    -0.083 Cl
BRANCH  17  19
ATOM     19  N   UNL     1       6.847  -0.572  -2.060  0.00  0.00    +0.057 N 
ATOM     20  O   UNL     1       7.658  -0.678  -2.951  0.00  0.00    -0.126 OA
ATOM     21  O   UNL     1       6.021   0.310  -2.096  0.00  0.00    -0.126 OA
ENDBRANCH  17  19
ENDBRANCH  10  12
BRANCH   8  22
ATOM     22  C   UNL     1       3.520  -2.874  -1.341  0.00  0.00    +0.232 C 
ATOM     23  O   UNL     1       4.232  -2.274  -2.118  0.00  0.00    -0.274 OA
ATOM     24  N   UNL     1       3.150  -4.142  -1.607  0.00  0.00    -0.328 N 
ATOM     25  H   UNL     1       2.580  -4.622  -0.986  0.00  0.00    +0.145 HD
ATOM     26  H   UNL     1       3.453  -4.575  -2.421  0.00  0.00    +0.145 HD
ENDBRANCH   8  22
TORSDOF 3
