REMARK  Name = ZINC63807283
REMARK  6 active torsions:
REMARK  status: ('A' for Active; 'I' for Inactive)
REMARK    1  A    between atoms: C_1  and  N_2
REMARK    2  A    between atoms: C_3  and  C_29
REMARK    3  A    between atoms: C_5  and  C_15
REMARK    4  A    between atoms: N_17  and  C_18
REMARK    5  A    between atoms: C_18  and  C_19
REMARK    6  A    between atoms: C_19  and  C_20
REMARK                            x       y       z     vdW  Elec       q    Type
REMARK                         _______ _______ _______ _____ _____    ______ ____
ROOT
ATOM      1  C   UNL     1       0.214   1.227   0.425  0.00  0.00    +0.133 C 
ATOM      2  N   UNL     1       0.176  -0.214   0.167  0.00  0.00    -0.292 N 
ATOM      3  C   UNL     1      -1.104  -0.917   0.198  0.00  0.00    +0.122 C 
ATOM      4  C   UNL     1      -1.188  -1.951  -0.922  0.00  0.00    +0.130 C 
ATOM      5  C   UNL     1       0.038  -2.825  -0.913  0.00  0.00    -0.021 A 
ATOM      6  C   UNL     1      -0.041  -4.151  -1.281  0.00  0.00    +0.005 A 
ATOM      7  C   UNL     1       1.098  -4.938  -1.281  0.00  0.00    +0.000 A 
ATOM      8  C   UNL     1       2.320  -4.402  -0.913  0.00  0.00    +0.001 A 
ATOM      9  C   UNL     1       2.411  -3.076  -0.537  0.00  0.00    +0.013 A 
ATOM     10  C   UNL     1       1.266  -2.283  -0.529  0.00  0.00    +0.041 A 
ATOM     11  C   UNL     1       1.322  -0.870  -0.102  0.00  0.00    +0.247 C 
ATOM     12  O   UNL     1       2.393  -0.305   0.011  0.00  0.00    -0.270 OA
ENDROOT
BRANCH   3  13
ATOM     13  C   UNL     1      -1.254  -1.614   1.526  0.00  0.00    -0.022 A 
ATOM     14  C   UNL     1      -0.164  -2.236   2.105  0.00  0.00    +0.009 A 
ATOM     15  C   UNL     1      -0.296  -2.877   3.323  0.00  0.00    +0.050 A 
ATOM     16  C   UNL     1      -1.523  -2.896   3.966  0.00  0.00    +0.166 A 
ATOM     17  C   UNL     1      -2.621  -2.270   3.383  0.00  0.00    +0.167 A 
ATOM     18  C   UNL     1      -2.480  -1.625   2.165  0.00  0.00    +0.055 A 
ATOM     19  O   UNL     1      -3.700  -2.429   4.203  0.00  0.00    -0.453 OA
ATOM     20  C   UNL     1      -3.351  -3.505   5.094  0.00  0.00    +0.466 C 
ATOM     21  O   UNL     1      -1.914  -3.448   5.152  0.00  0.00    -0.453 OA
ENDBRANCH   3  13
BRANCH   4  22
ATOM     22  C   UNL     1      -2.411  -2.808  -0.720  0.00  0.00    +0.223 C 
ATOM     23  O   UNL     1      -2.372  -3.751   0.042  0.00  0.00    -0.275 OA
ATOM     24  N   UNL     1      -3.549  -2.527  -1.386  0.00  0.00    -0.314 N 
ATOM     25  H   UNL     1      -3.560  -1.819  -2.049  0.00  0.00    +0.149 HD
BRANCH  24  26
ATOM     26  C   UNL     1      -4.768  -3.291  -1.109  0.00  0.00    +0.108 C 
BRANCH  26  27
ATOM     27  C   UNL     1      -5.905  -2.775  -1.993  0.00  0.00    +0.052 C 
BRANCH  27  28
ATOM     28  C   UNL     1      -7.159  -3.560  -1.708  0.00  0.00    -0.040 C 
ATOM     29  C   UNL     1      -8.156  -3.220  -0.859  0.00  0.00    -0.001 A 
ATOM     30  C   UNL     1      -8.363  -2.063   0.019  0.00  0.00    +0.010 A 
ATOM     31  C   UNL     1      -9.486  -2.001   0.769  0.00  0.00    +0.001 A 
ATOM     32  C   UNL     1     -10.456  -3.013   0.729  0.00  0.00    +0.002 A 
ATOM     33  C   UNL     1     -10.337  -4.106  -0.053  0.00  0.00    +0.026 A 
ATOM     34  C   UNL     1      -9.195  -4.275  -0.884  0.00  0.00    +0.043 A 
ATOM     35  N   UNL     1      -8.854  -5.229  -1.716  0.00  0.00    -0.380 N 
ATOM     36  C   UNL     1      -7.561  -4.885  -2.318  0.00  0.00    +0.144 C 
ATOM     37  H   UNL     1      -9.371  -6.027  -1.904  0.00  0.00    +0.160 HD
ENDBRANCH  27  28
ENDBRANCH  26  27
ENDBRANCH  24  26
ENDBRANCH   4  22
TORSDOF 5
