REMARK  Name = ZINC36643377
REMARK  12 active torsions:
REMARK  status: ('A' for Active; 'I' for Inactive)
REMARK    1  A    between atoms: C_1  and  C_2
REMARK    2  A    between atoms: C_2  and  C_3
REMARK    3  A    between atoms: N_12  and  C_13
REMARK    4  A    between atoms: C_13  and  C_14
REMARK    5  A    between atoms: C_14  and  C_15
REMARK    6  A    between atoms: C_15  and  N_16
REMARK    7  A    between atoms: N_16  and  C_17
REMARK    8  A    between atoms: N_16  and  C_18
REMARK    9  A    between atoms: C_19  and  C_21
REMARK   10  A    between atoms: C_24  and  S_27
REMARK   11  A    between atoms: S_27  and  N_30
REMARK   12  A    between atoms: C_33  and  C_36
REMARK                            x       y       z     vdW  Elec       q    Type
REMARK                         _______ _______ _______ _____ _____    ______ ____
ROOT
ATOM      1  C   UNL     1      -1.689   0.195  -0.999  0.00  0.00    -0.046 A 
ATOM      2  C   UNL     1      -2.087  -0.182   0.276  0.00  0.00    +0.006 A 
ATOM      3  C   UNL     1      -3.250  -0.876   0.487  0.00  0.00    +0.029 A 
ATOM      4  C   UNL     1      -4.086  -1.231  -0.596  0.00  0.00    +0.080 A 
ATOM      5  C   UNL     1      -3.649  -0.830  -1.879  0.00  0.00    +0.041 A 
ATOM      6  C   UNL     1      -2.486  -0.131  -2.081  0.00  0.00    +0.021 A 
ATOM      7  S   UNL     1      -4.941  -1.451  -2.930  0.00  0.00    -0.052 S 
ATOM      8  C   UNL     1      -5.946  -2.179  -1.643  0.00  0.00    +0.168 A 
ATOM      9  N   UNL     1      -5.255  -1.907  -0.561  0.00  0.00    -0.224 NA
ATOM     10  N   UNL     1      -7.147  -2.856  -1.759  0.00  0.00    -0.246 N 
ATOM     11  C   UNL     1      -7.705  -3.036  -2.973  0.00  0.00    +0.252 C 
ATOM     12  O   UNL     1      -7.119  -2.670  -3.972  0.00  0.00    -0.270 OA
ENDROOT
BRANCH  11  13
ATOM     13  C   UNL     1      -9.031  -3.680  -3.088  0.00  0.00    +0.037 A 
ATOM     14  C   UNL     1     -10.037  -3.385  -2.166  0.00  0.00    +0.015 A 
ATOM     15  C   UNL     1     -11.271  -3.989  -2.280  0.00  0.00    +0.029 A 
ATOM     16  C   UNL     1     -11.515  -4.885  -3.305  0.00  0.00    +0.106 A 
ATOM     17  C   UNL     1     -10.523  -5.182  -4.223  0.00  0.00    +0.029 A 
ATOM     18  C   UNL     1      -9.285  -4.581  -4.124  0.00  0.00    +0.015 A 
BRANCH  16  19
ATOM     19  S   UNL     1     -13.095  -5.652  -3.443  0.00  0.00    +0.061 S 
ATOM     20  O   UNL     1     -12.898  -6.862  -4.162  0.00  0.00    -0.153 OA
ATOM     21  O   UNL     1     -13.675  -5.624  -2.146  0.00  0.00    -0.153 OA
BRANCH  19  22
ATOM     22  N   UNL     1     -14.030  -4.678  -4.401  0.00  0.00    -0.177 NA
ATOM     23  C   UNL     1     -14.843  -3.606  -3.811  0.00  0.00    +0.110 C 
ATOM     24  C   UNL     1     -16.292  -3.771  -4.279  0.00  0.00    +0.020 C 
ATOM     25  C   UNL     1     -16.328  -3.819  -5.808  0.00  0.00    -0.012 C 
ATOM     26  C   UNL     1     -15.521  -5.021  -6.302  0.00  0.00    +0.020 C 
ATOM     27  C   UNL     1     -14.059  -4.867  -5.858  0.00  0.00    +0.110 C 
ATOM     28  C   UNL     1     -17.778  -3.949  -6.280  0.00  0.00    +0.007 C 
ENDBRANCH  19  22
ENDBRANCH  16  19
ENDBRANCH  11  13
BRANCH   1  30
ATOM     29  C   UNL     1      -0.685   2.459  -1.118  0.00  0.00    +0.009 C 
ATOM     30  C   UNL     1      -0.405   0.957  -1.201  0.00  0.00    +0.032 C 
ENDBRANCH   1  30
BRANCH  10  31
ATOM     31  C   UNL     1      -7.812  -3.378  -0.562  0.00  0.00    +0.114 C 
BRANCH  31  32
ATOM     32  C   UNL     1      -8.435  -2.220   0.221  0.00  0.00    +0.001 C 
BRANCH  32  33
ATOM     33  C   UNL     1      -9.257  -2.776   1.385  0.00  0.00    -0.078 C 
BRANCH  33  34
ATOM     34  N   UNL     1      -9.855  -1.665   2.137  0.00  0.00    +0.376 N 
ATOM     35  C   UNL     1     -10.739  -2.200   3.181  0.00  0.00    -0.097 C 
ATOM     36  C   UNL     1      -8.791  -0.865   2.759  0.00  0.00    -0.097 C 
ATOM     37  H   UNL     1     -10.390  -1.083   1.509  0.00  0.00    -0.083 HD
ENDBRANCH  33  34
ENDBRANCH  32  33
ENDBRANCH  31  32
ENDBRANCH  10  31
TORSDOF 8
