REMARK  Name = ZINC13108629
REMARK  9 active torsions:
REMARK  status: ('A' for Active; 'I' for Inactive)
REMARK    1  A    between atoms: C_1  and  C_2
REMARK    2  A    between atoms: C_3  and  C_32
REMARK    3  A    between atoms: C_5  and  N_28
REMARK    4  A    between atoms: C_6  and  C_7
REMARK    5  A    between atoms: C_7  and  O_9
REMARK    6  A    between atoms: O_9  and  C_10
REMARK    7  A    between atoms: C_10  and  C_11
REMARK    8  A    between atoms: C_17  and  C_22
REMARK    9  A    between atoms: C_29  and  C_31
REMARK                            x       y       z     vdW  Elec       q    Type
REMARK                         _______ _______ _______ _____ _____    ______ ____
ROOT
ATOM      1  C   UNL     1       4.975   0.632  -2.528  0.00  0.00    +0.149 A 
ATOM      2  N   UNL     1       6.234   1.110  -2.702  0.00  0.00    -0.308 N 
ATOM      3  H   UNL     1       6.779   1.309  -1.925  0.00  0.00    +0.170 HD
ATOM      4  C   UNL     1       6.741   1.312  -3.932  0.00  0.00    +0.260 A 
ATOM      5  O   UNL     1       7.873   1.742  -4.072  0.00  0.00    -0.267 OA
ATOM      6  C   UNL     1       5.930   1.015  -5.074  0.00  0.00    +0.080 A 
ATOM      7  C   UNL     1       6.248   1.147  -6.491  0.00  0.00    +0.004 A 
ATOM      8  C   UNL     1       5.310   0.799  -7.405  0.00  0.00    +0.056 A 
ATOM      9  S   UNL     1       3.934   0.270  -6.402  0.00  0.00    -0.076 S 
ATOM     10  C   UNL     1       4.644   0.526  -4.796  0.00  0.00    +0.116 A 
ATOM     11  N   UNL     1       4.214   0.347  -3.550  0.00  0.00    -0.223 NA
ENDROOT
BRANCH   7  12
ATOM     12  C   UNL     1       7.573   1.653  -6.924  0.00  0.00    -0.017 A 
ATOM     13  C   UNL     1       8.082   2.833  -6.384  0.00  0.00    +0.008 A 
ATOM     14  C   UNL     1       9.318   3.296  -6.787  0.00  0.00    +0.001 A 
ATOM     15  C   UNL     1      10.047   2.597  -7.733  0.00  0.00    +0.000 A 
ATOM     16  C   UNL     1       9.544   1.429  -8.276  0.00  0.00    +0.001 A 
ATOM     17  C   UNL     1       8.312   0.953  -7.877  0.00  0.00    +0.008 A 
ENDBRANCH   7  12
BRANCH   1  18
ATOM     18  C   UNL     1       4.450   0.422  -1.131  0.00  0.00    +0.306 C 
BRANCH  18  19
ATOM     19  O   UNL     1       3.093  -0.091  -1.197  0.00  0.00    -0.453 OA
BRANCH  19  20
ATOM     20  C   UNL     1       2.473  -0.335  -0.024  0.00  0.00    +0.342 C 
ATOM     21  O   UNL     1       3.052  -0.125   1.025  0.00  0.00    -0.245 OA
BRANCH  20  27
ATOM     22  C   UNL     1       1.943  -3.286  -0.034  0.00  0.00    +0.045 C 
ATOM     23  C   UNL     1       0.830  -2.271  -0.017  0.00  0.00    -0.025 A 
ATOM     24  C   UNL     1      -0.462  -2.647  -0.006  0.00  0.00    -0.008 A 
ATOM     25  S   UNL     1      -1.340  -1.098   0.017  0.00  0.00    -0.078 S 
ATOM     26  C   UNL     1       0.002  -0.004   0.002  0.00  0.00    +0.086 A 
ATOM     27  C   UNL     1       1.104  -0.853  -0.013  0.00  0.00    +0.091 A 
ATOM     28  C   UNL     1      -1.028  -4.043  -0.007  0.00  0.00    +0.052 C 
BRANCH  26  29
ATOM     29  N   UNL     1      -0.017   1.382   0.010  0.00  0.00    -0.280 N 
ATOM     30  C   UNL     1      -1.193   2.040   0.019  0.00  0.00    +0.214 C 
ATOM     31  O   UNL     1      -2.235   1.419   0.020  0.00  0.00    -0.276 OA
ATOM     32  C   UNL     1      -1.213   3.547   0.027  0.00  0.00    +0.109 C 
ATOM     33  H   UNL     1       0.817   1.878   0.004  0.00  0.00    +0.155 HD
ENDBRANCH  26  29
ENDBRANCH  20  27
ENDBRANCH  19  20
ENDBRANCH  18  19
ENDBRANCH   1  18
TORSDOF 6
