REMARK  Name = ZINC50924447
REMARK  9 active torsions:
REMARK  status: ('A' for Active; 'I' for Inactive)
REMARK    1  A    between atoms: C_1  and  C_2
REMARK    2  A    between atoms: C_3  and  C_7
REMARK    3  A    between atoms: N_9  and  C_10
REMARK    4  A    between atoms: N_13  and  C_16
REMARK    5  A    between atoms: C_16  and  N_17
REMARK    6  A    between atoms: C_21  and  C_23
REMARK    7  A    between atoms: C_23  and  C_24
REMARK    8  A    between atoms: C_23  and  C_25
REMARK    9  A    between atoms: C_23  and  C_26
REMARK                            x       y       z     vdW  Elec       q    Type
REMARK                         _______ _______ _______ _____ _____    ______ ____
ROOT
ATOM      1  C   UNL     1      -0.014  -0.661  -4.963  0.00  0.00    +0.070 C 
ATOM      2  C   UNL     1      -1.459  -0.405  -5.403  0.00  0.00    +0.004 C 
ATOM      3  C   UNL     1      -1.472   0.012  -6.875  0.00  0.00    -0.074 C 
ATOM      4  N   UNL     1      -0.891  -1.057  -7.696  0.00  0.00    +0.393 N 
ATOM      5  C   UNL     1       0.516  -1.258  -7.328  0.00  0.00    -0.074 C 
ATOM      6  C   UNL     1       0.606  -1.724  -5.874  0.00  0.00    +0.004 C 
ATOM      7  H   UNL     1      -1.403  -1.913  -7.543  0.00  0.00    -0.079 HD
ENDROOT
BRANCH   1  10
ATOM      8  C   UNL     1      -0.008  -0.248  -2.562  0.00  0.00    +0.253 C 
ATOM      9  O   UNL     1      -0.025   0.946  -2.797  0.00  0.00    -0.270 OA
ATOM     10  N   UNL     1      -0.001  -1.134  -3.577  0.00  0.00    -0.308 N 
ATOM     11  H   UNL     1       0.013  -2.086  -3.389  0.00  0.00    +0.149 HD
BRANCH   8  14
ATOM     12  C   UNL     1      -0.018   1.503   0.010  0.00  0.00    +0.067 C 
ATOM     13  C   UNL     1       0.002  -0.004   0.002  0.00  0.00    +0.058 A 
ATOM     14  C   UNL     1       0.006  -0.722  -1.174  0.00  0.00    +0.096 A 
ATOM     15  S   UNL     1       0.032  -2.390  -0.537  0.00  0.00    -0.071 S 
ATOM     16  C   UNL     1       0.035  -2.012   1.103  0.00  0.00    +0.156 A 
ATOM     17  N   UNL     1       0.022  -0.699   1.113  0.00  0.00    -0.252 NA
ENDBRANCH   8  14
ENDBRANCH   1  10
BRANCH   4  18
ATOM     18  C   UNL     1      -0.976  -0.684  -9.114  0.00  0.00    +0.073 C 
BRANCH  18  19
ATOM     19  N   UNL     1      -0.507  -1.799  -9.941  0.00  0.00    -0.240 N 
ATOM     20  C   UNL     1       0.679  -1.883 -10.581  0.00  0.00    +0.265 A 
ATOM     21  S   UNL     1       1.921  -0.705 -10.579  0.00  0.00    +0.011 S 
ATOM     22  O   UNL     1       0.704  -3.066 -11.220  0.00  0.00    -0.416 OA
ATOM     23  C   UNL     1      -0.454  -3.713 -10.982  0.00  0.00    +0.221 A 
ATOM     24  N   UNL     1      -1.199  -2.987 -10.215  0.00  0.00    -0.135 NA
BRANCH  23  25
ATOM     25  C   UNL     1      -0.819  -5.073 -11.519  0.00  0.00    +0.040 C 
ATOM     26  C   UNL     1      -2.214  -5.459 -11.024  0.00  0.00    +0.020 C 
ATOM     27  C   UNL     1      -0.813  -5.035 -13.049  0.00  0.00    +0.020 C 
ATOM     28  C   UNL     1       0.199  -6.105 -11.030  0.00  0.00    +0.020 C 
ENDBRANCH  23  25
ENDBRANCH  18  19
ENDBRANCH   4  18
TORSDOF 5
