REMARK  Name = ZINC13799368
REMARK  9 active torsions:
REMARK  status: ('A' for Active; 'I' for Inactive)
REMARK    1  A    between atoms: C_1  and  C_2
REMARK    2  A    between atoms: C_2  and  C_3
REMARK    3  A    between atoms: C_2  and  C_4
REMARK    4  A    between atoms: C_4  and  C_6
REMARK    5  A    between atoms: C_4  and  N_16
REMARK    6  A    between atoms: N_8  and  C_9
REMARK    7  A    between atoms: C_17  and  C_19
REMARK    8  A    between atoms: C_24  and  N_25
REMARK    9  A    between atoms: C_26  and  C_28
REMARK                            x       y       z     vdW  Elec       q    Type
REMARK                         _______ _______ _______ _____ _____    ______ ____
ROOT
ATOM      1  N   UNL     1       8.489   2.083   0.112  0.00  0.00    -0.300 N 
ATOM      2  C   UNL     1       7.305   1.438   0.130  0.00  0.00    +0.246 C 
ATOM      3  O   UNL     1       6.268   2.072   0.156  0.00  0.00    -0.270 OA
ATOM      4  H   UNL     1       9.316   1.577   0.091  0.00  0.00    +0.150 HD
ENDROOT
BRANCH   2   5
ATOM      5  C   UNL     1       7.268  -0.036   0.118  0.00  0.00    +0.058 A 
ATOM      6  C   UNL     1       8.454  -0.770   0.198  0.00  0.00    +0.015 A 
ATOM      7  C   UNL     1       8.413  -2.147   0.182  0.00  0.00    +0.001 A 
ATOM      8  C   UNL     1       7.199  -2.810   0.091  0.00  0.00    +0.002 A 
ATOM      9  C   UNL     1       6.019  -2.099   0.017  0.00  0.00    +0.024 A 
ATOM     10  C   UNL     1       6.041  -0.711   0.032  0.00  0.00    +0.046 A 
BRANCH  10  11
ATOM     11  N   UNL     1       4.851   0.008  -0.043  0.00  0.00    -0.281 N 
ATOM     12  C   UNL     1       3.766  -0.543  -0.623  0.00  0.00    +0.248 C 
ATOM     13  O   UNL     1       3.853  -1.625  -1.169  0.00  0.00    -0.270 OA
ATOM     14  H   UNL     1       4.803   0.906   0.321  0.00  0.00    +0.155 HD
BRANCH  12  15
ATOM     15  C   UNL     1       2.472   0.170  -0.595  0.00  0.00    +0.037 A 
ATOM     16  C   UNL     1       1.346  -0.398  -1.195  0.00  0.00    +0.013 A 
ATOM     17  C   UNL     1       0.141   0.272  -1.165  0.00  0.00    +0.001 A 
ATOM     18  C   UNL     1       0.046   1.505  -0.544  0.00  0.00    +0.000 A 
ATOM     19  C   UNL     1       1.158   2.073   0.052  0.00  0.00    +0.001 A 
ATOM     20  C   UNL     1       2.369   1.413   0.030  0.00  0.00    +0.013 A 
ENDBRANCH  12  15
ENDBRANCH  10  11
ENDBRANCH   2   5
BRANCH   1  21
ATOM     21  C   UNL     1       8.526   3.547   0.123  0.00  0.00    +0.162 C 
BRANCH  21  22
ATOM     22  C   UNL     1       9.837   4.012   0.701  0.00  0.00    +0.234 C 
ATOM     23  O   UNL     1      10.660   3.200   1.068  0.00  0.00    -0.274 OA
ATOM     24  N   UNL     1      10.096   5.330   0.811  0.00  0.00    -0.311 N 
ATOM     25  H   UNL     1       9.438   5.979   0.518  0.00  0.00    +0.149 HD
BRANCH  24  26
ATOM     26  C   UNL     1      11.371   5.782   1.373  0.00  0.00    +0.073 C 
ATOM     27  C   UNL     1      11.265   5.786   2.912  0.00  0.00    +0.022 C 
ATOM     28  C   UNL     1      12.656   5.741   3.487  0.00  0.00    +0.002 C 
ATOM     29  C   UNL     1      13.204   7.145   3.808  0.00  0.00    +0.000 C 
ATOM     30  C   UNL     1      12.875   8.180   2.715  0.00  0.00    +0.000 C 
ATOM     31  C   UNL     1      13.047   7.625   1.327  0.00  0.00    +0.002 C 
ATOM     32  C   UNL     1      11.682   7.099   0.837  0.00  0.00    +0.022 C 
ENDBRANCH  24  26
ENDBRANCH  21  22
BRANCH  21  34
ATOM     33  C   UNL     1       9.463   3.441  -2.191  0.00  0.00    +0.009 C 
ATOM     34  C   UNL     1       8.384   4.072  -1.307  0.00  0.00    +0.012 C 
ATOM     35  C   UNL     1       7.002   3.706  -1.850  0.00  0.00    +0.009 C 
ENDBRANCH  21  34
ENDBRANCH   1  21
TORSDOF 7
