REMARK  Name = ZINC50669574
REMARK  6 active torsions:
REMARK  status: ('A' for Active; 'I' for Inactive)
REMARK    1  A    between atoms: C_1  and  C_2
REMARK    2  A    between atoms: N_6  and  S_8
REMARK    3  A    between atoms: S_8  and  C_11
REMARK    4  A    between atoms: C_14  and  N_20
REMARK    5  A    between atoms: C_16  and  N_17
REMARK    6  A    between atoms: N_20  and  C_21
REMARK                            x       y       z     vdW  Elec       q    Type
REMARK                         _______ _______ _______ _____ _____    ______ ____
ROOT
ATOM      1  C   UNL     1       1.480  -4.235   0.990  0.00  0.00    +0.136 A 
ATOM      2  C   UNL     1       1.818  -3.691  -0.236  0.00  0.00    +0.032 A 
ATOM      3  C   UNL     1       2.705  -4.349  -1.064  0.00  0.00    +0.025 A 
ATOM      4  C   UNL     1       3.259  -5.559  -0.665  0.00  0.00    +0.029 A 
ATOM      5  C   UNL     1       2.917  -6.103   0.567  0.00  0.00    +0.057 A 
ATOM      6  C   UNL     1       2.032  -5.436   1.393  0.00  0.00    +0.154 A 
ENDROOT
BRANCH   1   7
ATOM      7  S   UNL     1       0.347  -3.391   2.043  0.00  0.00    +0.063 S 
ATOM      8  O   UNL     1       1.126  -2.736   3.035  0.00  0.00    -0.153 OA
ATOM      9  O   UNL     1      -0.675  -4.322   2.370  0.00  0.00    -0.153 OA
BRANCH   7  14
ATOM     10  C   UNL     1      -0.654   1.244  -0.254  0.00  0.00    +0.009 C 
ATOM     11  C   UNL     1      -0.464  -0.274  -0.281  0.00  0.00    +0.003 C 
ATOM     12  C   UNL     1      -1.829  -1.005  -0.384  0.00  0.00    +0.021 C 
ATOM     13  C   UNL     1      -1.539  -2.372   0.270  0.00  0.00    +0.110 C 
ATOM     14  N   UNL     1      -0.367  -2.200   1.141  0.00  0.00    -0.176 NA
ATOM     15  C   UNL     1       0.066  -0.792   1.079  0.00  0.00    +0.112 C 
ENDBRANCH   7  14
ENDBRANCH   1   7
BRANCH   6  16
ATOM     16  N   UNL     1       1.672  -6.012   2.708  0.00  0.00    +0.058 N 
ATOM     17  O   UNL     1       2.051  -7.120   3.007  0.00  0.00    -0.126 OA
ATOM     18  O   UNL     1       0.999  -5.373   3.483  0.00  0.00    -0.126 OA
ENDBRANCH   6  16
BRANCH   4  19
ATOM     19  N   UNL     1       4.156  -6.228  -1.500  0.00  0.00    -0.347 N 
ATOM     20  C   UNL     1       4.515  -5.654  -2.799  0.00  0.00    +0.125 C 
ATOM     21  H   UNL     1       4.542  -7.073  -1.220  0.00  0.00    +0.146 HD
ENDBRANCH   4  19
TORSDOF 4
