REMARK  Name = ZINC24841312
REMARK  13 active torsions:
REMARK  status: ('A' for Active; 'I' for Inactive)
REMARK    1  A    between atoms: C_1  and  C_2
REMARK    2  A    between atoms: C_2  and  O_3
REMARK    3  A    between atoms: O_3  and  C_4
REMARK    4  A    between atoms: C_4  and  C_6
REMARK    5  A    between atoms: C_10  and  N_11
REMARK    6  A    between atoms: C_12  and  C_14
REMARK    7  A    between atoms: C_14  and  C_16
REMARK    8  A    between atoms: C_14  and  N_17
REMARK    9  A    between atoms: N_20  and  C_23
REMARK   10  A    between atoms: C_23  and  C_24
REMARK   11  A    between atoms: C_26  and  C_29
REMARK   12  A    between atoms: C_29  and  C_30
REMARK   13  A    between atoms: C_29  and  C_31
REMARK                            x       y       z     vdW  Elec       q    Type
REMARK                         _______ _______ _______ _____ _____    ______ ____
ROOT
ATOM      1  N   UNL     1      -0.818  -3.160  -3.759  0.00  0.00    -0.278 N 
ATOM      2  C   UNL     1      -1.198  -3.061  -5.048  0.00  0.00    +0.235 C 
ATOM      3  O   UNL     1      -0.418  -3.345  -5.933  0.00  0.00    -0.274 OA
ATOM      4  H   UNL     1      -1.442  -2.933  -3.051  0.00  0.00    +0.155 HD
ENDROOT
BRANCH   1   9
ATOM      5  C   UNL     1       1.023  -3.744  -2.185  0.00  0.00    +0.091 A 
ATOM      6  C   UNL     1       2.397  -4.214  -2.125  0.00  0.00    -0.021 A 
ATOM      7  C   UNL     1       2.960  -4.431  -3.332  0.00  0.00    -0.004 A 
ATOM      8  S   UNL     1       1.694  -4.022  -4.498  0.00  0.00    -0.077 S 
ATOM      9  C   UNL     1       0.463  -3.585  -3.444  0.00  0.00    +0.086 A 
ATOM     10  C   UNL     1       4.352  -4.912  -3.603  0.00  0.00    +0.043 C 
ATOM     11  C   UNL     1       5.172  -4.763  -2.313  0.00  0.00    +0.005 C 
ATOM     12  C   UNL     1       4.372  -5.349  -1.146  0.00  0.00    +0.005 C 
ATOM     13  C   UNL     1       3.170  -4.454  -0.837  0.00  0.00    +0.037 C 
BRANCH   5  14
ATOM     14  C   UNL     1       0.260  -3.458  -0.968  0.00  0.00    +0.342 C 
ATOM     15  O   UNL     1      -0.394  -4.337  -0.440  0.00  0.00    -0.245 OA
BRANCH  14  16
ATOM     16  O   UNL     1       0.283  -2.220  -0.433  0.00  0.00    -0.461 OA
BRANCH  16  18
ATOM     17  C   UNL     1      -0.336  -0.559   1.209  0.00  0.00    +0.048 C 
ATOM     18  C   UNL     1      -0.484  -2.012   0.754  0.00  0.00    +0.229 C 
ENDBRANCH  16  18
ENDBRANCH  14  16
ENDBRANCH   5  14
ENDBRANCH   1   9
BRANCH   2  19
ATOM     19  C   UNL     1      -2.591  -2.599  -5.391  0.00  0.00    +0.140 C 
ATOM     20  C   UNL     1      -2.695  -1.089  -5.172  0.00  0.00    +0.034 C 
BRANCH  19  21
ATOM     21  N   UNL     1      -2.878  -2.912  -6.797  0.00  0.00    -0.295 NA
ATOM     22  C   UNL     1      -4.320  -2.829  -7.071  0.00  0.00    +0.066 C 
ATOM     23  C   UNL     1      -4.583  -3.218  -8.527  0.00  0.00    -0.063 C 
ATOM     24  N   UNL     1      -3.845  -2.312  -9.417  0.00  0.00    +0.387 N 
ATOM     25  C   UNL     1      -2.405  -2.424  -9.149  0.00  0.00    -0.063 C 
ATOM     26  C   UNL     1      -2.124  -2.028  -7.698  0.00  0.00    +0.066 C 
ATOM     27  H   UNL     1      -4.144  -1.362  -9.254  0.00  0.00    -0.081 HD
BRANCH  24  28
ATOM     28  C   UNL     1      -4.112  -2.675 -10.816  0.00  0.00    +0.022 C 
BRANCH  28  29
ATOM     29  C   UNL     1      -3.454  -1.672 -11.729  0.00  0.00    +0.211 A 
ATOM     30  N   UNL     1      -2.246  -1.754 -12.211  0.00  0.00    -0.197 NA
ATOM     31  C   UNL     1      -1.986  -0.694 -12.985  0.00  0.00    +0.174 A 
ATOM     32  N   UNL     1      -3.033   0.080 -13.004  0.00  0.00    -0.061 NA
ATOM     33  O   UNL     1      -4.014  -0.546 -12.190  0.00  0.00    -0.340 OA
BRANCH  31  34
ATOM     34  C   UNL     1      -0.693  -0.437 -13.714  0.00  0.00    +0.054 C 
ATOM     35  C   UNL     1      -0.964  -0.353 -15.218  0.00  0.00    +0.015 C 
ATOM     36  C   UNL     1      -0.088   0.882 -13.230  0.00  0.00    +0.015 C 
ENDBRANCH  31  34
ENDBRANCH  28  29
ENDBRANCH  24  28
ENDBRANCH  19  21
ENDBRANCH   2  19
TORSDOF 9
