REMARK  Name = ZINC39984770
REMARK  10 active torsions:
REMARK  status: ('A' for Active; 'I' for Inactive)
REMARK    1  A    between atoms: C_4  and  N_31
REMARK    2  A    between atoms: C_5  and  C_7
REMARK    3  A    between atoms: N_9  and  N_10
REMARK    4  A    between atoms: C_11  and  C_13
REMARK    5  A    between atoms: C_13  and  C_14
REMARK    6  A    between atoms: C_14  and  C_15
REMARK    7  A    between atoms: C_15  and  C_16
REMARK    8  A    between atoms: C_16  and  C_17
REMARK    9  A    between atoms: C_17  and  N_18
REMARK   10  A    between atoms: C_22  and  C_23
REMARK                            x       y       z     vdW  Elec       q    Type
REMARK                         _______ _______ _______ _____ _____    ______ ____
ROOT
ATOM      1  C   UNL     1       0.269  -6.717   0.460  0.00  0.00    +0.097 C 
ENDROOT
BRANCH   1   3
ATOM      2  N   UNL     1       0.997  -4.359   0.303  0.00  0.00    -0.234 N 
ATOM      3  C   UNL     1      -0.019  -5.241   0.378  0.00  0.00    +0.229 C 
ATOM      4  O   UNL     1      -1.166  -4.846   0.379  0.00  0.00    -0.274 OA
ATOM      5  H   UNL     1       1.914  -4.675   0.302  0.00  0.00    +0.173 HD
BRANCH   2   8
ATOM      6  C   UNL     1       1.745  -2.104   0.152  0.00  0.00    +0.262 C 
ATOM      7  O   UNL     1       2.895  -2.499   0.151  0.00  0.00    -0.269 OA
ATOM      8  N   UNL     1       0.729  -2.986   0.227  0.00  0.00    -0.230 N 
ATOM      9  H   UNL     1      -0.188  -2.670   0.227  0.00  0.00    +0.173 HD
BRANCH   6  14
ATOM     10  C   UNL     1       0.408   1.312   0.959  0.00  0.00    +0.001 A 
ATOM     11  C   UNL     1       0.931   2.059  -0.081  0.00  0.00    +0.002 A 
ATOM     12  C   UNL     1       1.718   1.456  -1.046  0.00  0.00    +0.033 A 
ATOM     13  C   UNL     1       1.987   0.104  -0.976  0.00  0.00    +0.138 A 
ATOM     14  C   UNL     1       1.462  -0.655   0.071  0.00  0.00    +0.068 A 
ATOM     15  C   UNL     1       0.669  -0.040   1.041  0.00  0.00    +0.015 A 
BRANCH  13  16
ATOM     16  N   UNL     1       2.829  -0.539  -2.010  0.00  0.00    +0.057 N 
ATOM     17  O   UNL     1       3.380   0.136  -2.847  0.00  0.00    -0.126 OA
ATOM     18  O   UNL     1       2.965  -1.740  -2.017  0.00  0.00    -0.126 OA
ENDBRANCH  13  16
ENDBRANCH   6  14
ENDBRANCH   2   8
ENDBRANCH   1   3
BRANCH   1  19
ATOM     19  C   UNL     1      -1.049  -7.491   0.535  0.00  0.00    +0.009 C 
BRANCH  19  20
ATOM     20  C   UNL     1      -0.756  -8.990   0.618  0.00  0.00    +0.002 C 
BRANCH  20  21
ATOM     21  C   UNL     1      -2.074  -9.764   0.693  0.00  0.00    +0.019 C 
BRANCH  21  22
ATOM     22  C   UNL     1      -1.781 -11.263   0.777  0.00  0.00    +0.115 C 
BRANCH  22  23
ATOM     23  N   UNL     1      -3.043 -12.004   0.848  0.00  0.00    -0.255 N 
ATOM     24  C   UNL     1      -3.582 -12.260   2.028  0.00  0.00    +0.258 C 
ATOM     25  O   UNL     1      -3.045 -11.889   3.056  0.00  0.00    -0.269 OA
ATOM     26  C   UNL     1      -4.812 -12.984   2.060  0.00  0.00    +0.078 C 
ATOM     27  C   UNL     1      -5.563 -13.371   3.130  0.00  0.00    +0.035 C 
ATOM     28  S   UNL     1      -5.100 -13.245   0.315  0.00  0.00    -0.061 S 
ATOM     29  C   UNL     1      -3.642 -12.411  -0.293  0.00  0.00    +0.121 C 
ATOM     30  S   UNL     1      -3.131 -12.185  -1.912  0.00  0.00    -0.027 S 
BRANCH  27  31
ATOM     31  C   UNL     1      -6.764 -14.090   2.928  0.00  0.00    +0.013 A 
ATOM     32  C   UNL     1      -7.669 -14.568   3.870  0.00  0.00    +0.015 A 
ATOM     33  C   UNL     1      -8.757 -15.238   3.364  0.00  0.00    +0.008 A 
ATOM     34  C   UNL     1      -8.874 -15.385   2.021  0.00  0.00    +0.046 A 
ATOM     35  S   UNL     1      -7.517 -14.614   1.400  0.00  0.00    -0.097 S 
ENDBRANCH  27  31
ENDBRANCH  22  23
ENDBRANCH  21  22
ENDBRANCH  20  21
ENDBRANCH  19  20
ENDBRANCH   1  19
TORSDOF 10
