REMARK  Name = ZINC61079593
REMARK  3 active torsions:
REMARK  status: ('A' for Active; 'I' for Inactive)
REMARK    1  A    between atoms: C_2  and  C_10
REMARK    2  A    between atoms: C_6  and  N_7
REMARK    3  A    between atoms: C_16  and  C_18
REMARK                            x       y       z     vdW  Elec       q    Type
REMARK                         _______ _______ _______ _____ _____    ______ ____
ROOT
ATOM      1  C   UNL     1       1.173   3.567   0.009  0.00  0.00    +0.248 C 
ATOM      2  O   UNL     1       2.217   4.184   0.100  0.00  0.00    -0.270 OA
ATOM      3  N   UNL     1       0.004   4.232  -0.078  0.00  0.00    -0.286 N 
ATOM      4  C   UNL     1      -1.336   3.617  -0.075  0.00  0.00    +0.109 C 
ATOM      5  C   UNL     1      -2.284   4.735   0.426  0.00  0.00    +0.021 C 
ATOM      6  C   UNL     1      -1.660   5.992  -0.235  0.00  0.00    +0.033 C 
ATOM      7  C   UNL     1      -0.147   5.690  -0.186  0.00  0.00    +0.162 C 
ENDROOT
BRANCH   1   9
ATOM      8  C   UNL     1       0.318   1.391  -0.845  0.00  0.00    +0.039 A 
ATOM      9  C   UNL     1       1.186   2.091  -0.005  0.00  0.00    +0.053 A 
ATOM     10  C   UNL     1       2.068   1.390   0.822  0.00  0.00    +0.033 A 
ATOM     11  C   UNL     1       2.078   0.009   0.806  0.00  0.00    +0.056 A 
ATOM     12  C   UNL     1       1.218  -0.684  -0.027  0.00  0.00    +0.145 A 
ATOM     13  C   UNL     1       0.335   0.007  -0.855  0.00  0.00    +0.061 A 
ATOM     14  F   UNL     1       1.233  -2.035  -0.038  0.00  0.00    -0.204 F 
ATOM     15 BR   UNL     1       3.247   2.332   1.961  0.00  0.00    -0.049 Br
BRANCH  13  16
ATOM     16  N   UNL     1      -0.533  -0.698  -1.695  0.00  0.00    -0.356 N 
ATOM     17  H   UNL     1      -1.148  -0.217  -2.271  0.00  0.00    +0.142 HD
ATOM     18  H   UNL     1      -0.521  -1.668  -1.701  0.00  0.00    +0.142 HD
ENDBRANCH  13  16
ENDBRANCH   1   9
BRANCH   7  19
ATOM     19  C   UNL     1       0.512   6.182  -1.449  0.00  0.00    +0.231 C 
ATOM     20  O   UNL     1       1.058   5.395  -2.193  0.00  0.00    -0.274 OA
ATOM     21  N   UNL     1       0.495   7.495  -1.751  0.00  0.00    -0.328 N 
ATOM     22  H   UNL     1       0.058   8.124  -1.155  0.00  0.00    +0.145 HD
ATOM     23  H   UNL     1       0.919   7.811  -2.564  0.00  0.00    +0.145 HD
ENDBRANCH   7  19
TORSDOF 3
