REMARK  Name = ZINC38903785
REMARK  7 active torsions:
REMARK  status: ('A' for Active; 'I' for Inactive)
REMARK    1  A    between atoms: C_1  and  C_2
REMARK    2  A    between atoms: C_2  and  C_3
REMARK    3  A    between atoms: C_4  and  C_18
REMARK    4  A    between atoms: C_5  and  C_10
REMARK    5  A    between atoms: C_8  and  C_9
REMARK    6  A    between atoms: C_13  and  C_17
REMARK    7  A    between atoms: C_15  and  C_16
REMARK                            x       y       z     vdW  Elec       q    Type
REMARK                         _______ _______ _______ _____ _____    ______ ____
ROOT
ATOM      1  C   UNL     1       0.707  -0.490  -1.238  0.00  0.00    -0.026 C 
ATOM      2  C   UNL     1       1.995  -0.823  -1.310  0.00  0.00    -0.040 C 
ATOM      3  C   UNL     1       2.236  -1.245  -2.742  0.00  0.00    +0.155 C 
ATOM      4  N   UNL     1       0.940  -1.099  -3.416  0.00  0.00    -0.276 NA
ATOM      5  C   UNL     1       0.082  -0.675  -2.548  0.00  0.00    +0.037 C 
ATOM      6  C   UNL     1      -1.370  -0.403  -2.846  0.00  0.00    +0.065 C 
ATOM      7  C   UNL     1       3.006  -0.786  -0.192  0.00  0.00    +0.042 C 
ENDROOT
BRANCH   3   8
ATOM      8  C   UNL     1       3.264  -0.349  -3.384  0.00  0.00    +0.013 C 
ATOM      9  C   UNL     1       4.372  -0.887  -3.956  0.00  0.00    -0.004 C 
ATOM     10  C   UNL     1       4.745  -2.314  -4.056  0.00  0.00    +0.032 C 
ATOM     11  C   UNL     1       5.926  -2.335  -4.706  0.00  0.00    +0.039 C 
ATOM     12  N   UNL     1       6.328  -1.099  -5.019  0.00  0.00    -0.256 NA
ATOM     13  C   UNL     1       5.481  -0.185  -4.627  0.00  0.00    +0.045 C 
ATOM     14  C   UNL     1       5.614   1.304  -4.820  0.00  0.00    +0.066 C 
ATOM     15  C   UNL     1       6.694  -3.589  -5.037  0.00  0.00    +0.065 C 
ENDBRANCH   3   8
BRANCH   1  17
ATOM     16  C   UNL     1      -0.019   1.526   0.010  0.00  0.00    +0.009 C 
ATOM     17  C   UNL     1       0.002  -0.004   0.002  0.00  0.00    +0.033 C 
ENDBRANCH   1  17
TORSDOF 2
