REMARK  Name = ZINC04237023
REMARK  12 active torsions:
REMARK  status: ('A' for Active; 'I' for Inactive)
REMARK    1  A    between atoms: C_1  and  C_2
REMARK    2  A    between atoms: C_5  and  O_35
REMARK    3  A    between atoms: C_7  and  C_32
REMARK    4  A    between atoms: C_7  and  C_33
REMARK    5  A    between atoms: C_17  and  O_19
REMARK    6  A    between atoms: O_19  and  C_20
REMARK    7  A    between atoms: C_20  and  C_21
REMARK    8  A    between atoms: C_23  and  C_25
REMARK    9  A    between atoms: C_25  and  C_26
REMARK   10  A    between atoms: N_28  and  C_29
REMARK   11  A    between atoms: C_29  and  C_30
REMARK   12  A    between atoms: C_33  and  O_34
REMARK                            x       y       z     vdW  Elec       q    Type
REMARK                         _______ _______ _______ _____ _____    ______ ____
ROOT
ATOM      1  C   UNL     1      -0.003  -4.628  -2.200  0.00  0.00    +0.012 C 
ATOM      2  C   UNL     1       1.313  -3.923  -2.535  0.00  0.00    -0.019 C 
ATOM      3  C   UNL     1       2.287  -4.050  -1.358  0.00  0.00    +0.010 C 
ATOM      4  C   UNL     1       2.633  -5.516  -1.109  0.00  0.00    +0.032 C 
ATOM      5  C   UNL     1       3.301  -6.085  -2.364  0.00  0.00    +0.123 C 
ATOM      6  C   UNL     1       2.315  -6.002  -3.527  0.00  0.00    +0.021 C 
ATOM      7  C   UNL     1       1.925  -4.545  -3.793  0.00  0.00    +0.011 C 
ATOM      8  C   UNL     1       0.864  -4.555  -4.912  0.00  0.00    +0.049 C 
ATOM      9  C   UNL     1       0.206  -3.221  -4.967  0.00  0.00    +0.015 A 
ATOM     10  C   UNL     1       0.254  -2.233  -4.037  0.00  0.00    +0.058 A 
ATOM     11  N   UNL     1      -0.429  -1.127  -4.325  0.00  0.00    -0.229 NA
ATOM     12  C   UNL     1      -1.110  -0.995  -5.444  0.00  0.00    +0.167 A 
ATOM     13  S   UNL     1      -0.823  -2.519  -6.228  0.00  0.00    -0.057 S 
ATOM     14  N   UNL     1      -1.865   0.086  -5.885  0.00  0.00    -0.230 N 
ATOM     15  C   UNL     1      -2.495   0.028  -7.075  0.00  0.00    +0.406 C 
ATOM     16  O   UNL     1      -2.403  -0.970  -7.762  0.00  0.00    -0.226 OA
ATOM     17  C   UNL     1       1.054  -2.427  -2.757  0.00  0.00    +0.054 C 
ATOM     18  C   UNL     1       2.960  -6.591  -4.784  0.00  0.00    +0.016 C 
ATOM     19  H   UNL     1      -1.938   0.883  -5.336  0.00  0.00    +0.160 HD
ENDROOT
BRANCH   5  20
ATOM     20  O   UNL     1       3.663  -7.449  -2.138  0.00  0.00    -0.391 OA
ATOM     21  H   UNL     1       4.281  -7.576  -1.405  0.00  0.00    +0.210 HD
ENDBRANCH   5  20
BRANCH  15  22
ATOM     22  O   UNL     1      -3.225   1.075  -7.502  0.00  0.00    -0.446 OA
BRANCH  22  23
ATOM     23  C   UNL     1      -3.876   0.942  -8.793  0.00  0.00    +0.261 C 
BRANCH  23  24
ATOM     24  C   UNL     1      -4.642   2.202  -9.101  0.00  0.00    +0.006 C 
ATOM     25  C   UNL     1      -4.564   2.742 -10.293  0.00  0.00    +0.007 C 
ENDBRANCH  23  24
ENDBRANCH  22  23
ENDBRANCH  15  22
BRANCH  17  26
ATOM     26  C   UNL     1       0.265  -1.865  -1.573  0.00  0.00    +0.106 C 
BRANCH  26  27
ATOM     27  C   UNL     1       0.177  -0.365  -1.694  0.00  0.00    +0.214 C 
ATOM     28  O   UNL     1       0.694   0.198  -2.636  0.00  0.00    -0.276 OA
ATOM     29  N   UNL     1      -0.476   0.349  -0.757  0.00  0.00    -0.304 N 
ATOM     30  H   UNL     1      -0.890  -0.101  -0.004  0.00  0.00    +0.150 HD
BRANCH  29  31
ATOM     31  C   UNL     1      -0.562   1.807  -0.875  0.00  0.00    +0.193 C 
BRANCH  31  32
ATOM     32  C   UNL     1      -1.321   2.348   0.264  0.00  0.00    -0.087 C 
ATOM     33  C   UNL     1      -1.926   2.779   1.173  0.00  0.00    +0.005 C 
ENDBRANCH  31  32
ENDBRANCH  29  31
ENDBRANCH  26  27
ENDBRANCH  17  26
BRANCH   6  34
ATOM     34  C   UNL     1       1.061  -6.808  -3.182  0.00  0.00    +0.165 C 
BRANCH  34  35
ATOM     35  O   UNL     1       1.394  -8.194  -3.092  0.00  0.00    -0.394 OA
ATOM     36  H   UNL     1       0.645  -8.766  -2.876  0.00  0.00    +0.209 HD
ENDBRANCH  34  35
ENDBRANCH   6  34
TORSDOF 10
