REMARK  Name = ZINC45512786
REMARK  5 active torsions:
REMARK  status: ('A' for Active; 'I' for Inactive)
REMARK    1  A    between atoms: C_1  and  C_2
REMARK    2  A    between atoms: C_2  and  C_4
REMARK    3  A    between atoms: C_2  and  N_13
REMARK    4  A    between atoms: N_6  and  C_7
REMARK    5  A    between atoms: C_16  and  N_19
REMARK                            x       y       z     vdW  Elec       q    Type
REMARK                         _______ _______ _______ _____ _____    ______ ____
ROOT
ATOM      1  N   UNL     1       0.324  -0.924   1.101  0.00  0.00    +0.387 N 
ATOM      2  C   UNL     1      -0.449  -0.551   2.292  0.00  0.00    -0.076 C 
ATOM      3  C   UNL     1      -0.058  -1.456   3.462  0.00  0.00    +0.006 C 
ATOM      4  C   UNL     1      -0.354  -2.913   3.096  0.00  0.00    +0.089 C 
ATOM      5  C   UNL     1       0.399  -3.268   1.810  0.00  0.00    +0.006 C 
ATOM      6  C   UNL     1      -0.009  -2.297   0.701  0.00  0.00    -0.076 C 
ATOM      7  H   UNL     1       1.309  -0.866   1.310  0.00  0.00    -0.081 HD
ENDROOT
BRANCH   4   8
ATOM      8  N   UNL     1       0.088  -3.791   4.182  0.00  0.00    -0.289 N 
ATOM      9  C   UNL     1      -0.722  -4.660   4.909  0.00  0.00    +0.070 A 
ATOM     10  C   UNL     1      -2.074  -4.962   4.864  0.00  0.00    +0.028 A 
ATOM     11  C   UNL     1      -2.601  -5.892   5.738  0.00  0.00    +0.002 A 
ATOM     12  C   UNL     1      -1.784  -6.525   6.659  0.00  0.00    +0.002 A 
ATOM     13  C   UNL     1      -0.435  -6.230   6.712  0.00  0.00    +0.028 A 
ATOM     14  C   UNL     1       0.102  -5.298   5.838  0.00  0.00    +0.067 A 
ATOM     15  N   UNL     1       1.388  -4.797   5.646  0.00  0.00    -0.306 N 
ATOM     16  H   UNL     1       2.178  -5.054   6.148  0.00  0.00    +0.170 HD
ATOM     17  C   UNL     1       1.349  -3.900   4.643  0.00  0.00    +0.328 A 
ATOM     18  O   UNL     1       2.306  -3.279   4.220  0.00  0.00    -0.247 OA
ENDBRANCH   4   8
BRANCH   1  20
ATOM     19  C   UNL     1       0.361   1.425   0.412  0.00  0.00    -0.004 C 
ATOM     20  C   UNL     1       0.002  -0.004   0.002  0.00  0.00    +0.016 C 
BRANCH  20  21
ATOM     21  C   UNL     1       0.792  -0.388  -1.223  0.00  0.00    +0.199 C 
ATOM     22  O   UNL     1       1.868  -0.935  -1.103  0.00  0.00    -0.278 OA
ATOM     23  N   UNL     1       0.303  -0.124  -2.450  0.00  0.00    -0.314 N 
ATOM     24  H   UNL     1      -0.558   0.314  -2.546  0.00  0.00    +0.149 HD
BRANCH  23  25
ATOM     25  C   UNL     1       1.071  -0.498  -3.641  0.00  0.00    +0.073 C 
ATOM     26  C   UNL     1       2.078   0.607  -3.965  0.00  0.00    +0.022 C 
ATOM     27  C   UNL     1       2.880   0.217  -5.208  0.00  0.00    +0.002 C 
ATOM     28  C   UNL     1       1.928   0.032  -6.392  0.00  0.00    +0.000 C 
ATOM     29  C   UNL     1       0.920  -1.073  -6.067  0.00  0.00    +0.002 C 
ATOM     30  C   UNL     1       0.119  -0.683  -4.824  0.00  0.00    +0.022 C 
ENDBRANCH  23  25
ENDBRANCH  20  21
ENDBRANCH   1  20
TORSDOF 4
