REMARK  Name = ZINC39884877
REMARK  7 active torsions:
REMARK  status: ('A' for Active; 'I' for Inactive)
REMARK    1  A    between atoms: C_3  and  C_30
REMARK    2  A    between atoms: C_6  and  N_7
REMARK    3  A    between atoms: C_8  and  C_10
REMARK    4  A    between atoms: C_10  and  C_27
REMARK    5  A    between atoms: C_11  and  C_12
REMARK    6  A    between atoms: C_15  and  C_17
REMARK    7  A    between atoms: C_20  and  N_24
REMARK                            x       y       z     vdW  Elec       q    Type
REMARK                         _______ _______ _______ _____ _____    ______ ____
ROOT
ATOM      1  C   UNL     1      -2.443  -2.808  -0.201  0.00  0.00    +0.117 C 
ATOM      2  C   UNL     1      -2.426  -4.191  -0.313  0.00  0.00    +0.070 C 
ENDROOT
BRANCH   2   3
ATOM      3  C   UNL     1      -3.632  -4.903  -0.411  0.00  0.00    +0.130 A 
ATOM      4  C   UNL     1      -3.759  -6.280  -0.522  0.00  0.00    +0.050 A 
ATOM      5  C   UNL     1      -5.123  -6.555  -0.592  0.00  0.00    +0.050 A 
ATOM      6  C   UNL     1      -5.784  -5.346  -0.521  0.00  0.00    +0.137 A 
ATOM      7  O   UNL     1      -4.871  -4.365  -0.407  0.00  0.00    -0.455 OA
BRANCH   6   8
ATOM      8  C   UNL     1      -7.246  -5.161  -0.559  0.00  0.00    +0.036 A 
ATOM      9  C   UNL     1      -8.007  -5.774  -1.558  0.00  0.00    +0.015 A 
ATOM     10  C   UNL     1      -9.374  -5.597  -1.587  0.00  0.00    +0.033 A 
ATOM     11  C   UNL     1      -9.994  -4.813  -0.629  0.00  0.00    +0.128 A 
ATOM     12  C   UNL     1      -9.249  -4.202   0.364  0.00  0.00    +0.053 A 
ATOM     13  C   UNL     1      -7.880  -4.375   0.409  0.00  0.00    +0.054 A 
ATOM     14 CL   UNL     1      -6.947  -3.614   1.660  0.00  0.00    -0.083 Cl
BRANCH  11  15
ATOM     15  N   UNL     1     -11.463  -4.628  -0.667  0.00  0.00    +0.056 N 
ATOM     16  O   UNL     1     -12.116  -5.160  -1.534  0.00  0.00    -0.126 OA
ATOM     17  O   UNL     1     -12.008  -3.944   0.168  0.00  0.00    -0.126 OA
ENDBRANCH  11  15
ENDBRANCH   6   8
ENDBRANCH   2   3
BRANCH   1  19
ATOM     18  N   UNL     1      -1.198  -0.721   0.010  0.00  0.00    -0.281 N 
ATOM     19  C   UNL     1      -1.182  -2.064  -0.099  0.00  0.00    +0.259 C 
ATOM     20  O   UNL     1      -0.121  -2.661  -0.113  0.00  0.00    -0.269 OA
ATOM     21  H   UNL     1      -2.043  -0.251   0.089  0.00  0.00    +0.155 HD
BRANCH  18  27
ATOM     22  C   UNL     1       0.065   1.248  -0.586  0.00  0.00    +0.024 A 
ATOM     23  C   UNL     1       1.253   1.954  -0.585  0.00  0.00    +0.015 A 
ATOM     24  C   UNL     1       2.379   1.415   0.009  0.00  0.00    +0.073 A 
ATOM     25  C   UNL     1       2.320   0.166   0.604  0.00  0.00    +0.054 A 
ATOM     26  C   UNL     1       1.135  -0.545   0.606  0.00  0.00    +0.044 A 
ATOM     27  C   UNL     1       0.003  -0.005   0.010  0.00  0.00    +0.035 A 
ATOM     28 CL   UNL     1       3.737  -0.508   1.348  0.00  0.00    -0.083 Cl
BRANCH  24  29
ATOM     29  C   UNL     1       3.672   2.187   0.009  0.00  0.00    +0.419 C 
ATOM     30  F   UNL     1       3.485   3.410  -0.646  0.00  0.00    -0.166 F 
ATOM     31  F   UNL     1       4.076   2.421   1.328  0.00  0.00    -0.166 F 
ATOM     32  F   UNL     1       4.657   1.448  -0.656  0.00  0.00    -0.166 F 
ENDBRANCH  24  29
ENDBRANCH  18  27
ENDBRANCH   1  19
BRANCH   1  33
ATOM     33  C   UNL     1      -3.691  -2.106  -0.185  0.00  0.00    +0.104 C 
ATOM     34  N   UNL     1      -4.681  -1.549  -0.172  0.00  0.00    -0.191 NA
ENDBRANCH   1  33
TORSDOF 7
