REMARK  Name = ZINC30947418
REMARK  7 active torsions:
REMARK  status: ('A' for Active; 'I' for Inactive)
REMARK    1  A    between atoms: C_1  and  N_2
REMARK    2  A    between atoms: N_2  and  C_3
REMARK    3  A    between atoms: N_2  and  S_4
REMARK    4  A    between atoms: S_4  and  C_7
REMARK    5  A    between atoms: C_16  and  C_18
REMARK    6  A    between atoms: N_23  and  C_25
REMARK    7  A    between atoms: C_25  and  C_26
REMARK                            x       y       z     vdW  Elec       q    Type
REMARK                         _______ _______ _______ _____ _____    ______ ____
ROOT
ATOM      1  C   UNL     1      -2.047   9.926  -1.545  0.00  0.00    +0.106 A 
ATOM      2  C   UNL     1      -1.425   9.488  -0.390  0.00  0.00    +0.030 A 
ATOM      3  C   UNL     1      -1.363   8.142  -0.103  0.00  0.00    +0.026 A 
ATOM      4  C   UNL     1      -1.932   7.209  -0.973  0.00  0.00    +0.040 A 
ATOM      5  C   UNL     1      -2.547   7.657  -2.131  0.00  0.00    -0.023 A 
ATOM      6  C   UNL     1      -2.607   9.008  -2.414  0.00  0.00    +0.034 A 
ATOM      7  C   UNL     1      -3.067   6.460  -2.893  0.00  0.00    +0.056 C 
ATOM      8  C   UNL     1      -2.670   5.250  -2.032  0.00  0.00    +0.118 C 
ATOM      9  N   UNL     1      -1.972   5.815  -0.874  0.00  0.00    -0.271 N 
ATOM     10  C   UNL     1      -1.452   5.097   0.141  0.00  0.00    +0.221 C 
ATOM     11  O   UNL     1      -0.973   5.662   1.101  0.00  0.00    -0.275 OA
ENDROOT
BRANCH  10  12
ATOM     12  C   UNL     1      -1.464   3.591   0.082  0.00  0.00    +0.059 C 
ATOM     13  C   UNL     1      -0.196   3.043   0.744  0.00  0.00    +0.009 C 
ATOM     14  C   UNL     1      -0.245   1.513   0.733  0.00  0.00    -0.018 C 
ATOM     15  C   UNL     1      -1.508   1.042   1.457  0.00  0.00    -0.078 C 
ATOM     16  N   UNL     1      -2.692   1.592   0.785  0.00  0.00    +0.383 N 
ATOM     17  C   UNL     1      -2.692   3.060   0.825  0.00  0.00    -0.066 C 
ATOM     18  H   UNL     1      -2.651   1.285  -0.270  0.00  0.00    -0.081 HD
BRANCH  16  19
ATOM     19  C   UNL     1      -3.927   1.051   1.368  0.00  0.00    -0.043 C 
BRANCH  19  20
ATOM     20  C   UNL     1      -4.066   1.532   2.789  0.00  0.00    -0.064 A 
ATOM     21  C   UNL     1      -3.531   0.790   3.825  0.00  0.00    +0.003 A 
ATOM     22  C   UNL     1      -3.654   1.234   5.129  0.00  0.00    +0.015 A 
ATOM     23  C   UNL     1      -4.320   2.416   5.397  0.00  0.00    +0.018 A 
ATOM     24  C   UNL     1      -4.859   3.156   4.360  0.00  0.00    +0.015 A 
ATOM     25  C   UNL     1      -4.731   2.714   3.056  0.00  0.00    +0.003 A 
ATOM     26 BR   UNL     1      -4.493   3.021   7.180  0.00  0.00    -0.050 Br
ENDBRANCH  19  20
ENDBRANCH  16  19
ENDBRANCH  10  12
BRANCH   1  27
ATOM     27  S   UNL     1      -2.125  11.648  -1.909  0.00  0.00    +0.060 S 
ATOM     28  O   UNL     1      -1.049  12.260  -1.210  0.00  0.00    -0.153 OA
ATOM     29  O   UNL     1      -2.280  11.760  -3.317  0.00  0.00    -0.153 OA
BRANCH  27  31
ATOM     30  C   UNL     1      -3.511  12.740   0.141  0.00  0.00    +0.131 C 
ATOM     31  N   UNL     1      -3.520  12.229  -1.232  0.00  0.00    -0.183 NA
ATOM     32  C   UNL     1      -4.764  12.230  -2.006  0.00  0.00    +0.131 C 
ENDBRANCH  27  31
ENDBRANCH   1  27
TORSDOF 5
