REMARK  Name = ZINC20291587
REMARK  12 active torsions:
REMARK  status: ('A' for Active; 'I' for Inactive)
REMARK    1  A    between atoms: C_1  and  C_2
REMARK    2  A    between atoms: C_2  and  N_3
REMARK    3  A    between atoms: N_3  and  C_4
REMARK    4  A    between atoms: N_3  and  C_6
REMARK    5  A    between atoms: C_4  and  C_5
REMARK    6  A    between atoms: C_6  and  C_7
REMARK    7  A    between atoms: C_7  and  C_8
REMARK    8  A    between atoms: C_8  and  N_9
REMARK    9  A    between atoms: C_10  and  C_30
REMARK   10  A    between atoms: C_12  and  C_17
REMARK   11  A    between atoms: C_17  and  C_19
REMARK   12  A    between atoms: C_26  and  C_29
REMARK                            x       y       z     vdW  Elec       q    Type
REMARK                         _______ _______ _______ _____ _____    ______ ____
ROOT
ATOM      1  N   UNL     1       2.043  -2.744   0.078  0.00  0.00    -0.284 N 
ATOM      2  C   UNL     1       1.426  -1.414  -0.006  0.00  0.00    +0.145 C 
ATOM      3  C   UNL     1       2.566  -0.422  -0.029  0.00  0.00    +0.076 C 
ATOM      4  C   UNL     1       3.710  -1.141   0.045  0.00  0.00    +0.249 C 
ATOM      5  C   UNL     1       3.378  -2.579   0.111  0.00  0.00    +0.288 C 
ATOM      6  O   UNL     1       4.189  -3.480   0.185  0.00  0.00    -0.266 OA
ATOM      7  O   UNL     1       4.961  -0.624   0.057  0.00  0.00    -0.282 OA
ENDROOT
BRANCH   2   8
ATOM      8  C   UNL     1       0.616  -1.301  -1.272  0.00  0.00    -0.021 A 
ATOM      9  C   UNL     1      -0.548  -0.555  -1.283  0.00  0.00    +0.006 A 
ATOM     10  C   UNL     1      -1.292  -0.451  -2.443  0.00  0.00    +0.001 A 
ATOM     11  C   UNL     1      -0.872  -1.093  -3.593  0.00  0.00    +0.015 A 
ATOM     12  C   UNL     1       0.292  -1.839  -3.583  0.00  0.00    +0.018 A 
ATOM     13  C   UNL     1       1.039  -1.939  -2.423  0.00  0.00    +0.021 A 
ATOM     14 BR   UNL     1       0.867  -2.717  -5.156  0.00  0.00    -0.050 Br
ENDBRANCH   2   8
BRANCH   3  15
ATOM     15  C   UNL     1       2.453   1.038  -0.110  0.00  0.00    +0.195 C 
ATOM     16  O   UNL     1       2.847   1.625  -1.100  0.00  0.00    -0.287 OA
BRANCH  15  17
ATOM     17  C   UNL     1       1.862   1.795   1.011  0.00  0.00    +0.023 A 
ATOM     18  C   UNL     1       1.334   1.121   2.117  0.00  0.00    +0.015 A 
ATOM     19  C   UNL     1       0.777   1.828   3.155  0.00  0.00    +0.046 A 
ATOM     20  C   UNL     1       0.740   3.223   3.122  0.00  0.00    +0.124 A 
ATOM     21  C   UNL     1       1.272   3.889   2.021  0.00  0.00    -0.002 A 
ATOM     22  C   UNL     1       1.825   3.193   0.975  0.00  0.00    +0.019 A 
ATOM     23  C   UNL     1       1.098   5.374   2.275  0.00  0.00    +0.083 C 
ATOM     24  C   UNL     1       0.789   5.405   3.790  0.00  0.00    +0.175 C 
ATOM     25  O   UNL     1       0.233   4.101   4.029  0.00  0.00    -0.488 OA
ATOM     26  C   UNL     1       2.071   5.604   4.601  0.00  0.00    +0.052 C 
ENDBRANCH  15  17
ENDBRANCH   3  15
BRANCH   1  27
ATOM     27  C   UNL     1       1.330  -4.023   0.123  0.00  0.00    +0.107 C 
BRANCH  27  28
ATOM     28  C   UNL     1       1.037  -4.391   1.579  0.00  0.00    +0.000 C 
BRANCH  28  29
ATOM     29  C   UNL     1       0.293  -5.728   1.627  0.00  0.00    -0.077 C 
BRANCH  29  30
ATOM     30  N   UNL     1       0.012  -6.082   3.025  0.00  0.00    +0.379 N 
ATOM     31  H   UNL     1       0.956  -6.020   3.585  0.00  0.00    -0.082 HD
BRANCH  30  33
ATOM     32  C   UNL     1      -2.284  -5.236   2.915  0.00  0.00    -0.017 C 
ATOM     33  C   UNL     1      -0.934  -5.133   3.628  0.00  0.00    -0.082 C 
ENDBRANCH  30  33
BRANCH  30  34
ATOM     34  C   UNL     1      -0.486  -7.460   3.128  0.00  0.00    -0.082 C 
ATOM     35  C   UNL     1      -0.413  -7.920   4.586  0.00  0.00    -0.017 C 
ENDBRANCH  30  34
ENDBRANCH  29  30
ENDBRANCH  28  29
ENDBRANCH  27  28
ENDBRANCH   1  27
TORSDOF 9
