REMARK  Name = ZINC04503710
REMARK  8 active torsions:
REMARK  status: ('A' for Active; 'I' for Inactive)
REMARK    1  A    between atoms: C_1  and  C_2
REMARK    2  A    between atoms: C_7  and  S_13
REMARK    3  A    between atoms: S_13  and  C_14
REMARK    4  A    between atoms: C_14  and  C_15
REMARK    5  A    between atoms: N_17  and  C_18
REMARK    6  A    between atoms: C_18  and  C_19
REMARK    7  A    between atoms: C_18  and  C_20
REMARK    8  A    between atoms: C_18  and  C_21
REMARK                            x       y       z     vdW  Elec       q    Type
REMARK                         _______ _______ _______ _____ _____    ______ ____
ROOT
ATOM      1  C   UNL     1       3.196  -1.111   7.905  0.00  0.00    +0.045 C 
ATOM      2  C   UNL     1       2.296  -0.493   6.867  0.00  0.00    -0.034 A 
ATOM      3  C   UNL     1       1.189   0.268   7.267  0.00  0.00    +0.008 A 
ATOM      4  C   UNL     1       0.378   0.825   6.322  0.00  0.00    +0.047 A 
ATOM      5  C   UNL     1       0.668   0.624   4.964  0.00  0.00    +0.144 A 
ATOM      6  N   UNL     1      -0.109   1.157   4.020  0.00  0.00    -0.204 NA
ATOM      7  C   UNL     1       0.174   0.961   2.735  0.00  0.00    +0.195 A 
ATOM      8  N   UNL     1       1.227   0.230   2.374  0.00  0.00    -0.167 NA
ATOM      9  C   UNL     1       2.024  -0.310   3.293  0.00  0.00    +0.356 A 
ATOM     10  O   UNL     1       2.990  -0.973   2.954  0.00  0.00    -0.244 OA
ATOM     11  N   UNL     1       1.756  -0.124   4.602  0.00  0.00    -0.252 N 
ATOM     12  C   UNL     1       2.559  -0.675   5.553  0.00  0.00    +0.101 A 
ENDROOT
BRANCH   7  13
ATOM     13  S   UNL     1      -0.860   1.669   1.497  0.00  0.00    -0.076 S 
BRANCH  13  14
ATOM     14  C   UNL     1      -0.013   1.086   0.008  0.00  0.00    +0.173 C 
BRANCH  14  15
ATOM     15  C   UNL     1      -0.742   1.585  -1.213  0.00  0.00    +0.224 C 
ATOM     16  O   UNL     1      -1.736   2.268  -1.088  0.00  0.00    -0.275 OA
ATOM     17  N   UNL     1      -0.288   1.272  -2.443  0.00  0.00    -0.310 N 
ATOM     18  H   UNL     1       0.507   0.726  -2.543  0.00  0.00    +0.149 HD
BRANCH  17  19
ATOM     19  C   UNL     1      -0.997   1.758  -3.630  0.00  0.00    +0.026 C 
ATOM     20  C   UNL     1      -1.018   3.288  -3.622  0.00  0.00    +0.031 C 
ATOM     21  C   UNL     1      -0.281   1.264  -4.889  0.00  0.00    +0.031 C 
ATOM     22  C   UNL     1      -2.432   1.228  -3.619  0.00  0.00    +0.031 C 
ENDBRANCH  17  19
ENDBRANCH  14  15
ENDBRANCH  13  14
ENDBRANCH   7  13
TORSDOF 4
