REMARK  Name = ZINC45285343
REMARK  14 active torsions:
REMARK  status: ('A' for Active; 'I' for Inactive)
REMARK    1  A    between atoms: C_1  and  C_2
REMARK    2  A    between atoms: C_2  and  N_3
REMARK    3  A    between atoms: N_3  and  C_4
REMARK    4  A    between atoms: N_3  and  C_6
REMARK    5  A    between atoms: C_4  and  C_5
REMARK    6  A    between atoms: C_6  and  C_7
REMARK    7  A    between atoms: C_7  and  N_8
REMARK    8  A    between atoms: N_17  and  C_18
REMARK    9  A    between atoms: C_18  and  C_20
REMARK   10  A    between atoms: C_20  and  C_22
REMARK   11  A    between atoms: C_20  and  N_26
REMARK   12  A    between atoms: C_22  and  C_23
REMARK   13  A    between atoms: C_23  and  C_24
REMARK   14  A    between atoms: C_23  and  C_25
REMARK                            x       y       z     vdW  Elec       q    Type
REMARK                         _______ _______ _______ _____ _____    ______ ____
ROOT
ATOM      1  N   UNL     1      -1.449  -3.761  -1.659  0.00  0.00    -0.314 N 
ATOM      2  C   UNL     1      -1.579  -4.443  -2.864  0.00  0.00    +0.068 A 
ATOM      3  C   UNL     1      -1.509  -4.044  -4.191  0.00  0.00    +0.028 A 
ATOM      4  C   UNL     1      -1.684  -4.971  -5.198  0.00  0.00    +0.002 A 
ATOM      5  C   UNL     1      -1.929  -6.299  -4.891  0.00  0.00    +0.002 A 
ATOM      6  C   UNL     1      -2.001  -6.707  -3.574  0.00  0.00    +0.028 A 
ATOM      7  C   UNL     1      -1.826  -5.782  -2.553  0.00  0.00    +0.066 A 
ATOM      8  N   UNL     1      -1.841  -5.885  -1.166  0.00  0.00    -0.326 N 
ATOM      9  C   UNL     1      -1.605  -4.652  -0.645  0.00  0.00    +0.201 A 
ATOM     10  N   UNL     1      -1.541  -4.363   0.652  0.00  0.00    -0.145 NA
ATOM     11  H   UNL     1      -1.990  -6.698  -0.658  0.00  0.00    +0.169 HD
ENDROOT
BRANCH  10  12
ATOM     12  C   UNL     1      -1.591  -5.339   1.554  0.00  0.00    +0.260 C 
ATOM     13  O   UNL     1      -1.601  -6.500   1.193  0.00  0.00    -0.272 OA
BRANCH  12  14
ATOM     14  C   UNL     1      -1.635  -5.006   3.023  0.00  0.00    +0.172 C 
BRANCH  14  15
ATOM     15  N   UNL     1      -1.686  -6.245   3.803  0.00  0.00    -0.230 N 
ATOM     16  C   UNL     1      -0.722  -7.184   3.755  0.00  0.00    +0.227 C 
ATOM     17  O   UNL     1       0.375  -7.064   3.252  0.00  0.00    -0.275 OA
ATOM     18  C   UNL     1      -1.270  -8.436   4.459  0.00  0.00    +0.091 C 
ATOM     19  C   UNL     1      -1.988  -9.221   3.358  0.00  0.00    +0.040 C 
ATOM     20  C   UNL     1      -3.201  -9.939   3.839  0.00  0.00    -0.030 C 
ATOM     21  C   UNL     1      -3.820  -9.685   4.944  0.00  0.00    -0.030 C 
ATOM     22  C   UNL     1      -3.362  -8.651   5.923  0.00  0.00    +0.040 C 
ATOM     23  C   UNL     1      -2.268  -7.759   5.413  0.00  0.00    +0.091 C 
ATOM     24  C   UNL     1      -2.703  -6.547   4.641  0.00  0.00    +0.227 C 
ATOM     25  O   UNL     1      -3.758  -5.959   4.747  0.00  0.00    -0.275 OA
ENDBRANCH  14  15
BRANCH  14  26
ATOM     26  C   UNL     1      -0.383  -4.214   3.404  0.00  0.00    +0.035 C 
BRANCH  26  27
ATOM     27  C   UNL     1      -0.486  -3.769   4.864  0.00  0.00    -0.015 C 
ATOM     28  C   UNL     1       0.818  -3.086   5.282  0.00  0.00    +0.007 C 
ATOM     29  C   UNL     1      -1.649  -2.786   5.017  0.00  0.00    +0.007 C 
ENDBRANCH  26  27
ENDBRANCH  14  26
ENDBRANCH  12  14
ENDBRANCH  10  12
BRANCH   1  30
ATOM     30  C   UNL     1      -1.183  -2.328  -1.508  0.00  0.00    +0.106 C 
BRANCH  30  31
ATOM     31  C   UNL     1       0.328  -2.091  -1.467  0.00  0.00    -0.057 C 
BRANCH  31  32
ATOM     32  N   UNL     1       0.594  -0.654  -1.316  0.00  0.00    +0.380 N 
ATOM     33  H   UNL     1       0.127  -0.146  -2.052  0.00  0.00    -0.082 HD
BRANCH  32  35
ATOM     34  C   UNL     1       0.242   1.322   0.087  0.00  0.00    -0.017 C 
ATOM     35  C   UNL     1       0.093  -0.198  -0.013  0.00  0.00    -0.082 C 
ENDBRANCH  32  35
BRANCH  32  36
ATOM     36  C   UNL     1       2.041  -0.413  -1.396  0.00  0.00    -0.082 C 
ATOM     37  C   UNL     1       2.537  -0.755  -2.803  0.00  0.00    -0.017 C 
ENDBRANCH  32  36
ENDBRANCH  31  32
ENDBRANCH  30  31
ENDBRANCH   1  30
TORSDOF 10
