REMARK  Name = ZINC34747514
REMARK  4 active torsions:
REMARK  status: ('A' for Active; 'I' for Inactive)
REMARK    1  A    between atoms: C_1  and  C_2
REMARK    2  A    between atoms: C_2  and  N_3
REMARK    3  A    between atoms: N_16  and  C_19
REMARK    4  A    between atoms: C_19  and  C_20
REMARK                            x       y       z     vdW  Elec       q    Type
REMARK                         _______ _______ _______ _____ _____    ______ ____
ROOT
ATOM      1  N   UNL     1       0.854   0.311   2.548  0.00  0.00    -0.281 N 
ATOM      2  C   UNL     1       2.187   0.163   2.440  0.00  0.00    +0.264 A 
ATOM      3  O   UNL     1       2.926   1.126   2.550  0.00  0.00    -0.267 OA
ATOM      4  C   UNL     1       2.725  -1.140   2.196  0.00  0.00    +0.076 A 
ATOM      5  C   UNL     1       4.128  -1.529   2.043  0.00  0.00    -0.023 A 
ATOM      6  C   UNL     1       4.380  -2.834   1.817  0.00  0.00    -0.004 A 
ATOM      7  S   UNL     1       2.788  -3.614   1.794  0.00  0.00    -0.073 S 
ATOM      8  C   UNL     1       1.785  -2.179   2.088  0.00  0.00    +0.117 A 
ATOM      9  N   UNL     1       0.479  -1.966   2.204  0.00  0.00    -0.208 NA
ATOM     10  C   UNL     1       0.012  -0.756   2.434  0.00  0.00    +0.202 A 
ATOM     11  N   UNL     1      -1.342  -0.566   2.556  0.00  0.00    -0.304 N 
ATOM     12  C   UNL     1      -2.170  -0.246   1.383  0.00  0.00    +0.089 C 
ATOM     13  C   UNL     1      -3.365  -1.204   1.355  0.00  0.00    -0.059 C 
ATOM     14  N   UNL     1      -4.078  -1.133   2.637  0.00  0.00    +0.387 N 
ATOM     15  C   UNL     1      -3.210  -1.615   3.719  0.00  0.00    -0.059 C 
ATOM     16  C   UNL     1      -2.008  -0.682   3.863  0.00  0.00    +0.089 C 
ATOM     17  C   UNL     1       5.718  -3.481   1.627  0.00  0.00    +0.043 C 
ATOM     18  C   UNL     1       6.754  -2.380   1.355  0.00  0.00    +0.005 C 
ATOM     19  C   UNL     1       6.574  -1.270   2.395  0.00  0.00    +0.005 C 
ATOM     20  C   UNL     1       5.268  -0.519   2.133  0.00  0.00    +0.037 C 
ATOM     21  H   UNL     1      -4.343  -0.177   2.820  0.00  0.00    -0.081 HD
ENDROOT
BRANCH   1  23
ATOM     22  C   UNL     1       0.319   1.931   4.300  0.00  0.00    +0.027 C 
ATOM     23  C   UNL     1       0.296   1.642   2.798  0.00  0.00    +0.125 C 
ENDBRANCH   1  23
BRANCH  14  24
ATOM     24  C   UNL     1      -5.285  -1.968   2.571  0.00  0.00    +0.019 C 
BRANCH  24  25
ATOM     25  C   UNL     1      -6.081  -1.800   3.839  0.00  0.00    +0.199 C 
ATOM     26  O   UNL     1      -5.683  -1.059   4.712  0.00  0.00    -0.278 OA
ATOM     27  N   UNL     1      -7.236  -2.475   4.004  0.00  0.00    -0.299 N 
ATOM     28  C   UNL     1      -7.737  -3.386   2.961  0.00  0.00    +0.136 C 
ATOM     29  C   UNL     1      -8.073  -4.731   3.615  0.00  0.00    +0.179 C 
ATOM     30  O   UNL     1      -8.937  -4.508   4.732  0.00  0.00    -0.377 OA
ATOM     31  C   UNL     1      -8.356  -3.720   5.774  0.00  0.00    +0.179 C 
ATOM     32  C   UNL     1      -8.031  -2.328   5.233  0.00  0.00    +0.136 C 
ENDBRANCH  24  25
ENDBRANCH  14  24
TORSDOF 3
