REMARK  Name = ZINC12064337
REMARK  9 active torsions:
REMARK  status: ('A' for Active; 'I' for Inactive)
REMARK    1  A    between atoms: C_1  and  N_2
REMARK    2  A    between atoms: C_3  and  C_5
REMARK    3  A    between atoms: C_9  and  N_10
REMARK    4  A    between atoms: C_11  and  C_13
REMARK    5  A    between atoms: C_16  and  S_19
REMARK    6  A    between atoms: S_19  and  N_22
REMARK    7  A    between atoms: N_22  and  C_23
REMARK    8  A    between atoms: N_22  and  C_24
REMARK    9  A    between atoms: C_24  and  C_25
REMARK                            x       y       z     vdW  Elec       q    Type
REMARK                         _______ _______ _______ _____ _____    ______ ____
ROOT
ATOM      1  N   UNL     1       3.136   7.895   1.889  0.00  0.00    -0.275 N 
ATOM      2  C   UNL     1       1.954   7.572   2.451  0.00  0.00    +0.249 C 
ATOM      3  O   UNL     1       1.250   8.442   2.926  0.00  0.00    -0.270 OA
ATOM      4  H   UNL     1       3.698   7.201   1.510  0.00  0.00    +0.156 HD
ENDROOT
BRANCH   1   9
ATOM      5  C   UNL     1       4.721   9.740   1.331  0.00  0.00    +0.069 A 
ATOM      6  C   UNL     1       4.915  11.181   1.413  0.00  0.00    -0.023 A 
ATOM      7  C   UNL     1       3.916  11.857   2.020  0.00  0.00    -0.004 A 
ATOM      8  S   UNL     1       2.729  10.617   2.461  0.00  0.00    -0.077 S 
ATOM      9  C   UNL     1       3.549   9.217   1.855  0.00  0.00    +0.085 A 
ATOM     10  C   UNL     1       3.832  13.329   2.279  0.00  0.00    +0.043 C 
ATOM     11  C   UNL     1       4.166  14.091   0.990  0.00  0.00    +0.005 C 
ATOM     12  C   UNL     1       5.672  14.332   0.950  0.00  0.00    +0.001 C 
ATOM     13  C   UNL     1       6.409  13.172   1.615  0.00  0.00    +0.005 C 
ATOM     14  C   UNL     1       6.153  11.874   0.857  0.00  0.00    +0.037 C 
BRANCH   5  17
ATOM     15  C   UNL     1       7.720   7.475   0.846  0.00  0.00    +0.128 C 
ATOM     16  N   UNL     1       6.713   8.341   1.464  0.00  0.00    -0.314 N 
ATOM     17  C   UNL     1       5.729   8.873   0.713  0.00  0.00    +0.246 C 
ATOM     18  O   UNL     1       5.676   8.634  -0.479  0.00  0.00    -0.270 OA
ATOM     19  H   UNL     1       6.755   8.532   2.414  0.00  0.00    +0.149 HD
ENDBRANCH   5  17
ENDBRANCH   1   9
BRANCH   2  20
ATOM     20  C   UNL     1       1.513   6.162   2.488  0.00  0.00    +0.037 A 
ATOM     21  C   UNL     1       0.290   5.825   3.068  0.00  0.00    +0.015 A 
ATOM     22  C   UNL     1      -0.116   4.507   3.099  0.00  0.00    +0.029 A 
ATOM     23  C   UNL     1       0.688   3.520   2.556  0.00  0.00    +0.106 A 
ATOM     24  C   UNL     1       1.905   3.846   1.984  0.00  0.00    +0.029 A 
ATOM     25  C   UNL     1       2.319   5.162   1.942  0.00  0.00    +0.015 A 
BRANCH  23  26
ATOM     26  S   UNL     1       0.163   1.838   2.600  0.00  0.00    +0.061 S 
ATOM     27  O   UNL     1      -0.756   1.728   3.678  0.00  0.00    -0.153 OA
ATOM     28  O   UNL     1       1.338   1.044   2.516  0.00  0.00    -0.153 OA
BRANCH  26  29
ATOM     29  N   UNL     1      -0.698   1.558   1.213  0.00  0.00    -0.177 NA
ATOM     30  C   UNL     1      -0.013   1.086   0.008  0.00  0.00    +0.131 C 
BRANCH  29  31
ATOM     31  C   UNL     1      -2.146   1.783   1.192  0.00  0.00    +0.140 C 
BRANCH  31  32
ATOM     32  C   UNL     1      -2.871   0.465   1.474  0.00  0.00    +0.134 C 
ATOM     33  C   UNL     1      -4.398   0.651   1.333  0.00  0.00    +0.035 C 
ATOM     34  C   UNL     1      -4.989  -0.237   2.451  0.00  0.00    +0.031 C 
ATOM     35  C   UNL     1      -3.748  -0.853   3.136  0.00  0.00    +0.160 C 
ATOM     36  O   UNL     1      -2.673   0.066   2.848  0.00  0.00    -0.375 OA
ENDBRANCH  31  32
ENDBRANCH  29  31
ENDBRANCH  26  29
ENDBRANCH  23  26
ENDBRANCH   2  20
TORSDOF 7
