REMARK  Name = ZINC08793531
REMARK  9 active torsions:
REMARK  status: ('A' for Active; 'I' for Inactive)
REMARK    1  A    between atoms: C_1  and  C_2
REMARK    2  A    between atoms: C_7  and  C_8
REMARK    3  A    between atoms: C_7  and  C_9
REMARK    4  A    between atoms: C_10  and  S_14
REMARK    5  A    between atoms: S_14  and  C_15
REMARK    6  A    between atoms: C_18  and  C_26
REMARK    7  A    between atoms: N_19  and  C_20
REMARK    8  A    between atoms: C_26  and  N_27
REMARK    9  A    between atoms: C_28  and  C_30
REMARK                            x       y       z     vdW  Elec       q    Type
REMARK                         _______ _______ _______ _____ _____    ______ ____
ROOT
ATOM      1  C   UNL     1       1.028  -3.232  -3.306  0.00  0.00    +0.193 A 
ATOM      2  N   UNL     1       2.039  -2.445  -3.591  0.00  0.00    -0.122 NA
ATOM      3  N   UNL     1       2.410  -2.634  -4.807  0.00  0.00    -0.132 NA
ATOM      4  C   UNL     1       1.665  -3.545  -5.366  0.00  0.00    +0.152 A 
ATOM      5  N   UNL     1       0.761  -3.963  -4.428  0.00  0.00    -0.302 N 
ENDROOT
BRANCH   5   6
ATOM      6  C   UNL     1      -0.279  -4.982  -4.594  0.00  0.00    +0.091 C 
ATOM      7  C   UNL     1      -1.653  -4.352  -4.354  0.00  0.00    +0.025 C 
ATOM      8  C   UNL     1      -2.739  -5.415  -4.527  0.00  0.00    +0.002 C 
ATOM      9  C   UNL     1      -2.512  -6.544  -3.520  0.00  0.00    +0.000 C 
ATOM     10  C   UNL     1      -1.139  -7.174  -3.760  0.00  0.00    +0.002 C 
ATOM     11  C   UNL     1      -0.053  -6.111  -3.587  0.00  0.00    +0.025 C 
ENDBRANCH   5   6
BRANCH   1  12
ATOM     12  S   UNL     1       0.180  -3.332  -1.765  0.00  0.00    -0.075 S 
BRANCH  12  21
ATOM     13  C   UNL     1      -0.019   1.526   0.010  0.00  0.00    +0.019 C 
ATOM     14  C   UNL     1       0.002  -0.004   0.002  0.00  0.00    +0.033 C 
ATOM     15  C   UNL     1      -1.390  -0.703   0.064  0.00  0.00    +0.015 C 
ATOM     16  C   UNL     1      -1.085  -2.137   0.556  0.00  0.00    +0.006 C 
ATOM     17  C   UNL     1       0.465  -2.165   0.735  0.00  0.00    +0.016 C 
ATOM     18  C   UNL     1       0.727  -0.692   1.212  0.00  0.00    -0.019 C 
ATOM     19  C   UNL     1       2.220  -0.359   1.253  0.00  0.00    +0.012 C 
ATOM     20  C   UNL     1       0.040  -0.388   2.544  0.00  0.00    +0.012 C 
ATOM     21  C   UNL     1       1.022  -2.111  -0.721  0.00  0.00    +0.124 C 
ATOM     22  C   UNL     1       0.731  -0.657  -1.181  0.00  0.00    +0.153 C 
ATOM     23  O   UNL     1       0.996  -0.153  -2.246  0.00  0.00    -0.296 OA
ENDBRANCH  12  21
ENDBRANCH   1  12
BRANCH   4  24
ATOM     24  C   UNL     1       1.781  -4.050  -6.781  0.00  0.00    +0.180 C 
BRANCH  24  25
ATOM     25  N   UNL     1       2.698  -5.191  -6.819  0.00  0.00    -0.308 N 
ATOM     26  C   UNL     1       2.957  -5.809  -7.988  0.00  0.00    +0.220 C 
ATOM     27  O   UNL     1       2.431  -5.420  -9.009  0.00  0.00    -0.275 OA
ATOM     28  H   UNL     1       3.119  -5.503  -6.002  0.00  0.00    +0.149 HD
BRANCH  26  29
ATOM     29  C   UNL     1       3.901  -6.984  -8.027  0.00  0.00    +0.048 C 
ATOM     30  C   UNL     1       3.362  -8.100  -7.130  0.00  0.00    +0.019 C 
ATOM     31  C   UNL     1       4.321  -9.293  -7.170  0.00  0.00    -0.009 C 
ATOM     32  C   UNL     1       4.439  -9.805  -8.607  0.00  0.00    +0.007 C 
ATOM     33  C   UNL     1       4.977  -8.688  -9.504  0.00  0.00    -0.009 C 
ATOM     34  C   UNL     1       4.019  -7.496  -9.464  0.00  0.00    +0.019 C 
ATOM     35  C   UNL     1       6.355  -8.252  -9.003  0.00  0.00    +0.007 C 
ATOM     36  C   UNL     1       6.237  -7.739  -7.566  0.00  0.00    -0.009 C 
ATOM     37  C   UNL     1       5.699  -8.856  -6.669  0.00  0.00    +0.007 C 
ATOM     38  C   UNL     1       5.279  -6.547  -7.527  0.00  0.00    +0.019 C 
ENDBRANCH  26  29
ENDBRANCH  24  25
ENDBRANCH   4  24
TORSDOF 6
