REMARK  Name = ZINC45512838
REMARK  5 active torsions:
REMARK  status: ('A' for Active; 'I' for Inactive)
REMARK    1  A    between atoms: N_11  and  C_12
REMARK    2  A    between atoms: N_15  and  C_18
REMARK    3  A    between atoms: C_18  and  C_19
REMARK    4  A    between atoms: C_22  and  C_32
REMARK    5  A    between atoms: C_25  and  C_27
REMARK                            x       y       z     vdW  Elec       q    Type
REMARK                         _______ _______ _______ _____ _____    ______ ____
ROOT
ATOM      1  C   UNL     1       4.875  -0.586  -0.046  0.00  0.00    +0.089 C 
ATOM      2  C   UNL     1       5.517  -1.188  -1.300  0.00  0.00    +0.006 C 
ATOM      3  C   UNL     1       7.026  -0.933  -1.266  0.00  0.00    -0.076 C 
ATOM      4  N   UNL     1       7.604  -1.558  -0.071  0.00  0.00    +0.386 N 
ATOM      5  C   UNL     1       7.046  -0.937   1.136  0.00  0.00    -0.076 C 
ATOM      6  C   UNL     1       5.538  -1.191   1.194  0.00  0.00    +0.006 C 
ATOM      7  H   UNL     1       7.389  -2.544  -0.071  0.00  0.00    -0.081 HD
ENDROOT
BRANCH   1  18
ATOM      8  C   UNL     1      -0.017   1.377   0.010  0.00  0.00    +0.002 A 
ATOM      9  C   UNL     1       1.169   2.091   0.002  0.00  0.00    +0.002 A 
ATOM     10  C   UNL     1       2.381   1.429  -0.013  0.00  0.00    +0.028 A 
ATOM     11  C   UNL     1       2.410   0.043  -0.021  0.00  0.00    +0.070 A 
ATOM     12  C   UNL     1       1.214  -0.678  -0.013  0.00  0.00    +0.067 A 
ATOM     13  C   UNL     1       0.002  -0.004   0.002  0.00  0.00    +0.028 A 
ATOM     14  N   UNL     1       1.557  -2.028  -0.023  0.00  0.00    -0.306 N 
ATOM     15  H   UNL     1       0.934  -2.772  -0.021  0.00  0.00    +0.170 HD
ATOM     16  C   UNL     1       2.900  -2.124  -0.036  0.00  0.00    +0.328 A 
ATOM     17  O   UNL     1       3.528  -3.166  -0.047  0.00  0.00    -0.247 OA
ATOM     18  N   UNL     1       3.443  -0.892  -0.035  0.00  0.00    -0.289 N 
ENDBRANCH   1  18
BRANCH   4  19
ATOM     19  C   UNL     1       9.062  -1.379  -0.083  0.00  0.00    +0.021 C 
BRANCH  19  20
ATOM     20  C   UNL     1       9.670  -2.124   1.077  0.00  0.00    +0.219 C 
ATOM     21  O   UNL     1       8.958  -2.744   1.839  0.00  0.00    -0.276 OA
ATOM     22  N   UNL     1      11.004  -2.102   1.268  0.00  0.00    -0.184 N 
ATOM     23  C   UNL     1      11.725  -2.787   2.352  0.00  0.00    +0.173 C 
ATOM     24  C   UNL     1      13.200  -2.428   2.091  0.00  0.00    +0.093 C 
ATOM     25  C   UNL     1      13.151  -1.556   0.857  0.00  0.00    +0.104 C 
ATOM     26  N   UNL     1      11.926  -1.431   0.467  0.00  0.00    -0.178 NA
BRANCH  25  27
ATOM     27  C   UNL     1      14.313  -0.951   0.200  0.00  0.00    +0.150 A 
ATOM     28  C   UNL     1      14.285  -0.158  -0.910  0.00  0.00    +0.051 A 
ATOM     29  C   UNL     1      15.618   0.196  -1.189  0.00  0.00    +0.042 A 
ATOM     30  C   UNL     1      16.388  -0.389  -0.249  0.00  0.00    +0.196 A 
ATOM     31  O   UNL     1      15.598  -1.076   0.591  0.00  0.00    -0.462 OA
ENDBRANCH  25  27
BRANCH  23  32
ATOM     32  C   UNL     1      11.516  -4.277   2.268  0.00  0.00    +0.128 A 
ATOM     33  C   UNL     1      11.345  -5.108   3.312  0.00  0.00    +0.046 A 
ATOM     34  C   UNL     1      11.186  -6.408   2.779  0.00  0.00    +0.041 A 
ATOM     35  C   UNL     1      11.270  -6.294   1.441  0.00  0.00    +0.195 A 
ATOM     36  O   UNL     1      11.464  -5.001   1.137  0.00  0.00    -0.466 OA
ENDBRANCH  23  32
ENDBRANCH  19  20
ENDBRANCH   4  19
TORSDOF 5
