REMARK  Name = ZINC37203993
REMARK  5 active torsions:
REMARK  status: ('A' for Active; 'I' for Inactive)
REMARK    1  A    between atoms: C_3  and  N_21
REMARK    2  A    between atoms: C_4  and  S_8
REMARK    3  A    between atoms: S_8  and  C_9
REMARK    4  A    between atoms: C_9  and  C_10
REMARK    5  A    between atoms: C_13  and  C_15
REMARK                            x       y       z     vdW  Elec       q    Type
REMARK                         _______ _______ _______ _____ _____    ______ ____
ROOT
ATOM      1  C   UNL     1       4.339  -1.062   1.715  0.00  0.00    +0.172 C 
ENDROOT
BRANCH   1   2
ATOM      2  C   UNL     1       5.649  -1.796   1.841  0.00  0.00    +0.228 A 
ATOM      3  N   UNL     1       6.831  -1.253   1.912  0.00  0.00    -0.111 NA
ATOM      4  N   UNL     1       7.724  -2.174   2.014  0.00  0.00    -0.107 NA
ATOM      5  C   UNL     1       7.135  -3.350   2.013  0.00  0.00    +0.255 A 
ATOM      6  O   UNL     1       5.808  -3.131   1.908  0.00  0.00    -0.419 OA
BRANCH   5   7
ATOM      7  C   UNL     1       7.798  -4.659   2.112  0.00  0.00    +0.077 A 
ATOM      8  C   UNL     1       9.145  -4.946   2.232  0.00  0.00    +0.022 A 
ATOM      9  C   UNL     1       9.529  -6.264   2.309  0.00  0.00    +0.024 A 
ATOM     10  C   UNL     1       8.579  -7.237   2.266  0.00  0.00    +0.056 A 
ATOM     11  S   UNL     1       7.073  -6.290   2.118  0.00  0.00    -0.077 S 
ATOM     12 BR   UNL     1       8.798  -9.113   2.348  0.00  0.00    -0.043 Br
ENDBRANCH   5   7
ENDBRANCH   1   2
BRANCH   1  13
ATOM     13  S   UNL     1       3.939  -0.838  -0.041  0.00  0.00    -0.112 S 
BRANCH  13  17
ATOM     14  C   UNL     1      -0.017   1.378   0.010  0.00  0.00    +0.003 A 
ATOM     15  C   UNL     1       1.169   2.090   0.002  0.00  0.00    +0.024 A 
ATOM     16  C   UNL     1       2.382   1.418  -0.013  0.00  0.00    +0.040 A 
ATOM     17  C   UNL     1       2.402   0.023  -0.021  0.00  0.00    +0.047 A 
ATOM     18  C   UNL     1       1.208  -0.683  -0.013  0.00  0.00    +0.056 A 
ATOM     19  C   UNL     1       0.002  -0.004   0.002  0.00  0.00    +0.021 A 
ATOM     20 CL   UNL     1       1.226  -2.419  -0.023  0.00  0.00    -0.082 Cl
BRANCH  16  21
ATOM     21  N   UNL     1       3.583   2.138  -0.021  0.00  0.00    -0.357 N 
ATOM     22  H   UNL     1       3.567   3.108  -0.016  0.00  0.00    +0.142 HD
ATOM     23  H   UNL     1       4.430   1.666  -0.032  0.00  0.00    +0.142 HD
ENDBRANCH  16  21
ENDBRANCH  13  17
ENDBRANCH   1  13
TORSDOF 5
