REMARK  Name = ZINC28807115
REMARK  6 active torsions:
REMARK  status: ('A' for Active; 'I' for Inactive)
REMARK    1  A    between atoms: C_6  and  C_7
REMARK    2  A    between atoms: C_10  and  S_13
REMARK    3  A    between atoms: S_13  and  C_14
REMARK    4  A    between atoms: C_14  and  C_15
REMARK    5  A    between atoms: N_17  and  C_18
REMARK    6  A    between atoms: C_19  and  C_26
REMARK                            x       y       z     vdW  Elec       q    Type
REMARK                         _______ _______ _______ _____ _____    ______ ____
ROOT
ATOM      1  C   UNL     1       5.503  -1.616  -0.060  0.00  0.00    +0.228 C 
ATOM      2  O   UNL     1       6.321  -0.720  -0.063  0.00  0.00    -0.275 OA
ATOM      3  N   UNL     1       5.912  -2.900  -0.070  0.00  0.00    -0.279 N 
ATOM      4  H   UNL     1       5.171  -3.713  -0.067  0.00  0.00    +0.155 HD
ENDROOT
BRANCH   3   5
ATOM      5  C   UNL     1       7.266  -3.197  -0.085  0.00  0.00    +0.084 A 
ATOM      6  C   UNL     1       7.875  -4.440  -0.092  0.00  0.00    +0.068 A 
ATOM      7  C   UNL     1       9.336  -4.479  -0.112  0.00  0.00    -0.023 A 
ATOM      8  C   UNL     1       9.940  -3.277  -0.112  0.00  0.00    -0.004 A 
ATOM      9  S   UNL     1       8.607  -2.102  -0.092  0.00  0.00    -0.077 S 
ATOM     10  C   UNL     1      11.439  -3.398  -0.131  0.00  0.00    +0.043 C 
ATOM     11  C   UNL     1      11.707  -4.852  -0.579  0.00  0.00    +0.010 C 
ATOM     12  C   UNL     1      10.416  -5.562  -0.127  0.00  0.00    +0.037 C 
BRANCH   6  13
ATOM     13  C   UNL     1       7.082  -5.674  -0.084  0.00  0.00    +0.244 C 
ATOM     14  O   UNL     1       6.742  -6.186  -1.134  0.00  0.00    -0.270 OA
ATOM     15  N   UNL     1       6.730  -6.241   1.087  0.00  0.00    -0.325 N 
ATOM     16  H   UNL     1       6.136  -7.166   1.094  0.00  0.00    +0.145 HD
ATOM     17  H   UNL     1       7.038  -5.778   2.037  0.00  0.00    +0.145 HD
ENDBRANCH   6  13
ENDBRANCH   3   5
BRANCH   1  18
ATOM     18  C   UNL     1       4.031  -1.293  -0.044  0.00  0.00    +0.173 C 
BRANCH  18  19
ATOM     19  S   UNL     1       3.807   0.503  -0.032  0.00  0.00    -0.077 S 
BRANCH  19  23
ATOM     20  C   UNL     1      -0.016   1.308   0.009  0.00  0.00    +0.182 A 
ATOM     21  N   UNL     1       1.294   1.730  -0.001  0.00  0.00    -0.201 NA
ATOM     22  H   UNL     1       1.422  -1.507  -0.019  0.00  0.00    +0.191 HD
ATOM     23  C   UNL     1       2.048   0.591  -0.014  0.00  0.00    +0.185 A 
ATOM     24  N   UNL     1       1.216  -0.426  -0.011  0.00  0.00    -0.253 N 
ATOM     25  N   UNL     1       0.002  -0.004   0.003  0.00  0.00    -0.152 NA
BRANCH  20  31
ATOM     26  C   UNL     1      -1.081   3.560   0.036  0.00  0.00    +0.013 A 
ATOM     27  C   UNL     1      -2.205   4.360   0.046  0.00  0.00    +0.021 A 
ATOM     28  C   UNL     1      -3.466   3.786   0.055  0.00  0.00    +0.041 A 
ATOM     29  C   UNL     1      -3.606   2.409   0.048  0.00  0.00    +0.021 A 
ATOM     30  C   UNL     1      -2.490   1.599   0.033  0.00  0.00    +0.013 A 
ATOM     31  C   UNL     1      -1.216   2.171   0.025  0.00  0.00    +0.021 A 
ATOM     32 CL   UNL     1      -4.876   4.799   0.074  0.00  0.00    -0.084 Cl
ENDBRANCH  20  31
ENDBRANCH  19  23
ENDBRANCH  18  19
ENDBRANCH   1  18
TORSDOF 6
