REMARK  Name = ZINC21096885
REMARK  10 active torsions:
REMARK  status: ('A' for Active; 'I' for Inactive)
REMARK    1  A    between atoms: C_1  and  C_2
REMARK    2  A    between atoms: C_2  and  C_3
REMARK    3  A    between atoms: N_9  and  C_10
REMARK    4  A    between atoms: C_10  and  C_11
REMARK    5  A    between atoms: C_14  and  C_16
REMARK    6  A    between atoms: C_16  and  N_17
REMARK    7  A    between atoms: C_18  and  C_20
REMARK    8  A    between atoms: C_22  and  C_25
REMARK    9  A    between atoms: C_25  and  S_26
REMARK   10  A    between atoms: S_26  and  C_29
REMARK                            x       y       z     vdW  Elec       q    Type
REMARK                         _______ _______ _______ _____ _____    ______ ____
ROOT
ATOM      1  N   UNL     1       6.638   4.830   1.928  0.00  0.00    -0.300 N 
ATOM      2  C   UNL     1       7.640   5.513   2.517  0.00  0.00    +0.302 C 
ATOM      3  O   UNL     1       8.610   4.919   2.946  0.00  0.00    -0.265 OA
ATOM      4  H   UNL     1       5.864   5.303   1.586  0.00  0.00    +0.150 HD
ENDROOT
BRANCH   2   5
ATOM      5  C   UNL     1       7.558   6.987   2.643  0.00  0.00    +0.313 A 
ATOM      6  N   UNL     1       8.462   7.765   3.187  0.00  0.00    -0.186 NA
ATOM      7  C   UNL     1       8.065   9.037   3.130  0.00  0.00    +0.193 A 
ATOM      8  N   UNL     1       6.900   9.095   2.548  0.00  0.00    -0.059 NA
ATOM      9  O   UNL     1       6.547   7.761   2.213  0.00  0.00    -0.328 OA
BRANCH   7  10
ATOM     10  C   UNL     1       8.839  10.219   3.656  0.00  0.00    +0.251 C 
BRANCH  10  11
ATOM     11  S   UNL     1       9.918  10.864   2.348  0.00  0.00    +0.004 S 
ATOM     12  O   UNL     1      10.943   9.926   2.051  0.00  0.00    -0.169 OA
ATOM     13  O   UNL     1       9.138  11.438   1.309  0.00  0.00    -0.169 OA
BRANCH  11  14
ATOM     14  C   UNL     1      10.757  12.227   3.086  0.00  0.00    +0.089 A 
ATOM     15  C   UNL     1      10.209  13.494   3.020  0.00  0.00    +0.027 A 
ATOM     16  C   UNL     1      10.867  14.563   3.598  0.00  0.00    +0.002 A 
ATOM     17  C   UNL     1      12.074  14.365   4.243  0.00  0.00    +0.000 A 
ATOM     18  C   UNL     1      12.622  13.098   4.309  0.00  0.00    +0.002 A 
ATOM     19  C   UNL     1      11.961  12.028   3.735  0.00  0.00    +0.027 A 
ENDBRANCH  11  14
ENDBRANCH  10  11
ENDBRANCH   7  10
ENDBRANCH   2   5
BRANCH   1  20
ATOM     20  C   UNL     1       6.719   3.372   1.804  0.00  0.00    +0.179 C 
BRANCH  20  24
ATOM     21  C   UNL     1       3.459   2.076   0.793  0.00  0.00    +0.089 A 
ATOM     22  C   UNL     1       4.027   2.195  -0.420  0.00  0.00    +0.043 A 
ATOM     23  C   UNL     1       5.332   2.699  -0.214  0.00  0.00    +0.046 A 
ATOM     24  C   UNL     1       5.483   2.857   1.113  0.00  0.00    +0.122 A 
ATOM     25  O   UNL     1       4.343   2.484   1.718  0.00  0.00    -0.465 OA
BRANCH  21  26
ATOM     26  C   UNL     1       2.064   1.576   1.068  0.00  0.00    -0.003 C 
BRANCH  26  32
ATOM     27  C   UNL     1       0.725  -0.380   1.426  0.00  0.00    -0.068 C 
ATOM     28  C   UNL     1       0.747  -1.905   1.549  0.00  0.00    -0.015 C 
ATOM     29  C   UNL     1       1.584  -2.301   2.768  0.00  0.00    -0.003 C 
ATOM     30  C   UNL     1       2.990  -1.711   2.624  0.00  0.00    -0.019 C 
ATOM     31  C   UNL     1       2.885  -0.193   2.461  0.00  0.00    -0.078 C 
ATOM     32  N   UNL     1       2.095   0.120   1.264  0.00  0.00    +0.386 N 
ATOM     33  H   UNL     1       2.519  -0.316   0.459  0.00  0.00    -0.081 HD
BRANCH  27  35
ATOM     34  C   UNL     1      -1.555  -0.444   0.406  0.00  0.00    +0.002 C 
ATOM     35  C   UNL     1      -0.111   0.021   0.209  0.00  0.00    -0.019 C 
ENDBRANCH  27  35
ENDBRANCH  26  32
ENDBRANCH  21  26
ENDBRANCH  20  24
ENDBRANCH   1  20
TORSDOF 9
