REMARK  Name = ZINC04898072
REMARK  4 active torsions:
REMARK  status: ('A' for Active; 'I' for Inactive)
REMARK    1  A    between atoms: C_1  and  C_2
REMARK    2  A    between atoms: C_3  and  C_23
REMARK    3  A    between atoms: C_10  and  N_11
REMARK    4  A    between atoms: N_11  and  C_12
REMARK                            x       y       z     vdW  Elec       q    Type
REMARK                         _______ _______ _______ _____ _____    ______ ____
ROOT
ATOM      1  N   UNL     1      -0.012   1.005   0.008  0.00  0.00    -0.322 N 
ATOM      2  H   UNL     1      -0.185   0.049   0.281  0.00  0.00    +0.148 HD
ENDROOT
BRANCH   1  12
ATOM      3  C   UNL     1      -2.747   0.266  -0.302  0.00  0.00    +0.049 C 
ATOM      4  C   UNL     1      -1.962   0.962  -1.384  0.00  0.00    +0.010 A 
ATOM      5  C   UNL     1      -2.563   1.278  -2.600  0.00  0.00    +0.048 A 
ATOM      6  N   UNL     1      -1.875   1.882  -3.547  0.00  0.00    -0.215 NA
ATOM      7  C   UNL     1      -0.590   2.210  -3.368  0.00  0.00    +0.255 A 
ATOM      8  N   UNL     1       0.299   2.809  -4.153  0.00  0.00    -0.197 NA
ATOM      9  C   UNL     1       1.460   2.911  -3.518  0.00  0.00    +0.247 A 
ATOM     10  N   UNL     1       1.355   2.387  -2.321  0.00  0.00    -0.151 NA
ATOM     11  N   UNL     1       0.040   1.923  -2.190  0.00  0.00    -0.182 N 
ATOM     12  C   UNL     1      -0.638   1.299  -1.183  0.00  0.00    +0.129 A 
ATOM     13  C   UNL     1      -4.008   0.923  -2.836  0.00  0.00    +0.066 C 
ENDBRANCH   1  12
BRANCH   1  14
ATOM     14  C   UNL     1       1.430   1.275  -0.075  0.00  0.00    +0.102 C 
ATOM     15  C   UNL     1       2.178   0.302   0.835  0.00  0.00    +0.027 C 
ATOM     16  C   UNL     1       3.647   0.735   0.902  0.00  0.00    +0.007 C 
ATOM     17  C   UNL     1       3.728   2.039   1.693  0.00  0.00    +0.035 C 
ATOM     18  C   UNL     1       2.753   3.050   1.149  0.00  0.00    -0.042 A 
ATOM     19  C   UNL     1       1.693   2.698   0.343  0.00  0.00    -0.024 A 
ATOM     20  C   UNL     1       0.822   3.678  -0.114  0.00  0.00    +0.006 A 
ATOM     21  C   UNL     1       1.012   5.001   0.230  0.00  0.00    +0.000 A 
ATOM     22  C   UNL     1       2.078   5.355   1.035  0.00  0.00    +0.000 A 
ATOM     23  C   UNL     1       2.944   4.382   1.492  0.00  0.00    +0.004 A 
ENDBRANCH   1  14
TORSDOF 2
