REMARK  Name = ZINC43732383
REMARK  5 active torsions:
REMARK  status: ('A' for Active; 'I' for Inactive)
REMARK    1  A    between atoms: C_1  and  N_2
REMARK    2  A    between atoms: C_4  and  C_26
REMARK    3  A    between atoms: C_6  and  C_19
REMARK    4  A    between atoms: C_19  and  C_21
REMARK    5  A    between atoms: C_30  and  N_32
REMARK                            x       y       z     vdW  Elec       q    Type
REMARK                         _______ _______ _______ _____ _____    ______ ____
ROOT
ATOM      1  C   UNL     1       1.144   1.309   1.269  0.00  0.00    +0.106 C 
ATOM      2  N   UNL     1       0.738   0.026   0.680  0.00  0.00    -0.287 NA
ATOM      3  C   UNL     1      -0.719   0.001   0.418  0.00  0.00    +0.094 C 
ATOM      4  C   UNL     1      -1.140  -1.470   0.664  0.00  0.00    +0.046 C 
ATOM      5  C   UNL     1      -0.233  -1.862   1.862  0.00  0.00    +0.106 C 
ATOM      6  C   UNL     1       1.064  -1.090   1.574  0.00  0.00    +0.136 C 
ATOM      7  C   UNL     1       1.692  -0.605   2.853  0.00  0.00    +0.006 A 
ATOM      8  C   UNL     1       1.266   0.242   3.852  0.00  0.00    +0.046 A 
ATOM      9  C   UNL     1       2.088   0.504   4.936  0.00  0.00    +0.124 A 
ATOM     10  C   UNL     1       3.337  -0.089   5.010  0.00  0.00    +0.040 A 
ATOM     11  C   UNL     1       3.766  -0.937   4.010  0.00  0.00    +0.026 A 
ATOM     12  C   UNL     1       2.945  -1.203   2.917  0.00  0.00    +0.039 A 
ATOM     13  N   UNL     1       3.152  -2.011   1.796  0.00  0.00    -0.283 N 
ATOM     14  C   UNL     1       2.098  -1.999   0.959  0.00  0.00    +0.243 C 
ATOM     15  O   UNL     1       1.998  -2.603  -0.088  0.00  0.00    -0.273 OA
ATOM     16  F   UNL     1       1.672   1.334   5.917  0.00  0.00    -0.205 F 
ATOM     17  H   UNL     1       3.962  -2.522   1.639  0.00  0.00    +0.155 HD
ENDROOT
BRANCH   4  18
ATOM     18  C   UNL     1      -2.598  -1.559   1.037  0.00  0.00    -0.040 A 
ATOM     19  C   UNL     1      -3.266  -0.435   1.487  0.00  0.00    +0.004 A 
ATOM     20  C   UNL     1      -4.602  -0.517   1.830  0.00  0.00    +0.002 A 
ATOM     21  C   UNL     1      -5.271  -1.722   1.722  0.00  0.00    +0.033 A 
ATOM     22  C   UNL     1      -4.603  -2.845   1.272  0.00  0.00    +0.126 A 
ATOM     23  C   UNL     1      -3.268  -2.763   0.925  0.00  0.00    +0.036 A 
BRANCH  22  24
ATOM     24  N   UNL     1      -5.319  -4.136   1.157  0.00  0.00    +0.056 N 
ATOM     25  O   UNL     1      -6.488  -4.207   1.457  0.00  0.00    -0.126 OA
ATOM     26  O   UNL     1      -4.735  -5.118   0.763  0.00  0.00    -0.126 OA
ENDBRANCH  22  24
ENDBRANCH   4  18
BRANCH   5  27
ATOM     27  C   UNL     1      -0.847  -1.415   3.164  0.00  0.00    +0.204 C 
ATOM     28  O   UNL     1      -1.438  -0.356   3.225  0.00  0.00    -0.288 OA
BRANCH  27  29
ATOM     29  C   UNL     1      -0.735  -2.229   4.314  0.00  0.00    +0.170 A 
ATOM     30  C   UNL     1      -1.250  -1.948   5.564  0.00  0.00    +0.053 A 
ATOM     31  C   UNL     1      -0.901  -3.024   6.390  0.00  0.00    +0.042 A 
ATOM     32  C   UNL     1      -0.202  -3.901   5.633  0.00  0.00    +0.196 A 
ATOM     33  O   UNL     1      -0.109  -3.424   4.386  0.00  0.00    -0.460 OA
ENDBRANCH  27  29
ENDBRANCH   5  27
TORSDOF 4
