REMARK  Name = ZINC08971065
REMARK  2 active torsions:
REMARK  status: ('A' for Active; 'I' for Inactive)
REMARK    1  A    between atoms: C_4  and  C_7
REMARK    2  A    between atoms: C_17  and  C_19
REMARK                            x       y       z     vdW  Elec       q    Type
REMARK                         _______ _______ _______ _____ _____    ______ ____
ROOT
ATOM      1  C   UNL     1       3.696  -0.686  -0.037  0.00  0.00    +0.071 A 
ATOM      2  C   UNL     1       4.017  -1.742  -0.821  0.00  0.00    +0.027 A 
ATOM      3  C   UNL     1       5.344  -2.118  -0.523  0.00  0.00    +0.151 A 
ATOM      4  N   UNL     1       5.798  -1.326   0.404  0.00  0.00    -0.158 NA
ATOM      5  N   UNL     1       4.791  -0.404   0.731  0.00  0.00    -0.275 N 
ATOM      6  H   UNL     1       4.859   0.307   1.388  0.00  0.00    +0.189 HD
ATOM      7  N   UNL     1       5.966  -3.182  -1.195  0.00  0.00    -0.269 N 
ATOM      8  C   UNL     1       5.334  -3.709  -2.264  0.00  0.00    +0.219 C 
ATOM      9  O   UNL     1       5.747  -4.750  -2.731  0.00  0.00    -0.275 OA
ATOM     10  C   UNL     1       4.141  -3.057  -2.900  0.00  0.00    +0.109 C 
ATOM     11  C   UNL     1       3.192  -2.470  -1.851  0.00  0.00    +0.063 C 
ATOM     12  H   UNL     1       6.824  -3.527  -0.900  0.00  0.00    +0.156 HD
ENDROOT
BRANCH  11  13
ATOM     13  C   UNL     1       2.416  -3.579  -1.190  0.00  0.00    -0.039 A 
ATOM     14  C   UNL     1       3.086  -4.588  -0.523  0.00  0.00    +0.005 A 
ATOM     15  C   UNL     1       2.375  -5.606   0.084  0.00  0.00    +0.020 A 
ATOM     16  C   UNL     1       0.993  -5.616   0.025  0.00  0.00    +0.041 A 
ATOM     17  C   UNL     1       0.323  -4.606  -0.643  0.00  0.00    +0.020 A 
ATOM     18  C   UNL     1       1.035  -3.585  -1.245  0.00  0.00    +0.005 A 
ATOM     19 CL   UNL     1       0.100  -6.894   0.787  0.00  0.00    -0.084 Cl
ENDBRANCH  11  13
BRANCH   1  23
ATOM     20  C   UNL     1      -0.017   1.379   0.010  0.00  0.00    +0.000 A 
ATOM     21  C   UNL     1       1.168   2.093   0.002  0.00  0.00    +0.001 A 
ATOM     22  C   UNL     1       2.377   1.428  -0.013  0.00  0.00    +0.010 A 
ATOM     23  C   UNL     1       2.403   0.033  -0.021  0.00  0.00    +0.000 A 
ATOM     24  C   UNL     1       1.205  -0.680  -0.013  0.00  0.00    +0.010 A 
ATOM     25  C   UNL     1       0.002  -0.004   0.002  0.00  0.00    +0.001 A 
ENDBRANCH   1  23
TORSDOF 2
