REMARK  Name = ZINC05270237
REMARK  5 active torsions:
REMARK  status: ('A' for Active; 'I' for Inactive)
REMARK    1  A    between atoms: C_1  and  C_2
REMARK    2  A    between atoms: C_2  and  C_3
REMARK    3  A    between atoms: C_2  and  N_42
REMARK    4  A    between atoms: N_12  and  C_16
REMARK    5  A    between atoms: C_16  and  C_17
REMARK                            x       y       z     vdW  Elec       q    Type
REMARK                         _______ _______ _______ _____ _____    ______ ____
ROOT
ATOM      1  C   UNL     1       0.047   5.307  -2.607  0.00  0.00    -0.031 C 
ATOM      2  C   UNL     1      -0.421   3.894  -2.371  0.00  0.00    +0.039 A 
ATOM      3  C   UNL     1      -1.311   3.308  -3.289  0.00  0.00    +0.257 A 
ATOM      4  O   UNL     1      -1.696   3.941  -4.257  0.00  0.00    -0.267 OA
ATOM      5  N   UNL     1      -1.735   2.045  -3.095  0.00  0.00    -0.275 N 
ATOM      6  H   UNL     1      -2.373   1.629  -3.743  0.00  0.00    +0.173 HD
ATOM      7  C   UNL     1      -1.305   1.339  -2.033  0.00  0.00    +0.331 A 
ATOM      8  O   UNL     1      -1.691   0.197  -1.878  0.00  0.00    -0.246 OA
ATOM      9  N   UNL     1      -0.460   1.879  -1.139  0.00  0.00    -0.277 N 
ATOM     10  C   UNL     1      -0.005   3.172  -1.295  0.00  0.00    +0.108 A 
ATOM     11  N   UNL     1       0.845   3.681  -0.351  0.00  0.00    -0.347 N 
ATOM     12  C   UNL     1       1.603   4.837  -0.837  0.00  0.00    +0.028 C 
ATOM     13  H   UNL     1       0.350   3.905   0.499  0.00  0.00    +0.145 HD
ATOM     14  N   UNL     1       0.645   5.827  -1.366  0.00  0.00    +0.394 N 
ATOM     15  H   UNL     1      -0.096   5.981  -0.673  0.00  0.00    -0.079 HD
ENDROOT
BRANCH  14  17
ATOM     16  C   UNL     1       1.959   7.625  -0.333  0.00  0.00    -0.013 C 
ATOM     17  C   UNL     1       1.334   7.112  -1.631  0.00  0.00    -0.072 C 
ATOM     18  C   UNL     1       2.429   6.914  -2.682  0.00  0.00    -0.013 C 
ENDBRANCH  14  17
BRANCH   9  19
ATOM     19  C   UNL     1      -0.013   1.086   0.008  0.00  0.00    +0.164 C 
BRANCH  19  20
ATOM     20  C   UNL     1       1.336   0.484  -0.293  0.00  0.00    -0.009 A 
ATOM     21  C   UNL     1       2.488   1.139   0.099  0.00  0.00    +0.007 A 
ATOM     22  C   UNL     1       3.725   0.587  -0.177  0.00  0.00    +0.000 A 
ATOM     23  C   UNL     1       3.810  -0.621  -0.844  0.00  0.00    +0.001 A 
ATOM     24  C   UNL     1       2.659  -1.277  -1.236  0.00  0.00    +0.020 A 
ATOM     25  C   UNL     1       1.420  -0.727  -0.956  0.00  0.00    +0.046 A 
ATOM     26 CL   UNL     1      -0.027  -1.554  -1.441  0.00  0.00    -0.083 Cl
ENDBRANCH  19  20
ENDBRANCH   9  19
TORSDOF 3
