REMARK  Name = ZINC12412515
REMARK  11 active torsions:
REMARK  status: ('A' for Active; 'I' for Inactive)
REMARK    1  A    between atoms: C_1  and  C_2
REMARK    2  A    between atoms: C_2  and  O_3
REMARK    3  A    between atoms: O_3  and  C_4
REMARK    4  A    between atoms: C_4  and  C_6
REMARK    5  A    between atoms: C_7  and  C_22
REMARK    6  A    between atoms: C_12  and  C_14
REMARK    7  A    between atoms: C_16  and  C_21
REMARK    8  A    between atoms: C_19  and  C_20
REMARK    9  A    between atoms: C_22  and  N_23
REMARK   10  A    between atoms: N_23  and  C_24
REMARK   11  A    between atoms: C_24  and  C_25
REMARK                            x       y       z     vdW  Elec       q    Type
REMARK                         _______ _______ _______ _____ _____    ______ ____
ROOT
ATOM      1  C   UNL     1      -1.846  -1.181  -1.167  0.00  0.00    +0.079 C 
ATOM      2  C   UNL     1      -1.390  -0.573  -0.051  0.00  0.00    +0.038 C 
ATOM      3  N   UNL     1      -2.213  -0.346   1.015  0.00  0.00    -0.271 N 
ATOM      4  C   UNL     1      -3.504  -0.702   1.045  0.00  0.00    +0.304 C 
ATOM      5  O   UNL     1      -4.158  -0.457   2.040  0.00  0.00    -0.252 OA
ATOM      6  N   UNL     1      -4.101  -1.323   0.009  0.00  0.00    -0.288 N 
ATOM      7  C   UNL     1      -3.298  -1.614  -1.191  0.00  0.00    +0.144 C 
ATOM      8  H   UNL     1      -1.825   0.155   1.913  0.00  0.00    +0.156 HD
ATOM      9  H   UNL     1      -5.162  -1.612   0.043  0.00  0.00    +0.151 HD
ENDROOT
BRANCH   7  10
ATOM     10  C   UNL     1      -3.339  -3.102  -1.428  0.00  0.00    -0.019 A 
ATOM     11  C   UNL     1      -2.267  -3.891  -1.057  0.00  0.00    +0.009 A 
ATOM     12  C   UNL     1      -2.306  -5.256  -1.271  0.00  0.00    -0.050 A 
ATOM     13  C   UNL     1      -3.415  -5.831  -1.864  0.00  0.00    +0.003 A 
ATOM     14  C   UNL     1      -4.485  -5.041  -2.240  0.00  0.00    +0.004 A 
ATOM     15  C   UNL     1      -4.447  -3.676  -2.022  0.00  0.00    -0.045 A 
ATOM     16  C   UNL     1      -5.614  -2.815  -2.432  0.00  0.00    +0.044 C 
ATOM     17  C   UNL     1      -1.140  -6.117  -0.861  0.00  0.00    +0.044 C 
ENDBRANCH   7  10
BRANCH   1  18
ATOM     18  C   UNL     1      -0.995  -1.412  -2.273  0.00  0.00    +0.339 C 
ATOM     19  O   UNL     1      -1.111  -0.738  -3.280  0.00  0.00    -0.245 OA
BRANCH  18  20
ATOM     20  O   UNL     1      -0.056  -2.379  -2.213  0.00  0.00    -0.462 OA
BRANCH  20  22
ATOM     21  C   UNL     1       1.754  -3.694  -3.125  0.00  0.00    +0.048 C 
ATOM     22  C   UNL     1       0.843  -2.480  -3.319  0.00  0.00    +0.229 C 
ENDBRANCH  20  22
ENDBRANCH  18  20
ENDBRANCH   1  18
BRANCH   2  23
ATOM     23  C   UNL     1       0.049  -0.131   0.018  0.00  0.00    +0.133 C 
BRANCH  23  24
ATOM     24  N   UNL     1       0.109   1.334   0.096  0.00  0.00    -0.307 NA
ATOM     25  H   UNL     1      -0.366   1.769  -0.796  0.00  0.00    +0.123 HD
BRANCH  24  26
ATOM     26  C   UNL     1       1.500   1.802   0.164  0.00  0.00    +0.118 C 
BRANCH  26  27
ATOM     27  C   UNL     1       1.521   3.307   0.244  0.00  0.00    -0.015 A 
ATOM     28  C   UNL     1       1.781   4.055  -0.889  0.00  0.00    +0.006 A 
ATOM     29  C   UNL     1       1.796   5.435  -0.818  0.00  0.00    +0.000 A 
ATOM     30  C   UNL     1       1.560   6.068   0.389  0.00  0.00    +0.001 A 
ATOM     31  C   UNL     1       1.305   5.321   1.523  0.00  0.00    +0.020 A 
ATOM     32  C   UNL     1       1.285   3.939   1.451  0.00  0.00    +0.045 A 
ATOM     33 CL   UNL     1       0.966   3.000   2.876  0.00  0.00    -0.083 Cl
ENDBRANCH  26  27
ENDBRANCH  24  26
ENDBRANCH  23  24
ENDBRANCH   2  23
TORSDOF 8
