REMARK  Name = ZINC41600707
REMARK  4 active torsions:
REMARK  status: ('A' for Active; 'I' for Inactive)
REMARK    1  A    between atoms: C_1  and  C_2
REMARK    2  A    between atoms: N_8  and  S_9
REMARK    3  A    between atoms: S_9  and  C_12
REMARK    4  A    between atoms: C_20  and  C_23
REMARK                            x       y       z     vdW  Elec       q    Type
REMARK                         _______ _______ _______ _____ _____    ______ ____
ROOT
ATOM      1  C   UNL     1       0.280   0.575   3.600  0.00  0.00    +0.107 A 
ATOM      2  C   UNL     1      -0.771   1.473   3.609  0.00  0.00    +0.032 A 
ATOM      3  C   UNL     1      -1.666   1.488   4.662  0.00  0.00    +0.049 A 
ATOM      4  C   UNL     1      -1.513   0.601   5.717  0.00  0.00    +0.142 A 
ATOM      5  C   UNL     1      -0.452  -0.300   5.707  0.00  0.00    +0.071 A 
ATOM      6  C   UNL     1       0.439  -0.317   4.646  0.00  0.00    +0.055 A 
ATOM      7  N   UNL     1      -0.289  -1.195   6.777  0.00  0.00    -0.337 N 
ATOM      8  C   UNL     1      -1.415  -1.358   7.712  0.00  0.00    +0.145 C 
ATOM      9  C   UNL     1      -1.994   0.037   7.987  0.00  0.00    +0.187 C 
ATOM     10  O   UNL     1      -2.401   0.620   6.747  0.00  0.00    -0.486 OA
ATOM     11  C   UNL     1      -3.201  -0.084   8.919  0.00  0.00    +0.053 C 
ATOM     12  H   UNL     1       0.537  -1.690   6.896  0.00  0.00    +0.146 HD
ENDROOT
BRANCH   1  13
ATOM     13  S   UNL     1       1.415   0.561   2.252  0.00  0.00    +0.061 S 
ATOM     14  O   UNL     1       2.621  -0.009   2.743  0.00  0.00    -0.153 OA
ATOM     15  O   UNL     1       1.367   1.855   1.668  0.00  0.00    -0.153 OA
BRANCH  13  22
ATOM     16  C   UNL     1      -0.405   1.457   0.278  0.00  0.00    +0.026 C 
ATOM     17  C   UNL     1      -0.190  -0.052   0.148  0.00  0.00    +0.077 C 
ATOM     18  C   UNL     1       0.306  -0.381  -1.263  0.00  0.00    +0.020 C 
ATOM     19  C   UNL     1       0.652  -1.869  -1.345  0.00  0.00    +0.003 C 
ATOM     20  C   UNL     1       1.772  -2.190  -0.352  0.00  0.00    +0.017 C 
ATOM     21  C   UNL     1       1.292  -1.882   1.069  0.00  0.00    +0.110 C 
ATOM     22  N   UNL     1       0.819  -0.492   1.122  0.00  0.00    -0.174 NA
ENDBRANCH  13  22
ENDBRANCH   1  13
TORSDOF 2
