REMARK  Name = ZINC13521294
REMARK  11 active torsions:
REMARK  status: ('A' for Active; 'I' for Inactive)
REMARK    1  A    between atoms: C_1  and  C_2
REMARK    2  A    between atoms: N_8  and  C_9
REMARK    3  A    between atoms: C_9  and  C_10
REMARK    4  A    between atoms: C_10  and  N_11
REMARK    5  A    between atoms: C_12  and  C_14
REMARK    6  A    between atoms: C_14  and  C_16
REMARK    7  A    between atoms: C_14  and  N_23
REMARK    8  A    between atoms: C_16  and  C_17
REMARK    9  A    between atoms: N_23  and  S_24
REMARK   10  A    between atoms: S_24  and  C_27
REMARK   11  A    between atoms: C_36  and  C_38
REMARK                            x       y       z     vdW  Elec       q    Type
REMARK                         _______ _______ _______ _____ _____    ______ ____
ROOT
ATOM      1  C   UNL     1       6.224   0.603   3.874  0.00  0.00    +0.166 C 
ENDROOT
BRANCH   1   3
ATOM      2  N   UNL     1       4.003  -0.004   2.970  0.00  0.00    -0.316 N 
ATOM      3  C   UNL     1       4.882  -0.073   3.989  0.00  0.00    +0.232 C 
ATOM      4  O   UNL     1       4.594  -0.679   4.999  0.00  0.00    -0.274 OA
ATOM      5  H   UNL     1       4.234   0.480   2.162  0.00  0.00    +0.149 HD
BRANCH   2   6
ATOM      6  C   UNL     1       2.699  -0.662   3.082  0.00  0.00    +0.086 C 
BRANCH   6   7
ATOM      7  C   UNL     1       1.900  -0.432   1.798  0.00  0.00    -0.059 C 
BRANCH   7  14
ATOM      8  C   UNL     1      -0.347   0.747   0.596  0.00  0.00    -0.013 C 
ATOM      9  C   UNL     1      -0.219  -0.771   0.729  0.00  0.00    -0.072 C 
ATOM     10  C   UNL     1      -1.611  -1.389   0.880  0.00  0.00    -0.016 C 
ATOM     11  C   UNL     1      -1.477  -2.909   1.012  0.00  0.00    -0.003 C 
ATOM     12  C   UNL     1      -0.568  -3.230   2.202  0.00  0.00    -0.019 C 
ATOM     13  C   UNL     1       0.785  -2.544   2.003  0.00  0.00    -0.078 C 
ATOM     14  N   UNL     1       0.592  -1.092   1.910  0.00  0.00    +0.382 N 
ATOM     15  H   UNL     1       0.121  -0.762   2.740  0.00  0.00    -0.081 HD
ENDBRANCH   7  14
ENDBRANCH   6   7
ENDBRANCH   2   6
ENDBRANCH   1   3
BRANCH   1  16
ATOM     16  N   UNL     1       6.989   0.383   5.104  0.00  0.00    -0.178 NA
ATOM     17  H   UNL     1       6.853   0.963   5.870  0.00  0.00    +0.149 HD
BRANCH  16  18
ATOM     18  S   UNL     1       8.086  -0.855   5.186  0.00  0.00    +0.059 S 
ATOM     19  O   UNL     1       8.662  -0.801   6.484  0.00  0.00    -0.153 OA
ATOM     20  O   UNL     1       7.428  -2.013   4.692  0.00  0.00    -0.153 OA
BRANCH  18  21
ATOM     21  C   UNL     1       9.377  -0.484   4.047  0.00  0.00    +0.106 A 
ATOM     22  C   UNL     1       9.244  -0.825   2.713  0.00  0.00    +0.030 A 
ATOM     23  C   UNL     1      10.253  -0.537   1.819  0.00  0.00    +0.026 A 
ATOM     24  C   UNL     1      11.416   0.102   2.252  0.00  0.00    +0.040 A 
ATOM     25  C   UNL     1      11.539   0.441   3.590  0.00  0.00    -0.023 A 
ATOM     26  C   UNL     1      10.523   0.155   4.482  0.00  0.00    +0.034 A 
ATOM     27  C   UNL     1      12.877   1.115   3.795  0.00  0.00    +0.056 C 
ATOM     28  C   UNL     1      13.522   1.127   2.399  0.00  0.00    +0.118 C 
ATOM     29  N   UNL     1      12.545   0.481   1.519  0.00  0.00    -0.271 N 
ATOM     30  C   UNL     1      12.710   0.281   0.196  0.00  0.00    +0.217 C 
ATOM     31  O   UNL     1      11.805  -0.183  -0.465  0.00  0.00    -0.276 OA
ATOM     32  C   UNL     1      14.019   0.633  -0.462  0.00  0.00    +0.109 C 
ENDBRANCH  18  21
ENDBRANCH  16  18
ENDBRANCH   1  16
BRANCH   1  33
ATOM     33  C   UNL     1       6.021   2.105   3.661  0.00  0.00    +0.065 C 
BRANCH  33  34
ATOM     34  C   UNL     1       7.355   2.762   3.417  0.00  0.00    -0.045 A 
ATOM     35  C   UNL     1       8.133   3.167   4.486  0.00  0.00    +0.004 A 
ATOM     36  C   UNL     1       9.356   3.770   4.261  0.00  0.00    +0.000 A 
ATOM     37  C   UNL     1       9.803   3.967   2.968  0.00  0.00    +0.000 A 
ATOM     38  C   UNL     1       9.025   3.562   1.899  0.00  0.00    +0.000 A 
ATOM     39  C   UNL     1       7.804   2.955   2.124  0.00  0.00    +0.004 A 
ENDBRANCH  33  34
ENDBRANCH   1  33
TORSDOF 9
