REMARK  Name = ZINC12584377
REMARK  6 active torsions:
REMARK  status: ('A' for Active; 'I' for Inactive)
REMARK    1  A    between atoms: C_10  and  C_11
REMARK    2  A    between atoms: C_12  and  C_13
REMARK    3  A    between atoms: N_15  and  N_16
REMARK    4  A    between atoms: C_17  and  C_19
REMARK    5  A    between atoms: C_19  and  O_20
REMARK    6  A    between atoms: O_20  and  C_21
REMARK                            x       y       z     vdW  Elec       q    Type
REMARK                         _______ _______ _______ _____ _____    ______ ____
ROOT
ATOM      1  C   UNL     1       2.943   6.569   0.009  0.00  0.00    +0.253 C 
ATOM      2  O   UNL     1       4.074   6.120  -0.004  0.00  0.00    -0.269 OA
ATOM      3  N   UNL     1       1.885   5.734   0.015  0.00  0.00    -0.231 N 
ATOM      4  H   UNL     1       0.984   6.093   0.025  0.00  0.00    +0.173 HD
ENDROOT
BRANCH   3   5
ATOM      5  N   UNL     1       2.088   4.348   0.005  0.00  0.00    -0.231 N 
ATOM      6  C   UNL     1       1.030   3.512   0.011  0.00  0.00    +0.267 C 
ATOM      7  O   UNL     1      -0.097   3.961   0.024  0.00  0.00    -0.271 OA
ATOM      8  H   UNL     1       2.989   3.989  -0.005  0.00  0.00    +0.173 HD
BRANCH   6   9
ATOM      9  C   UNL     1       1.248   2.021   0.001  0.00  0.00    +0.326 C 
BRANCH   9  10
ATOM     10  O   UNL     1      -0.016   1.355   0.009  0.00  0.00    -0.482 OA
BRANCH  10  11
ATOM     11  C   UNL     1       0.002  -0.004   0.002  0.00  0.00    +0.135 A 
ATOM     12  C   UNL     1       1.212  -0.682  -0.013  0.00  0.00    +0.048 A 
ATOM     13  C   UNL     1       1.229  -2.063  -0.021  0.00  0.00    +0.019 A 
ATOM     14  C   UNL     1       0.040  -2.771  -0.013  0.00  0.00    +0.019 A 
ATOM     15  C   UNL     1      -1.168  -2.098   0.002  0.00  0.00    +0.034 A 
ATOM     16  C   UNL     1      -1.190  -0.715   0.015  0.00  0.00    +0.061 A 
ATOM     17 BR   UNL     1      -2.841   0.205   0.044  0.00  0.00    -0.046 Br
ATOM     18 BR   UNL     1       0.066  -4.662  -0.023  0.00  0.00    -0.050 Br
ENDBRANCH  10  11
ENDBRANCH   9  10
ENDBRANCH   6   9
ENDBRANCH   3   5
BRANCH   1  20
ATOM     19  C   UNL     1       3.792   8.854   0.013  0.00  0.00    +0.013 C 
ATOM     20  C   UNL     1       2.732   8.017   0.019  0.00  0.00    +0.069 C 
BRANCH  19  30
ATOM     21  C   UNL     1       6.824  13.026   0.007  0.00  0.00    +0.001 A 
ATOM     22  C   UNL     1       7.066  11.654  -0.002  0.00  0.00    +0.001 A 
ATOM     23  C   UNL     1       6.036  10.761   0.003  0.00  0.00    +0.009 A 
ATOM     24  C   UNL     1       4.716  11.227   0.017  0.00  0.00    -0.011 A 
ATOM     25  C   UNL     1       4.466  12.621   0.027  0.00  0.00    -0.017 A 
ATOM     26  C   UNL     1       5.553  13.513   0.021  0.00  0.00    +0.008 A 
ATOM     27  C   UNL     1       3.140  13.085   0.042  0.00  0.00    +0.008 A 
ATOM     28  C   UNL     1       2.097  12.210   0.048  0.00  0.00    +0.001 A 
ATOM     29  C   UNL     1       2.293  10.837   0.033  0.00  0.00    +0.008 A 
ATOM     30  C   UNL     1       3.580  10.306   0.023  0.00  0.00    -0.017 A 
ENDBRANCH  19  30
ENDBRANCH   1  20
TORSDOF 6
