REMARK  Name = ZINC08744270
REMARK  8 active torsions:
REMARK  status: ('A' for Active; 'I' for Inactive)
REMARK    1  A    between atoms: C_1  and  C_2
REMARK    2  A    between atoms: C_5  and  S_8
REMARK    3  A    between atoms: S_8  and  N_11
REMARK    4  A    between atoms: N_11  and  C_12
REMARK    5  A    between atoms: C_13  and  N_24
REMARK    6  A    between atoms: C_29  and  C_30
REMARK    7  A    between atoms: C_29  and  N_67
REMARK    8  A    between atoms: C_31  and  C_32
REMARK                            x       y       z     vdW  Elec       q    Type
REMARK                         _______ _______ _______ _____ _____    ______ ____
ROOT
ATOM      1  C   UNL     1       0.240  -1.740  -4.890  0.00  0.00    +0.120 C 
ATOM      2  C   UNL     1       0.615  -1.734  -3.583  0.00  0.00    +0.104 C 
ATOM      3  C   UNL     1       0.838  -2.997  -2.860  0.00  0.00    +0.210 C 
ATOM      4  O   UNL     1       1.168  -2.978  -1.690  0.00  0.00    -0.285 OA
ATOM      5  C   UNL     1       0.659  -4.288  -3.561  0.00  0.00    +0.034 A 
ATOM      6  C   UNL     1       0.866  -5.491  -2.897  0.00  0.00    +0.012 A 
ATOM      7  C   UNL     1       0.693  -6.689  -3.573  0.00  0.00    +0.001 A 
ATOM      8  C   UNL     1       0.318  -6.695  -4.902  0.00  0.00    +0.001 A 
ATOM      9  C   UNL     1       0.109  -5.502  -5.578  0.00  0.00    +0.012 A 
ATOM     10  C   UNL     1       0.278  -4.294  -4.914  0.00  0.00    +0.034 A 
ATOM     11  C   UNL     1       0.060  -3.008  -5.615  0.00  0.00    +0.211 C 
ATOM     12  O   UNL     1      -0.271  -3.000  -6.785  0.00  0.00    -0.285 OA
ENDROOT
BRANCH   2  13
ATOM     13  N   UNL     1       0.783  -0.523  -2.921  0.00  0.00    -0.329 N 
ATOM     14  C   UNL     1       2.104  -0.112  -2.422  0.00  0.00    +0.087 C 
ATOM     15  C   UNL     1       1.966   0.285  -0.949  0.00  0.00    -0.059 C 
ATOM     16  C   UNL     1      -0.398   0.760  -1.217  0.00  0.00    -0.059 C 
ATOM     17  C   UNL     1      -0.356   0.382  -2.701  0.00  0.00    +0.087 C 
ATOM     18  N   UNL     1       0.916   1.321  -0.833  0.00  0.00    +0.384 N 
ATOM     19  H   UNL     1       1.144   2.098  -1.465  0.00  0.00    -0.081 HD
BRANCH  18  20
ATOM     20  C   UNL     1       0.861   1.831   0.553  0.00  0.00    -0.051 C 
BRANCH  20  21
ATOM     21  C   UNL     1      -0.054   3.027   0.594  0.00  0.00    -0.045 C 
ATOM     22  C   UNL     1      -1.069   3.056   1.446  0.00  0.00    +0.002 C 
BRANCH  22  23
ATOM     23  C   UNL     1      -1.968   4.229   1.486  0.00  0.00    -0.025 A 
ATOM     24  C   UNL     1      -1.747   5.310   0.632  0.00  0.00    +0.008 A 
ATOM     25  C   UNL     1      -2.592   6.400   0.671  0.00  0.00    +0.001 A 
ATOM     26  C   UNL     1      -3.650   6.427   1.562  0.00  0.00    +0.000 A 
ATOM     27  C   UNL     1      -3.872   5.360   2.415  0.00  0.00    +0.001 A 
ATOM     28  C   UNL     1      -3.037   4.262   2.383  0.00  0.00    +0.008 A 
ENDBRANCH  22  23
ENDBRANCH  20  21
ENDBRANCH  18  20
ENDBRANCH   2  13
BRANCH   1  29
ATOM     29  N   UNL     1       0.030  -0.534  -5.550  0.00  0.00    -0.211 N 
ATOM     30  H   UNL     1       0.224   0.304  -5.103  0.00  0.00    +0.174 HD
BRANCH  29  31
ATOM     31  S   UNL     1      -0.551  -0.530  -7.101  0.00  0.00    +0.073 S 
ATOM     32  O   UNL     1      -0.810   0.827  -7.434  0.00  0.00    -0.150 OA
ATOM     33  O   UNL     1       0.324  -1.348  -7.865  0.00  0.00    -0.150 OA
BRANCH  31  38
ATOM     34  C   UNL     1      -5.894  -3.332  -7.013  0.00  0.00    +0.044 C 
ATOM     35  C   UNL     1      -4.559  -2.632  -7.035  0.00  0.00    -0.050 A 
ATOM     36  C   UNL     1      -4.386  -1.453  -6.335  0.00  0.00    +0.005 A 
ATOM     37  C   UNL     1      -3.162  -0.811  -6.355  0.00  0.00    +0.029 A 
ATOM     38  C   UNL     1      -2.111  -1.348  -7.075  0.00  0.00    +0.109 A 
ATOM     39  C   UNL     1      -2.286  -2.525  -7.779  0.00  0.00    +0.029 A 
ATOM     40  C   UNL     1      -3.509  -3.170  -7.755  0.00  0.00    +0.005 A 
ENDBRANCH  31  38
ENDBRANCH  29  31
ENDBRANCH   1  29
TORSDOF 7
