REMARK  Name = ZINC39631136
REMARK  11 active torsions:
REMARK  status: ('A' for Active; 'I' for Inactive)
REMARK    1  A    between atoms: C_1  and  C_2
REMARK    2  A    between atoms: C_2  and  C_4
REMARK    3  A    between atoms: C_2  and  N_11
REMARK    4  A    between atoms: C_4  and  C_5
REMARK    5  A    between atoms: C_5  and  C_6
REMARK    6  A    between atoms: C_6  and  C_7
REMARK    7  A    between atoms: C_7  and  C_8
REMARK    8  A    between atoms: C_7  and  C_9
REMARK    9  A    between atoms: C_7  and  O_10
REMARK   10  A    between atoms: C_12  and  C_14
REMARK   11  A    between atoms: C_25  and  C_27
REMARK                            x       y       z     vdW  Elec       q    Type
REMARK                         _______ _______ _______ _____ _____    ______ ____
ROOT
ATOM      1  C   UNL     1      -3.330  -0.544   1.293  0.00  0.00    +0.100 C 
ATOM      2  C   UNL     1      -4.435   0.197   0.508  0.00  0.00    +0.121 C 
ATOM      3  N   UNL     1      -5.653   0.043   1.338  0.00  0.00    -0.296 N 
ATOM      4  C   UNL     1      -5.170   0.191   2.732  0.00  0.00    +0.115 C 
ATOM      5  C   UNL     1      -3.816  -0.545   2.752  0.00  0.00    -0.004 C 
ATOM      6  C   UNL     1      -2.824   0.200   3.640  0.00  0.00    -0.010 C 
ATOM      7  C   UNL     1      -3.298   0.135   5.095  0.00  0.00    -0.082 C 
ATOM      8  N   UNL     1      -3.404  -1.267   5.515  0.00  0.00    +0.379 N 
ATOM      9  C   UNL     1      -4.428  -1.953   4.717  0.00  0.00    -0.082 C 
ATOM     10  C   UNL     1      -4.001  -1.977   3.247  0.00  0.00    -0.010 C 
ATOM     11  C   UNL     1      -6.914  -0.183   0.920  0.00  0.00    +0.247 C 
ATOM     12  O   UNL     1      -7.136  -0.392  -0.256  0.00  0.00    -0.270 OA
ATOM     13  H   UNL     1      -2.514  -1.725   5.383  0.00  0.00    -0.086 HD
ATOM     14  H   UNL     1      -3.658  -1.307   6.491  0.00  0.00    -0.086 HD
ENDROOT
BRANCH  11  15
ATOM     15  C   UNL     1      -8.027  -0.175   1.893  0.00  0.00    +0.038 A 
ATOM     16  C   UNL     1      -7.885   0.484   3.115  0.00  0.00    +0.014 A 
ATOM     17  C   UNL     1      -8.926   0.487   4.019  0.00  0.00    +0.022 A 
ATOM     18  C   UNL     1     -10.112  -0.161   3.717  0.00  0.00    +0.059 A 
ATOM     19  C   UNL     1     -10.260  -0.817   2.505  0.00  0.00    +0.060 A 
ATOM     20  C   UNL     1      -9.226  -0.822   1.590  0.00  0.00    +0.034 A 
ATOM     21 CL   UNL     1     -11.750  -1.627   2.134  0.00  0.00    -0.082 Cl
ATOM     22 CL   UNL     1     -11.418  -0.152   4.860  0.00  0.00    -0.082 Cl
ENDBRANCH  11  15
BRANCH   1  24
ATOM     23  N   UNL     1      -0.858  -0.490   1.235  0.00  0.00    -0.312 N 
ATOM     24  C   UNL     1      -2.020   0.191   1.177  0.00  0.00    +0.218 C 
ATOM     25  O   UNL     1      -2.011   1.395   1.031  0.00  0.00    -0.275 OA
ATOM     26  H   UNL     1      -0.865  -1.453   1.352  0.00  0.00    +0.149 HD
BRANCH  23  28
ATOM     27  C   UNL     1       0.768   0.409  -0.355  0.00  0.00    +0.028 C 
ATOM     28  C   UNL     1       0.416   0.225   1.122  0.00  0.00    +0.070 C 
BRANCH  28  29
ATOM     29  C   UNL     1       1.517  -0.583   1.811  0.00  0.00    +0.022 C 
BRANCH  29  30
ATOM     30  C   UNL     1       1.229  -0.662   3.312  0.00  0.00    +0.005 C 
BRANCH  30  31
ATOM     31  C   UNL     1       2.330  -1.470   4.001  0.00  0.00    +0.034 C 
BRANCH  31  32
ATOM     32  C   UNL     1       2.042  -1.548   5.502  0.00  0.00    +0.061 C 
ATOM     33  C   UNL     1       0.691  -2.231   5.727  0.00  0.00    +0.041 C 
ATOM     34  C   UNL     1       3.143  -2.356   6.191  0.00  0.00    +0.041 C 
BRANCH  32  35
ATOM     35  O   UNL     1       2.006  -0.229   6.049  0.00  0.00    -0.389 OA
ATOM     36  H   UNL     1       2.830   0.264   5.943  0.00  0.00    +0.210 HD
ENDBRANCH  32  35
ENDBRANCH  31  32
ENDBRANCH  30  31
ENDBRANCH  29  30
ENDBRANCH  28  29
ENDBRANCH  23  28
ENDBRANCH   1  24
TORSDOF 8
