REMARK  Name = ZINC48846641
REMARK  6 active torsions:
REMARK  status: ('A' for Active; 'I' for Inactive)
REMARK    1  A    between atoms: C_1  and  C_2
REMARK    2  A    between atoms: C_2  and  C_3
REMARK    3  A    between atoms: C_2  and  C_10
REMARK    4  A    between atoms: C_2  and  N_13
REMARK    5  A    between atoms: N_13  and  C_14
REMARK    6  A    between atoms: C_20  and  N_22
REMARK                            x       y       z     vdW  Elec       q    Type
REMARK                         _______ _______ _______ _____ _____    ______ ____
ROOT
ATOM      1  C   UNL     1       1.502  -0.247  -0.851  0.00  0.00    +0.045 C 
ATOM      2  C   UNL     1       0.281   0.213  -0.052  0.00  0.00    +0.144 C 
ENDROOT
BRANCH   2   3
ATOM      3  C   UNL     1       0.351   1.704   0.158  0.00  0.00    -0.014 A 
ATOM      4  C   UNL     1      -0.797   2.415   0.452  0.00  0.00    +0.006 A 
ATOM      5  C   UNL     1      -0.735   3.783   0.645  0.00  0.00    +0.003 A 
ATOM      6  C   UNL     1       0.477   4.440   0.544  0.00  0.00    +0.038 A 
ATOM      7  C   UNL     1       1.628   3.729   0.250  0.00  0.00    +0.124 A 
ATOM      8  C   UNL     1       1.564   2.358   0.063  0.00  0.00    +0.044 A 
ATOM      9  F   UNL     1       2.812   4.371   0.151  0.00  0.00    -0.205 F 
ENDBRANCH   2   3
BRANCH   2  10
ATOM     10  C   UNL     1       0.263  -0.482   1.285  0.00  0.00    +0.380 C 
ATOM     11  O   UNL     1       1.157  -0.281   2.088  0.00  0.00    -0.244 OA
ATOM     12  O   UNL     1      -0.646  -1.246   1.562  0.00  0.00    -0.244 OA
ENDBRANCH   2  10
BRANCH   2  13
ATOM     13  N   UNL     1      -0.943  -0.119  -0.794  0.00  0.00    -0.297 NA
ATOM     14  H   UNL     1      -1.054  -1.119  -0.877  0.00  0.00    +0.123 HD
BRANCH  13  15
ATOM     15  C   UNL     1      -0.949   0.523  -2.115  0.00  0.00    +0.040 C 
ATOM     16  C   UNL     1      -0.182  -0.350  -3.110  0.00  0.00    +0.017 C 
ATOM     17  C   UNL     1      -0.189   0.319  -4.486  0.00  0.00    +0.001 C 
ATOM     18  C   UNL     1      -1.632   0.490  -4.963  0.00  0.00    -0.001 C 
ATOM     19  C   UNL     1      -2.399   1.363  -3.968  0.00  0.00    -0.015 C 
ATOM     20  C   UNL     1      -2.392   0.694  -2.592  0.00  0.00    -0.058 C 
BRANCH  20  21
ATOM     21  N   UNL     1      -3.128   1.532  -1.637  0.00  0.00    +0.381 N 
ATOM     22  H   UNL     1      -2.687   2.437  -1.574  0.00  0.00    -0.090 HD
ATOM     23  H   UNL     1      -4.081   1.643  -1.950  0.00  0.00    -0.090 HD
ATOM     24  H   UNL     1      -3.123   1.092  -0.729  0.00  0.00    -0.090 HD
ENDBRANCH  20  21
ENDBRANCH  13  15
ENDBRANCH   2  13
TORSDOF 5
