REMARK  Name = ZINC35621691
REMARK  9 active torsions:
REMARK  status: ('A' for Active; 'I' for Inactive)
REMARK    1  A    between atoms: C_1  and  C_2
REMARK    2  A    between atoms: C_2  and  C_3
REMARK    3  A    between atoms: C_4  and  C_13
REMARK    4  A    between atoms: N_6  and  C_8
REMARK    5  A    between atoms: C_8  and  C_9
REMARK    6  A    between atoms: C_8  and  C_10
REMARK    7  A    between atoms: C_8  and  C_11
REMARK    8  A    between atoms: C_14  and  N_29
REMARK    9  A    between atoms: N_17  and  C_20
REMARK                            x       y       z     vdW  Elec       q    Type
REMARK                         _______ _______ _______ _____ _____    ______ ____
ROOT
ATOM      1  C   UNL     1      -1.657  -0.624   2.539  0.00  0.00    +0.078 C 
ATOM      2  C   UNL     1      -1.891   0.453   3.352  0.00  0.00    +0.106 C 
ATOM      3  C   UNL     1      -1.404   0.078   4.693  0.00  0.00    +0.272 C 
ATOM      4  O   UNL     1      -1.443   0.780   5.684  0.00  0.00    -0.268 OA
ATOM      5  N   UNL     1      -0.911  -1.171   4.636  0.00  0.00    -0.201 N 
ATOM      6  C   UNL     1      -1.031  -1.659   3.389  0.00  0.00    +0.260 C 
ATOM      7  O   UNL     1      -0.682  -2.763   3.022  0.00  0.00    -0.269 OA
ENDROOT
BRANCH   5   8
ATOM      8  C   UNL     1      -0.357  -1.867   5.721  0.00  0.00    +0.048 A 
ATOM      9  C   UNL     1      -0.295  -1.267   6.972  0.00  0.00    +0.028 A 
ATOM     10  C   UNL     1       0.251  -1.950   8.041  0.00  0.00    +0.051 A 
ATOM     11  C   UNL     1       0.737  -3.236   7.870  0.00  0.00    +0.166 A 
ATOM     12  C   UNL     1       0.675  -3.841   6.616  0.00  0.00    +0.168 A 
ATOM     13  C   UNL     1       0.123  -3.157   5.546  0.00  0.00    +0.073 A 
ATOM     14  O   UNL     1       1.212  -5.093   6.709  0.00  0.00    -0.453 OA
ATOM     15  C   UNL     1       1.974  -5.095   7.931  0.00  0.00    +0.466 C 
ATOM     16  O   UNL     1       1.313  -4.110   8.747  0.00  0.00    -0.453 OA
ENDBRANCH   5   8
BRANCH   1  18
ATOM     17  C   UNL     1      -1.124  -0.383   0.028  0.00  0.00    +0.075 A 
ATOM     18  C   UNL     1      -1.972  -0.732   1.100  0.00  0.00    +0.078 A 
ATOM     19  C   UNL     1      -3.157  -1.197   0.549  0.00  0.00    +0.277 A 
ATOM     20  N   UNL     1      -3.027  -1.129  -0.793  0.00  0.00    -0.223 N 
ATOM     21  N   UNL     1      -1.759  -0.616  -1.088  0.00  0.00    -0.172 NA
ATOM     22  O   UNL     1      -4.244  -1.636   1.230  0.00  0.00    -0.265 OA
BRANCH  20  23
ATOM     23  C   UNL     1      -4.042  -1.522  -1.774  0.00  0.00    +0.059 C 
ATOM     24  C   UNL     1      -5.303  -0.681  -1.566  0.00  0.00    +0.036 C 
ATOM     25  C   UNL     1      -3.502  -1.291  -3.187  0.00  0.00    +0.036 C 
ATOM     26  C   UNL     1      -4.381  -3.003  -1.593  0.00  0.00    +0.036 C 
ENDBRANCH  20  23
BRANCH  17  28
ATOM     27  C   UNL     1       0.212   1.698   0.214  0.00  0.00    +0.010 C 
ATOM     28  C   UNL     1       0.273   0.171   0.150  0.00  0.00    +0.054 C 
ENDBRANCH  17  28
ENDBRANCH   1  18
BRANCH   2  29
ATOM     29  N   UNL     1      -2.472   1.660   2.985  0.00  0.00    -0.325 N 
ATOM     30  C   UNL     1      -3.840   1.701   2.452  0.00  0.00    +0.105 C 
ATOM     31  C   UNL     1      -4.661   2.697   3.277  0.00  0.00    +0.019 C 
ATOM     32  C   UNL     1      -3.950   4.052   3.288  0.00  0.00    +0.003 C 
ATOM     33  C   UNL     1      -2.574   3.903   3.941  0.00  0.00    +0.019 C 
ATOM     34  C   UNL     1      -1.732   2.921   3.130  0.00  0.00    +0.105 C 
ENDBRANCH   2  29
TORSDOF 5
