REMARK  Name = ZINC33123115
REMARK  7 active torsions:
REMARK  status: ('A' for Active; 'I' for Inactive)
REMARK    1  A    between atoms: C_1  and  C_2
REMARK    2  A    between atoms: C_5  and  C_18
REMARK    3  A    between atoms: C_7  and  S_8
REMARK    4  A    between atoms: S_8  and  N_11
REMARK    5  A    between atoms: N_11  and  C_12
REMARK    6  A    between atoms: C_12  and  C_13
REMARK    7  A    between atoms: C_19  and  C_30
REMARK                            x       y       z     vdW  Elec       q    Type
REMARK                         _______ _______ _______ _____ _____    ______ ____
ROOT
ATOM      1  C   UNL     1       4.231  -6.639   0.082  0.00  0.00    +0.046 C 
ATOM      2  C   UNL     1       3.107  -5.676  -0.201  0.00  0.00    -0.024 A 
ATOM      3  C   UNL     1       2.936  -5.172  -1.478  0.00  0.00    +0.006 A 
ATOM      4  C   UNL     1       1.909  -4.289  -1.743  0.00  0.00    +0.009 A 
ATOM      5  C   UNL     1       1.042  -3.906  -0.721  0.00  0.00    -0.011 A 
ATOM      6  C   UNL     1       1.222  -4.413   0.565  0.00  0.00    +0.037 A 
ATOM      7  C   UNL     1       2.249  -5.299   0.817  0.00  0.00    +0.109 A 
ENDROOT
BRANCH   5   8
ATOM      8  C   UNL     1      -0.064  -2.958  -0.999  0.00  0.00    +0.045 A 
ATOM      9  C   UNL     1      -1.441  -3.240  -0.927  0.00  0.00    +0.070 A 
ATOM     10  N   UNL     1      -2.098  -2.156  -1.222  0.00  0.00    -0.167 NA
ATOM     11  N   UNL     1      -1.184  -1.112  -1.459  0.00  0.00    -0.185 N 
ATOM     12  C   UNL     1       0.070  -1.627  -1.381  0.00  0.00    +0.139 A 
ATOM     13  N   UNL     1       1.289  -1.051  -1.675  0.00  0.00    -0.270 N 
ATOM     14  C   UNL     1       1.593   0.251  -1.492  0.00  0.00    +0.219 C 
ATOM     15  O   UNL     1       2.691   0.667  -1.797  0.00  0.00    -0.275 OA
ATOM     16  C   UNL     1       0.577   1.177  -0.912  0.00  0.00    +0.105 C 
ATOM     17  C   UNL     1      -0.641   1.290  -1.792  0.00  0.00    +0.110 C 
ATOM     18  C   UNL     1      -1.579   0.158  -1.691  0.00  0.00    +0.250 C 
ATOM     19  O   UNL     1      -2.760   0.376  -1.827  0.00  0.00    -0.271 OA
ATOM     20  C   UNL     1      -2.050  -4.571  -0.568  0.00  0.00    +0.068 C 
ATOM     21  H   UNL     1       2.101  -1.665  -2.093  0.00  0.00    +0.156 HD
ENDBRANCH   5   8
BRANCH   7  22
ATOM     22  S   UNL     1       2.474  -5.947   2.440  0.00  0.00    +0.059 S 
ATOM     23  O   UNL     1       1.502  -5.320   3.265  0.00  0.00    -0.153 OA
ATOM     24  O   UNL     1       2.563  -7.358   2.306  0.00  0.00    -0.153 OA
BRANCH  22  25
ATOM     25  N   UNL     1       3.954  -5.428   2.974  0.00  0.00    -0.185 NA
ATOM     26  H   UNL     1       4.798  -6.132   2.985  0.00  0.00    +0.148 HD
BRANCH  25  27
ATOM     27  C   UNL     1       4.186  -4.002   3.217  0.00  0.00    +0.148 C 
BRANCH  27  28
ATOM     28  C   UNL     1       5.459  -3.827   4.004  0.00  0.00    +0.005 A 
ATOM     29  C   UNL     1       6.727  -3.670   3.553  0.00  0.00    +0.012 A 
ATOM     30  C   UNL     1       7.751  -3.522   4.469  0.00  0.00    +0.008 A 
ATOM     31  C   UNL     1       7.459  -3.549   5.792  0.00  0.00    +0.045 A 
ATOM     32  S   UNL     1       5.689  -3.782   5.774  0.00  0.00    -0.100 S 
ENDBRANCH  27  28
ENDBRANCH  25  27
ENDBRANCH  22  25
ENDBRANCH   7  22
TORSDOF 5
