REMARK  Name = ZINC05818374
REMARK  7 active torsions:
REMARK  status: ('A' for Active; 'I' for Inactive)
REMARK    1  A    between atoms: C_1  and  C_2
REMARK    2  A    between atoms: C_5  and  C_7
REMARK    3  A    between atoms: C_10  and  C_21
REMARK    4  A    between atoms: C_16  and  N_20
REMARK    5  A    between atoms: C_17  and  C_18
REMARK    6  A    between atoms: C_25  and  O_27
REMARK    7  A    between atoms: O_27  and  C_28
REMARK                            x       y       z     vdW  Elec       q    Type
REMARK                         _______ _______ _______ _____ _____    ______ ____
ROOT
ATOM      1  C   UNL     1       1.684  -3.245  -0.023  0.00  0.00    +0.138 C 
ATOM      2  C   UNL     1       2.561  -3.185  -1.247  0.00  0.00    +0.057 A 
ATOM      3  C   UNL     1       2.247  -3.414  -2.545  0.00  0.00    +0.074 A 
ATOM      4  N   UNL     1       3.388  -3.231  -3.275  0.00  0.00    -0.273 N 
ATOM      5  H   UNL     1       3.471  -3.326  -4.237  0.00  0.00    +0.189 HD
ATOM      6  N   UNL     1       4.417  -2.881  -2.387  0.00  0.00    -0.135 NA
ATOM      7  C   UNL     1       3.928  -2.853  -1.180  0.00  0.00    +0.245 A 
ATOM      8  O   UNL     1       4.543  -2.569   0.001  0.00  0.00    -0.421 OA
ATOM      9  C   UNL     1       3.882  -2.874   1.135  0.00  0.00    +0.201 C 
ATOM     10  C   UNL     1       2.572  -3.196   1.195  0.00  0.00    +0.101 C 
ENDROOT
BRANCH   1  15
ATOM     11  C   UNL     1      -0.018   1.503   0.010  0.00  0.00    +0.086 C 
ATOM     12  C   UNL     1       0.002  -0.004   0.002  0.00  0.00    +0.102 A 
ATOM     13  C   UNL     1      -1.078  -0.805   0.003  0.00  0.00    +0.044 A 
ATOM     14  C   UNL     1      -0.601  -2.136  -0.007  0.00  0.00    +0.046 A 
ATOM     15  C   UNL     1       0.742  -2.069  -0.013  0.00  0.00    +0.118 A 
ATOM     16  O   UNL     1       1.102  -0.775  -0.013  0.00  0.00    -0.464 OA
ENDBRANCH   1  15
BRANCH   3  17
ATOM     17  C   UNL     1       0.918  -3.794  -3.073  0.00  0.00    +0.004 A 
ATOM     18  C   UNL     1       0.163  -4.775  -2.430  0.00  0.00    +0.010 A 
ATOM     19  C   UNL     1      -1.076  -5.126  -2.925  0.00  0.00    +0.004 A 
ATOM     20  C   UNL     1      -1.573  -4.508  -4.058  0.00  0.00    +0.045 A 
ATOM     21  C   UNL     1      -0.829  -3.531  -4.704  0.00  0.00    +0.121 A 
ATOM     22  C   UNL     1       0.414  -3.168  -4.212  0.00  0.00    +0.055 A 
BRANCH  21  23
ATOM     23  O   UNL     1      -1.322  -2.928  -5.818  0.00  0.00    -0.495 OA
ATOM     24  C   UNL     1      -2.612  -3.348  -6.266  0.00  0.00    +0.277 C 
ENDBRANCH  21  23
ENDBRANCH   3  17
BRANCH   9  25
ATOM     25  N   UNL     1       4.590  -2.858   2.311  0.00  0.00    -0.328 N 
ATOM     26  H   UNL     1       5.534  -2.632   2.306  0.00  0.00    +0.145 HD
ATOM     27  H   UNL     1       4.147  -3.073   3.146  0.00  0.00    +0.145 HD
ENDBRANCH   9  25
BRANCH  10  28
ATOM     28  C   UNL     1       2.001  -3.505   2.471  0.00  0.00    +0.101 C 
ATOM     29  N   UNL     1       1.547  -3.750   3.483  0.00  0.00    -0.191 NA
ENDBRANCH  10  28
TORSDOF 5
