REMARK  Name = ZINC33937082
REMARK  11 active torsions:
REMARK  status: ('A' for Active; 'I' for Inactive)
REMARK    1  A    between atoms: C_1  and  C_2
REMARK    2  A    between atoms: C_2  and  C_3
REMARK    3  A    between atoms: C_3  and  C_5
REMARK    4  A    between atoms: C_3  and  N_17
REMARK    5  A    between atoms: N_9  and  C_10
REMARK    6  A    between atoms: C_10  and  C_11
REMARK    7  A    between atoms: N_17  and  C_18
REMARK    8  A    between atoms: N_17  and  C_25
REMARK    9  A    between atoms: C_18  and  C_19
REMARK   10  A    between atoms: C_25  and  C_26
REMARK   11  A    between atoms: C_32  and  C_38
REMARK                            x       y       z     vdW  Elec       q    Type
REMARK                         _______ _______ _______ _____ _____    ______ ____
ROOT
ATOM      1  N   UNL     1       3.572   0.268  -1.058  0.00  0.00    +0.392 N 
ATOM      2  H   UNL     1       4.177   0.621  -0.331  0.00  0.00    -0.080 HD
ENDROOT
BRANCH   1   3
ATOM      3  C   UNL     1       3.524  -1.198  -0.987  0.00  0.00    +0.003 C 
BRANCH   3   4
ATOM      4  C   UNL     1       4.927  -1.748  -0.989  0.00  0.00    +0.138 A 
ATOM      5  N   UNL     1       5.941  -1.309  -0.282  0.00  0.00    -0.115 NA
ATOM      6  N   UNL     1       6.965  -2.038  -0.561  0.00  0.00    -0.023 NA
ATOM      7  N   UNL     1       6.632  -2.930  -1.428  0.00  0.00    -0.044 NA
ATOM      8  N   UNL     1       5.382  -2.787  -1.713  0.00  0.00    -0.228 N 
BRANCH   8   9
ATOM      9  C   UNL     1       4.605  -3.601  -2.651  0.00  0.00    +0.178 C 
BRANCH   9  10
ATOM     10  C   UNL     1       4.685  -2.985  -4.049  0.00  0.00    +0.140 C 
ATOM     11  C   UNL     1       3.944  -3.879  -5.074  0.00  0.00    +0.035 C 
ATOM     12  C   UNL     1       3.587  -2.838  -6.170  0.00  0.00    +0.031 C 
ATOM     13  C   UNL     1       3.331  -1.562  -5.339  0.00  0.00    +0.160 C 
ATOM     14  O   UNL     1       3.995  -1.725  -4.079  0.00  0.00    -0.375 OA
ENDBRANCH   9  10
ENDBRANCH   8   9
ENDBRANCH   3   4
BRANCH   3  16
ATOM     15  C   UNL     1       1.456  -2.240  -0.049  0.00  0.00    +0.002 C 
ATOM     16  C   UNL     1       2.812  -1.623   0.299  0.00  0.00    -0.011 C 
ENDBRANCH   3  16
ENDBRANCH   1   3
BRANCH   1  17
ATOM     17  C   UNL     1       4.093   0.678  -2.369  0.00  0.00    -0.042 C 
BRANCH  17  18
ATOM     18  C   UNL     1       4.507   2.126  -2.315  0.00  0.00    -0.064 A 
ATOM     19  C   UNL     1       3.637   3.110  -2.744  0.00  0.00    +0.002 A 
ATOM     20  C   UNL     1       4.017   4.438  -2.695  0.00  0.00    +0.000 A 
ATOM     21  C   UNL     1       5.267   4.782  -2.216  0.00  0.00    +0.000 A 
ATOM     22  C   UNL     1       6.137   3.798  -1.786  0.00  0.00    +0.000 A 
ATOM     23  C   UNL     1       5.756   2.470  -1.831  0.00  0.00    +0.002 A 
ENDBRANCH  17  18
ENDBRANCH   1  17
BRANCH   1  24
ATOM     24  C   UNL     1       2.220   0.812  -0.877  0.00  0.00    -0.036 C 
BRANCH  24  25
ATOM     25  C   UNL     1       1.998   1.133   0.579  0.00  0.00    +0.001 A 
ATOM     26  C   UNL     1       3.030   1.583   1.336  0.00  0.00    +0.017 A 
ATOM     27  C   UNL     1       2.781   1.886   2.747  0.00  0.00    -0.001 A 
ATOM     28  C   UNL     1       3.805   2.353   3.577  0.00  0.00    +0.010 A 
ATOM     29  C   UNL     1       3.541   2.628   4.889  0.00  0.00    +0.001 A 
ATOM     30  C   UNL     1       2.265   2.447   5.405  0.00  0.00    +0.005 A 
ATOM     31  C   UNL     1       1.241   1.988   4.606  0.00  0.00    -0.026 A 
ATOM     32  C   UNL     1       1.486   1.702   3.266  0.00  0.00    +0.052 A 
ATOM     33  N   UNL     1       0.481   1.242   2.443  0.00  0.00    -0.322 N 
ATOM     34  H   UNL     1      -0.411   1.116   2.803  0.00  0.00    +0.169 HD
ATOM     35  C   UNL     1       0.717   0.971   1.148  0.00  0.00    +0.251 A 
ATOM     36  O   UNL     1      -0.197   0.571   0.448  0.00  0.00    -0.268 OA
ATOM     37  C   UNL     1      -0.139   1.795   5.180  0.00  0.00    +0.046 C 
ENDBRANCH  24  25
ENDBRANCH   1  24
TORSDOF 9
