REMARK  Name = ZINC52887925
REMARK  7 active torsions:
REMARK  status: ('A' for Active; 'I' for Inactive)
REMARK    1  A    between atoms: C_1  and  C_2
REMARK    2  A    between atoms: C_2  and  C_3
REMARK    3  A    between atoms: C_5  and  C_8
REMARK    4  A    between atoms: C_8  and  S_9
REMARK    5  A    between atoms: S_9  and  C_10
REMARK    6  A    between atoms: N_23  and  C_24
REMARK    7  A    between atoms: C_27  and  C_30
REMARK                            x       y       z     vdW  Elec       q    Type
REMARK                         _______ _______ _______ _____ _____    ______ ____
ROOT
ATOM      1  C   UNL     1      -6.526  -4.466  -2.048  0.00  0.00    +0.198 A 
ATOM      2  N   UNL     1      -7.639  -3.789  -2.200  0.00  0.00    -0.120 NA
ATOM      3  N   UNL     1      -8.216  -4.127  -3.297  0.00  0.00    -0.109 NA
ATOM      4  C   UNL     1      -7.508  -5.042  -3.916  0.00  0.00    +0.245 A 
ATOM      5  N   UNL     1      -6.404  -5.282  -3.140  0.00  0.00    -0.255 N 
ATOM      6  C   UNL     1      -5.445  -6.209  -3.532  0.00  0.00    +0.064 A 
ATOM      7  C   UNL     1      -4.327  -6.461  -2.751  0.00  0.00    +0.027 A 
ATOM      8  C   UNL     1      -3.393  -7.388  -3.167  0.00  0.00    +0.002 A 
ATOM      9  C   UNL     1      -3.561  -8.072  -4.361  0.00  0.00    +0.001 A 
ATOM     10  C   UNL     1      -4.665  -7.834  -5.151  0.00  0.00    +0.015 A 
ATOM     11  C   UNL     1      -5.617  -6.900  -4.742  0.00  0.00    +0.064 A 
ATOM     12  C   UNL     1      -6.811  -6.618  -5.557  0.00  0.00    +0.268 A 
ATOM     13  O   UNL     1      -6.991  -7.199  -6.611  0.00  0.00    -0.267 OA
ATOM     14  N   UNL     1      -7.707  -5.712  -5.114  0.00  0.00    -0.245 N 
ENDROOT
BRANCH  14  15
ATOM     15  C   UNL     1      -8.844  -5.432  -5.880  0.00  0.00    +0.053 A 
ATOM     16  C   UNL     1     -10.012  -6.158  -5.682  0.00  0.00    +0.026 A 
ATOM     17  C   UNL     1     -11.132  -5.880  -6.440  0.00  0.00    +0.005 A 
ATOM     18  C   UNL     1     -11.093  -4.881  -7.395  0.00  0.00    -0.050 A 
ATOM     19  C   UNL     1      -9.932  -4.157  -7.595  0.00  0.00    +0.005 A 
ATOM     20  C   UNL     1      -8.809  -4.426  -6.836  0.00  0.00    +0.026 A 
ATOM     21  C   UNL     1     -12.317  -4.581  -8.221  0.00  0.00    +0.044 C 
ENDBRANCH  14  15
BRANCH   1  22
ATOM     22  S   UNL     1      -5.399  -4.344  -0.699  0.00  0.00    -0.078 S 
BRANCH  22  23
ATOM     23  C   UNL     1      -6.148  -3.099   0.387  0.00  0.00    +0.157 C 
BRANCH  23  26
ATOM     24  C   UNL     1      -3.722  -2.087   2.873  0.00  0.00    +0.227 A 
ATOM     25  N   UNL     1      -4.278  -2.006   1.696  0.00  0.00    -0.195 NA
ATOM     26  C   UNL     1      -5.273  -2.895   1.596  0.00  0.00    +0.182 A 
ATOM     27  N   UNL     1      -5.362  -3.556   2.715  0.00  0.00    -0.060 NA
ATOM     28  O   UNL     1      -4.348  -3.046   3.567  0.00  0.00    -0.338 OA
BRANCH  24  30
ATOM     29  C   UNL     1      -3.107   0.011   4.042  0.00  0.00    +0.014 C 
ATOM     30  C   UNL     1      -2.569  -1.250   3.364  0.00  0.00    +0.095 C 
ENDBRANCH  24  30
ENDBRANCH  23  26
ENDBRANCH  22  23
ENDBRANCH   1  22
TORSDOF 5
