REMARK  Name = ZINC39839771
REMARK  11 active torsions:
REMARK  status: ('A' for Active; 'I' for Inactive)
REMARK    1  A    between atoms: C_1  and  O_2
REMARK    2  A    between atoms: O_2  and  C_3
REMARK    3  A    between atoms: C_6  and  C_11
REMARK    4  A    between atoms: C_8  and  O_9
REMARK    5  A    between atoms: O_9  and  C_10
REMARK    6  A    between atoms: C_11  and  C_12
REMARK    7  A    between atoms: C_12  and  N_13
REMARK    8  A    between atoms: C_14  and  C_30
REMARK    9  A    between atoms: C_33  and  O_38
REMARK   10  A    between atoms: C_34  and  O_36
REMARK   11  A    between atoms: O_36  and  C_37
REMARK                            x       y       z     vdW  Elec       q    Type
REMARK                         _______ _______ _______ _____ _____    ______ ____
ROOT
ATOM      1  N   UNL     1       4.640  -3.366  -5.213  0.00  0.00    -0.283 N 
ATOM      2  C   UNL     1       4.765  -4.816  -5.431  0.00  0.00    +0.145 C 
ATOM      3  C   UNL     1       5.503  -4.973  -6.720  0.00  0.00    +0.072 A 
ATOM      4  C   UNL     1       5.931  -6.172  -7.448  0.00  0.00    +0.199 A 
ATOM      5  O   UNL     1       5.569  -7.298  -7.152  0.00  0.00    -0.287 OA
ATOM      6  C   UNL     1       6.846  -5.884  -8.581  0.00  0.00    +0.066 A 
ATOM      7  C   UNL     1       7.496  -6.924  -9.245  0.00  0.00    +0.035 A 
ATOM      8  C   UNL     1       8.346  -6.638 -10.291  0.00  0.00    +0.042 A 
ATOM      9  C   UNL     1       8.552  -5.320 -10.680  0.00  0.00    +0.023 A 
ATOM     10  C   UNL     1       7.914  -4.286 -10.033  0.00  0.00    +0.048 A 
ATOM     11  C   UNL     1       7.047  -4.550  -8.972  0.00  0.00    +0.140 A 
ATOM     12  O   UNL     1       6.426  -3.516  -8.360  0.00  0.00    -0.450 OA
ATOM     13  C   UNL     1       5.771  -3.724  -7.201  0.00  0.00    +0.199 A 
ATOM     14  C   UNL     1       5.226  -2.736  -6.253  0.00  0.00    +0.283 C 
ATOM     15  O   UNL     1       5.296  -1.531  -6.386  0.00  0.00    -0.267 OA
ATOM     16 CL   UNL     1       9.160  -7.925 -11.125  0.00  0.00    -0.084 Cl
ENDROOT
BRANCH   2  17
ATOM     17  C   UNL     1       5.543  -5.446  -4.304  0.00  0.00    -0.019 A 
ATOM     18  C   UNL     1       6.643  -4.794  -3.777  0.00  0.00    +0.009 A 
ATOM     19  C   UNL     1       7.361  -5.367  -2.744  0.00  0.00    +0.049 A 
ATOM     20  C   UNL     1       6.978  -6.597  -2.234  0.00  0.00    +0.158 A 
ATOM     21  C   UNL     1       5.871  -7.253  -2.764  0.00  0.00    +0.162 A 
ATOM     22  C   UNL     1       5.153  -6.671  -3.796  0.00  0.00    +0.055 A 
BRANCH  21  23
ATOM     23  O   UNL     1       5.492  -8.461  -2.267  0.00  0.00    -0.491 OA
ATOM     24  C   UNL     1       4.346  -9.075  -2.859  0.00  0.00    +0.277 C 
ENDBRANCH  21  23
BRANCH  20  25
ATOM     25  O   UNL     1       7.683  -7.163  -1.218  0.00  0.00    -0.503 OA
ATOM     26  H   UNL     1       7.366  -6.921  -0.337  0.00  0.00    +0.292 HD
ENDBRANCH  20  25
ENDBRANCH   2  17
BRANCH   1  27
ATOM     27  C   UNL     1       3.989  -2.719  -4.072  0.00  0.00    +0.114 C 
BRANCH  27  28
ATOM     28  C   UNL     1       2.507  -2.501  -4.386  0.00  0.00    +0.054 C 
BRANCH  28  32
ATOM     29  C   UNL     1       0.606  -0.608  -1.056  0.00  0.00    +0.161 A 
ATOM     30  C   UNL     1       1.173   0.159  -2.062  0.00  0.00    +0.049 A 
ATOM     31  C   UNL     1       1.787  -0.456  -3.137  0.00  0.00    +0.007 A 
ATOM     32  C   UNL     1       1.837  -1.836  -3.212  0.00  0.00    -0.042 A 
ATOM     33  C   UNL     1       1.273  -2.606  -2.212  0.00  0.00    +0.053 A 
ATOM     34  C   UNL     1       0.662  -1.996  -1.129  0.00  0.00    +0.162 A 
BRANCH  29  36
ATOM     35  C   UNL     1      -0.017   1.425   0.010  0.00  0.00    +0.277 C 
ATOM     36  O   UNL     1       0.002  -0.004   0.002  0.00  0.00    -0.491 OA
ENDBRANCH  29  36
BRANCH  34  37
ATOM     37  O   UNL     1       0.112  -2.753  -0.142  0.00  0.00    -0.491 OA
ATOM     38  C   UNL     1       0.206  -4.171  -0.283  0.00  0.00    +0.277 C 
ENDBRANCH  34  37
ENDBRANCH  28  32
ENDBRANCH  27  28
ENDBRANCH   1  27
TORSDOF 8
