REMARK  Name = ZINC10288505
REMARK  13 active torsions:
REMARK  status: ('A' for Active; 'I' for Inactive)
REMARK    1  A    between atoms: C_1  and  C_2
REMARK    2  A    between atoms: C_2  and  O_3
REMARK    3  A    between atoms: O_3  and  C_4
REMARK    4  A    between atoms: C_4  and  C_6
REMARK    5  A    between atoms: C_7  and  C_14
REMARK    6  A    between atoms: C_8  and  C_12
REMARK    7  A    between atoms: C_9  and  N_11
REMARK    8  A    between atoms: C_14  and  S_15
REMARK    9  A    between atoms: S_15  and  C_16
REMARK   10  A    between atoms: C_19  and  C_28
REMARK   11  A    between atoms: N_20  and  C_21
REMARK   12  A    between atoms: C_21  and  C_22
REMARK   13  A    between atoms: C_28  and  N_62
REMARK                            x       y       z     vdW  Elec       q    Type
REMARK                         _______ _______ _______ _____ _____    ______ ____
ROOT
ATOM      1  C   UNL     1      -3.492   5.939   3.100  0.00  0.00    +0.192 A 
ATOM      2  N   UNL     1      -2.228   6.090   3.418  0.00  0.00    -0.123 NA
ATOM      3  N   UNL     1      -1.485   5.787   2.414  0.00  0.00    -0.135 NA
ATOM      4  C   UNL     1      -2.225   5.428   1.403  0.00  0.00    +0.118 A 
ATOM      5  N   UNL     1      -3.530   5.516   1.802  0.00  0.00    -0.303 N 
ENDROOT
BRANCH   1   6
ATOM      6  S   UNL     1      -4.878   6.232   4.147  0.00  0.00    -0.081 S 
BRANCH   6   7
ATOM      7  C   UNL     1      -4.027   6.760   5.655  0.00  0.00    +0.115 C 
BRANCH   7   9
ATOM      8  C   UNL     1      -5.486   6.103   7.599  0.00  0.00    +0.103 A 
ATOM      9  C   UNL     1      -5.044   7.074   6.722  0.00  0.00    +0.003 A 
ATOM     10  C   UNL     1      -5.567   8.348   6.866  0.00  0.00    +0.084 A 
ATOM     11  C   UNL     1      -6.510   8.557   7.878  0.00  0.00    +0.082 A 
ATOM     12  S   UNL     1      -6.645   6.996   8.617  0.00  0.00    -0.066 S 
BRANCH  11  13
ATOM     13  N   UNL     1      -7.166   9.721   8.209  0.00  0.00    -0.352 N 
ATOM     14  H   UNL     1      -7.799   9.729   8.944  0.00  0.00    +0.143 HD
ATOM     15  H   UNL     1      -6.996  10.534   7.708  0.00  0.00    +0.143 HD
ENDBRANCH  11  13
BRANCH   8  16
ATOM     16  C   UNL     1      -5.111   4.737   7.672  0.00  0.00    +0.346 C 
ATOM     17  O   UNL     1      -4.295   4.288   6.889  0.00  0.00    -0.244 OA
BRANCH  16  18
ATOM     18  O   UNL     1      -5.659   3.936   8.609  0.00  0.00    -0.461 OA
BRANCH  18  20
ATOM     19  C   UNL     1      -5.960   1.825   9.746  0.00  0.00    +0.048 C 
ATOM     20  C   UNL     1      -5.235   2.572   8.624  0.00  0.00    +0.229 C 
ENDBRANCH  18  20
ENDBRANCH  16  18
ENDBRANCH   8  16
BRANCH  10  21
ATOM     21  C   UNL     1      -5.160   9.415   6.003  0.00  0.00    +0.102 C 
ATOM     22  N   UNL     1      -4.836  10.262   5.318  0.00  0.00    -0.191 NA
ENDBRANCH  10  21
ENDBRANCH   7   9
ENDBRANCH   6   7
ENDBRANCH   1   6
BRANCH   5  23
ATOM     23  C   UNL     1      -4.721   5.216   1.004  0.00  0.00    +0.160 C 
BRANCH  23  24
ATOM     24  C   UNL     1      -5.086   3.764   1.172  0.00  0.00    -0.028 A 
ATOM     25  C   UNL     1      -4.562   2.816   0.314  0.00  0.00    +0.005 A 
ATOM     26  C   UNL     1      -4.893   1.482   0.471  0.00  0.00    +0.000 A 
ATOM     27  C   UNL     1      -5.756   1.099   1.480  0.00  0.00    +0.000 A 
ATOM     28  C   UNL     1      -6.284   2.048   2.336  0.00  0.00    +0.000 A 
ATOM     29  C   UNL     1      -5.949   3.380   2.182  0.00  0.00    +0.005 A 
ENDBRANCH  23  24
ENDBRANCH   5  23
BRANCH   4  30
ATOM     30  C   UNL     1      -1.734   5.000   0.044  0.00  0.00    -0.001 C 
BRANCH  30  36
ATOM     31  C   UNL     1      -0.826   3.122  -1.185  0.00  0.00    -0.078 C 
ATOM     32  C   UNL     1      -0.756   1.594  -1.230  0.00  0.00    -0.019 C 
ATOM     33  C   UNL     1      -0.013   1.086   0.008  0.00  0.00    -0.004 C 
ATOM     34  C   UNL     1      -0.732   1.581   1.266  0.00  0.00    -0.019 C 
ATOM     35  C   UNL     1      -0.804   3.109   1.238  0.00  0.00    -0.078 C 
ATOM     36  N   UNL     1      -1.552   3.533   0.035  0.00  0.00    +0.384 N 
ATOM     37  H   UNL     1      -2.475   3.083   0.041  0.00  0.00    -0.081 HD
ENDBRANCH  30  36
ENDBRANCH   4  30
TORSDOF 12
