REMARK  Name = ZINC39328005
REMARK  15 active torsions:
REMARK  status: ('A' for Active; 'I' for Inactive)
REMARK    1  A    between atoms: C_1  and  C_2
REMARK    2  A    between atoms: C_2  and  C_3
REMARK    3  A    between atoms: C_10  and  C_38
REMARK    4  A    between atoms: C_11  and  S_13
REMARK    5  A    between atoms: S_13  and  C_14
REMARK    6  A    between atoms: C_14  and  C_15
REMARK    7  A    between atoms: C_16  and  C_34
REMARK    8  A    between atoms: C_17  and  C_25
REMARK    9  A    between atoms: C_19  and  C_23
REMARK   10  A    between atoms: C_20  and  N_22
REMARK   11  A    between atoms: C_28  and  C_31
REMARK   12  A    between atoms: C_31  and  C_32
REMARK   13  A    between atoms: C_31  and  C_33
REMARK   14  A    between atoms: C_34  and  O_36
REMARK   15  A    between atoms: O_36  and  C_37
REMARK                            x       y       z     vdW  Elec       q    Type
REMARK                         _______ _______ _______ _____ _____    ______ ____
ROOT
ATOM      1  C   UNL     1      -8.494  -5.246   0.615  0.00  0.00    +0.128 C 
ATOM      2  C   UNL     1      -9.493  -4.899  -0.208  0.00  0.00    +0.088 C 
ATOM      3  C   UNL     1     -10.853  -5.530  -0.091  0.00  0.00    +0.105 C 
ATOM      4  C   UNL     1     -10.767  -6.786   0.734  0.00  0.00    +0.098 C 
ATOM      5  C   UNL     1      -9.685  -7.031   1.513  0.00  0.00    +0.198 C 
ATOM      6  O   UNL     1      -8.654  -6.171   1.574  0.00  0.00    -0.444 OA
ENDROOT
BRANCH   3   7
ATOM      7  C   UNL     1     -11.799  -4.562   0.571  0.00  0.00    -0.034 A 
ATOM      8  C   UNL     1     -11.530  -4.095   1.844  0.00  0.00    +0.005 A 
ATOM      9  C   UNL     1     -12.398  -3.207   2.452  0.00  0.00    +0.004 A 
ATOM     10  C   UNL     1     -13.534  -2.786   1.786  0.00  0.00    -0.045 A 
ATOM     11  C   UNL     1     -13.802  -3.252   0.512  0.00  0.00    +0.004 A 
ATOM     12  C   UNL     1     -12.932  -4.136  -0.097  0.00  0.00    +0.005 A 
BRANCH  10  13
ATOM     13  C   UNL     1     -14.480  -1.818   2.449  0.00  0.00    +0.013 C 
ATOM     14  C   UNL     1     -14.584  -0.546   1.604  0.00  0.00    +0.012 C 
ATOM     15  C   UNL     1     -15.863  -2.462   2.573  0.00  0.00    +0.012 C 
ENDBRANCH  10  13
ENDBRANCH   3   7
BRANCH   5  16
ATOM     16  N   UNL     1      -9.641  -8.186   2.253  0.00  0.00    -0.328 N 
ATOM     17  H   UNL     1     -10.378  -8.816   2.216  0.00  0.00    +0.145 HD
ATOM     18  H   UNL     1      -8.872  -8.373   2.815  0.00  0.00    +0.145 HD
ENDBRANCH   5  16
BRANCH   4  19
ATOM     19  C   UNL     1     -11.841  -7.732   0.696  0.00  0.00    +0.101 C 
ATOM     20  N   UNL     1     -12.693  -8.482   0.666  0.00  0.00    -0.191 NA
ENDBRANCH   4  19
BRANCH   2  21
ATOM     21  C   UNL     1      -9.264  -3.919  -1.205  0.00  0.00    +0.339 C 
ATOM     22  O   UNL     1      -9.067  -4.258  -2.357  0.00  0.00    -0.245 OA
BRANCH  21  23
ATOM     23  O   UNL     1      -9.263  -2.611  -0.878  0.00  0.00    -0.465 OA
ATOM     24  C   UNL     1      -9.025  -1.678  -1.934  0.00  0.00    +0.280 C 
ENDBRANCH  21  23
ENDBRANCH   2  21
BRANCH   1  25
ATOM     25  C   UNL     1      -7.151  -4.582   0.455  0.00  0.00    +0.150 C 
BRANCH  25  26
ATOM     26  S   UNL     1      -6.918  -3.362   1.777  0.00  0.00    -0.097 S 
BRANCH  26  34
ATOM     27  C   UNL     1      -1.034  -1.415  -0.782  0.00  0.00    -0.007 C 
ATOM     28  C   UNL     1      -1.224  -2.916  -1.028  0.00  0.00    +0.010 C 
ATOM     29  C   UNL     1      -2.722  -3.211  -1.078  0.00  0.00    +0.056 C 
ATOM     30  C   UNL     1      -3.416  -2.639   0.133  0.00  0.00    +0.046 A 
ATOM     31  C   UNL     1      -2.840  -1.664   0.919  0.00  0.00    -0.025 A 
ATOM     32  C   UNL     1      -3.535  -1.172   2.016  0.00  0.00    +0.027 A 
ATOM     33  C   UNL     1      -4.804  -1.685   2.298  0.00  0.00    +0.084 A 
ATOM     34  C   UNL     1      -5.325  -2.683   1.455  0.00  0.00    +0.115 A 
ATOM     35  N   UNL     1      -4.622  -3.113   0.423  0.00  0.00    -0.244 NA
ATOM     36  C   UNL     1      -1.470  -1.101   0.647  0.00  0.00    +0.040 C 
BRANCH  27  38
ATOM     37  C   UNL     1       0.606   0.469  -0.829  0.00  0.00    +0.004 C 
ATOM     38  C   UNL     1       0.439  -1.045  -0.965  0.00  0.00    +0.000 C 
ENDBRANCH  27  38
BRANCH  33  39
ATOM     39  C   UNL     1      -5.556  -1.206   3.419  0.00  0.00    +0.102 C 
ATOM     40  N   UNL     1      -6.152  -0.826   4.308  0.00  0.00    -0.191 NA
ENDBRANCH  33  39
ENDBRANCH  26  34
ENDBRANCH  25  26
ENDBRANCH   1  25
TORSDOF 11
