REMARK  Name = ZINC20801827
REMARK  3 active torsions:
REMARK  status: ('A' for Active; 'I' for Inactive)
REMARK    1  A    between atoms: C_1  and  N_2
REMARK    2  A    between atoms: C_15  and  C_17
REMARK    3  A    between atoms: C_23  and  C_28
REMARK                            x       y       z     vdW  Elec       q    Type
REMARK                         _______ _______ _______ _____ _____    ______ ____
ROOT
ATOM      1  C   UNL     1       1.731  -3.567   4.321  0.00  0.00    +0.127 C 
ATOM      2  N   UNL     1       3.068  -2.993   4.491  0.00  0.00    -0.331 N 
ATOM      3  C   UNL     1       3.488  -1.970   3.670  0.00  0.00    +0.134 A 
ATOM      4  C   UNL     1       4.808  -1.476   3.748  0.00  0.00    +0.078 A 
ATOM      5  C   UNL     1       5.194  -0.440   2.893  0.00  0.00    +0.059 A 
ATOM      6  N   UNL     1       4.305   0.041   2.041  0.00  0.00    -0.218 NA
ATOM      7  C   UNL     1       3.068  -0.440   1.997  0.00  0.00    +0.220 A 
ATOM      8  N   UNL     1       2.660  -1.423   2.786  0.00  0.00    -0.199 NA
ATOM      9  N   UNL     1       2.178   0.100   1.094  0.00  0.00    -0.297 N 
ATOM     10  C   UNL     1       0.869  -0.560   1.187  0.00  0.00    +0.127 C 
ATOM     11  C   UNL     1      -0.033  -0.061   0.053  0.00  0.00    +0.127 C 
ATOM     12  N   UNL     1      -0.073   1.409   0.100  0.00  0.00    -0.292 N 
ATOM     13  C   UNL     1       1.203   2.138   0.148  0.00  0.00    +0.127 C 
ATOM     14  C   UNL     1       2.056   1.552   1.279  0.00  0.00    +0.127 C 
ATOM     15  C   UNL     1      -1.248   2.069   0.093  0.00  0.00    +0.282 C 
ATOM     16  O   UNL     1      -2.291   1.454  -0.024  0.00  0.00    -0.267 OA
ATOM     17  C   UNL     1       6.588   0.122   2.916  0.00  0.00    +0.065 C 
ATOM     18  C   UNL     1       7.268  -0.148   4.256  0.00  0.00    +0.032 C 
ATOM     19  C   UNL     1       7.217  -1.651   4.563  0.00  0.00    +0.088 C 
ATOM     20  C   UNL     1       5.759  -2.034   4.712  0.00  0.00    +0.169 C 
ATOM     21  O   UNL     1       5.392  -2.778   5.599  0.00  0.00    -0.292 OA
ATOM     22  H   UNL     1       3.737  -3.380   5.274  0.00  0.00    +0.147 HD
ENDROOT
BRANCH  18  23
ATOM     23  C   UNL     1       8.705   0.302   4.190  0.00  0.00    -0.044 A 
ATOM     24  C   UNL     1       9.564  -0.262   3.265  0.00  0.00    +0.004 A 
ATOM     25  C   UNL     1      10.881   0.155   3.201  0.00  0.00    +0.000 A 
ATOM     26  C   UNL     1      11.341   1.128   4.069  0.00  0.00    +0.000 A 
ATOM     27  C   UNL     1      10.483   1.688   4.997  0.00  0.00    +0.000 A 
ATOM     28  C   UNL     1       9.165   1.275   5.058  0.00  0.00    +0.004 A 
ENDBRANCH  18  23
BRANCH  15  29
ATOM     29  C   UNL     1      -1.268   3.530   0.226  0.00  0.00    +0.189 A 
ATOM     30  C   UNL     1      -2.382   4.307   0.364  0.00  0.00    +0.054 A 
ATOM     31  C   UNL     1      -1.938   5.635   0.458  0.00  0.00    +0.042 A 
ATOM     32  C   UNL     1      -0.590   5.611   0.373  0.00  0.00    +0.196 A 
ATOM     33  O   UNL     1      -0.190   4.340   0.238  0.00  0.00    -0.458 OA
ENDBRANCH  15  29
TORSDOF 2
