REMARK  Name = ZINC09601670
REMARK  9 active torsions:
REMARK  status: ('A' for Active; 'I' for Inactive)
REMARK    1  A    between atoms: C_6  and  S_7
REMARK    2  A    between atoms: S_7  and  N_10
REMARK    3  A    between atoms: N_13  and  C_16
REMARK    4  A    between atoms: C_19  and  N_31
REMARK    5  A    between atoms: C_20  and  N_22
REMARK    6  A    between atoms: N_22  and  C_23
REMARK    7  A    between atoms: C_23  and  C_24
REMARK    8  A    between atoms: C_24  and  C_25
REMARK    9  A    between atoms: C_25  and  N_65
REMARK                            x       y       z     vdW  Elec       q    Type
REMARK                         _______ _______ _______ _____ _____    ______ ____
ROOT
ATOM      1  C   UNL     1       0.039  -2.776  -0.025  0.00  0.00    +0.032 A 
ATOM      2  C   UNL     1       1.226  -2.058  -0.125  0.00  0.00    +0.025 A 
ATOM      3  C   UNL     1       1.204  -0.677  -0.105  0.00  0.00    +0.036 A 
ATOM      4  C   UNL     1       0.003  -0.004   0.014  0.00  0.00    +0.147 A 
ATOM      5  C   UNL     1      -1.186  -0.715   0.120  0.00  0.00    +0.059 A 
ATOM      6  C   UNL     1      -1.168  -2.103   0.095  0.00  0.00    +0.048 A 
ENDROOT
BRANCH   1  10
ATOM      7  N   UNL     1       0.627  -6.793   0.714  0.00  0.00    -0.174 NA
ATOM      8  C   UNL     1       1.405  -6.193  -0.381  0.00  0.00    +0.128 C 
ATOM      9  C   UNL     1       1.437  -4.674  -0.180  0.00  0.00    +0.122 C 
ATOM     10  N   UNL     1       0.062  -4.172  -0.046  0.00  0.00    -0.327 N 
ATOM     11  C   UNL     1      -0.594  -4.727   1.145  0.00  0.00    +0.122 C 
ATOM     12  C   UNL     1      -0.709  -6.248   0.998  0.00  0.00    +0.128 C 
BRANCH   7  13
ATOM     13  S   UNL     1       1.240  -8.048   1.603  0.00  0.00    +0.061 S 
ATOM     14  O   UNL     1       0.126  -8.742   2.147  0.00  0.00    -0.153 OA
ATOM     15  O   UNL     1       2.212  -8.688   0.787  0.00  0.00    -0.153 OA
BRANCH  13  21
ATOM     16  C   UNL     1       3.455  -7.050   2.847  0.00  0.00    +0.030 A 
ATOM     17  C   UNL     1       4.137  -6.494   3.913  0.00  0.00    +0.022 A 
ATOM     18  C   UNL     1       3.476  -6.244   5.102  0.00  0.00    +0.041 A 
ATOM     19  C   UNL     1       2.131  -6.546   5.222  0.00  0.00    +0.022 A 
ATOM     20  C   UNL     1       1.449  -7.097   4.153  0.00  0.00    +0.030 A 
ATOM     21  C   UNL     1       2.110  -7.346   2.965  0.00  0.00    +0.106 A 
ATOM     22 CL   UNL     1       4.333  -5.552   6.444  0.00  0.00    -0.084 Cl
ENDBRANCH  13  21
ENDBRANCH   7  13
ENDBRANCH   1  10
BRANCH   4  23
ATOM     23  N   UNL     1      -0.015   1.476   0.035  0.00  0.00    +0.058 N 
ATOM     24  O   UNL     1       1.031   2.098   0.062  0.00  0.00    -0.126 OA
ATOM     25  O   UNL     1      -1.078   2.071   0.021  0.00  0.00    -0.126 OA
ENDBRANCH   4  23
BRANCH   5  26
ATOM     26  N   UNL     1      -2.399  -0.034   0.247  0.00  0.00    -0.342 N 
ATOM     27  H   UNL     1      -2.420   0.934   0.184  0.00  0.00    +0.146 HD
BRANCH  26  28
ATOM     28  C   UNL     1      -3.638  -0.780   0.476  0.00  0.00    +0.100 C 
BRANCH  28  29
ATOM     29  C   UNL     1      -4.811   0.197   0.577  0.00  0.00    +0.000 C 
BRANCH  29  30
ATOM     30  C   UNL     1      -6.105  -0.584   0.816  0.00  0.00    -0.077 C 
BRANCH  30  36
ATOM     31  C   UNL     1      -7.113   1.198   2.111  0.00  0.00    -0.050 C 
ATOM     32  C   UNL     1      -8.272   2.198   2.141  0.00  0.00    +0.141 C 
ATOM     33  O   UNL     1      -9.511   1.486   2.101  0.00  0.00    -0.383 OA
ATOM     34  C   UNL     1      -9.660   0.655   0.947  0.00  0.00    +0.141 C 
ATOM     35  C   UNL     1      -8.516  -0.361   0.904  0.00  0.00    -0.050 C 
ATOM     36  N   UNL     1      -7.232   0.372   0.891  0.00  0.00    +0.383 N 
ATOM     37  H   UNL     1      -7.205   0.985   0.068  0.00  0.00    -0.082 HD
ENDBRANCH  30  36
ENDBRANCH  29  30
ENDBRANCH  28  29
ENDBRANCH  26  28
ENDBRANCH   5  26
TORSDOF 9
