REMARK  Name = ZINC34848091
REMARK  10 active torsions:
REMARK  status: ('A' for Active; 'I' for Inactive)
REMARK    1  A    between atoms: C_1  and  C_2
REMARK    2  A    between atoms: C_2  and  N_3
REMARK    3  A    between atoms: C_6  and  C_20
REMARK    4  A    between atoms: N_8  and  N_11
REMARK    5  A    between atoms: C_12  and  C_14
REMARK    6  A    between atoms: C_20  and  C_21
REMARK    7  A    between atoms: N_23  and  C_24
REMARK    8  A    between atoms: C_28  and  O_30
REMARK    9  A    between atoms: O_30  and  C_31
REMARK   10  A    between atoms: C_31  and  C_32
REMARK                            x       y       z     vdW  Elec       q    Type
REMARK                         _______ _______ _______ _____ _____    ______ ____
ROOT
ATOM      1  N   UNL     1       0.721  -0.488   1.180  0.00  0.00    -0.251 N 
ATOM      2  C   UNL     1       2.046  -0.725   1.233  0.00  0.00    +0.244 C 
ATOM      3  O   UNL     1       2.852  -0.583   0.338  0.00  0.00    -0.273 OA
ATOM      4  C   UNL     1       2.321  -1.204   2.645  0.00  0.00    +0.191 C 
ATOM      5  N   UNL     1       0.993  -1.180   3.283  0.00  0.00    -0.219 N 
ATOM      6  C   UNL     1       0.127  -0.744   2.351  0.00  0.00    +0.159 C 
ATOM      7  S   UNL     1      -1.550  -0.544   2.631  0.00  0.00    -0.017 S 
ENDROOT
BRANCH   5   8
ATOM      8  N   UNL     1       0.693  -1.537   4.604  0.00  0.00    -0.225 N 
ATOM      9  C   UNL     1       0.435  -0.581   5.518  0.00  0.00    +0.296 C 
ATOM     10  O   UNL     1       0.462   0.592   5.196  0.00  0.00    -0.265 OA
ATOM     11  H   UNL     1       0.671  -2.472   4.860  0.00  0.00    +0.173 HD
BRANCH   9  12
ATOM     12  C   UNL     1       0.120  -0.955   6.900  0.00  0.00    +0.192 A 
ATOM     13  C   UNL     1      -0.165  -0.092   7.920  0.00  0.00    +0.056 A 
ATOM     14  C   UNL     1      -0.402  -0.876   9.058  0.00  0.00    +0.058 A 
ATOM     15  C   UNL     1      -0.254  -2.169   8.689  0.00  0.00    +0.171 A 
ATOM     16  O   UNL     1       0.057  -2.212   7.386  0.00  0.00    -0.444 OA
ATOM     17 BR   UNL     1      -0.456  -3.669   9.823  0.00  0.00    -0.008 Br
ENDBRANCH   9  12
ENDBRANCH   5   8
BRANCH   1  19
ATOM     18  C   UNL     1       0.006   1.526  -0.009  0.00  0.00    +0.025 C 
ATOM     19  C   UNL     1       0.018  -0.004  -0.011  0.00  0.00    +0.112 C 
ENDBRANCH   1  19
BRANCH   4  20
ATOM     20  C   UNL     1       3.283  -0.253   3.359  0.00  0.00    +0.129 C 
BRANCH  20  21
ATOM     21  C   UNL     1       3.606  -0.799   4.726  0.00  0.00    +0.220 C 
ATOM     22  O   UNL     1       3.115  -1.845   5.093  0.00  0.00    -0.275 OA
ATOM     23  N   UNL     1       4.441  -0.123   5.541  0.00  0.00    -0.285 N 
ATOM     24  H   UNL     1       4.885   0.678   5.224  0.00  0.00    +0.155 HD
BRANCH  23  25
ATOM     25  C   UNL     1       4.665  -0.579   6.845  0.00  0.00    +0.037 A 
ATOM     26  C   UNL     1       4.854   0.332   7.877  0.00  0.00    +0.023 A 
ATOM     27  C   UNL     1       5.075  -0.117   9.164  0.00  0.00    +0.005 A 
ATOM     28  C   UNL     1       5.111  -1.473   9.429  0.00  0.00    +0.046 A 
ATOM     29  C   UNL     1       4.924  -2.388   8.402  0.00  0.00    +0.122 A 
ATOM     30  C   UNL     1       4.694  -1.940   7.110  0.00  0.00    +0.069 A 
BRANCH  29  31
ATOM     31  O   UNL     1       4.959  -3.721   8.664  0.00  0.00    -0.492 OA
BRANCH  31  32
ATOM     32  C   UNL     1       5.194  -4.110  10.019  0.00  0.00    +0.225 C 
ATOM     33  C   UNL     1       5.199  -5.636  10.117  0.00  0.00    +0.048 C 
ENDBRANCH  31  32
ENDBRANCH  29  31
ENDBRANCH  23  25
ENDBRANCH  20  21
ENDBRANCH   4  20
TORSDOF 8
