REMARK  Name = ZINC45618317
REMARK  8 active torsions:
REMARK  status: ('A' for Active; 'I' for Inactive)
REMARK    1  A    between atoms: C_1  and  C_2
REMARK    2  A    between atoms: C_2  and  C_4
REMARK    3  A    between atoms: C_2  and  S_20
REMARK    4  A    between atoms: C_10  and  C_15
REMARK    5  A    between atoms: S_20  and  C_21
REMARK    6  A    between atoms: C_21  and  C_23
REMARK    7  A    between atoms: C_21  and  C_24
REMARK    8  A    between atoms: N_26  and  C_27
REMARK                            x       y       z     vdW  Elec       q    Type
REMARK                         _______ _______ _______ _____ _____    ______ ____
ROOT
ATOM      1  C   UNL     1       1.541   1.820  -0.051  0.00  0.00    +0.027 C 
ATOM      2  C   UNL     1       1.219   0.328  -0.163  0.00  0.00    +0.110 C 
ENDROOT
BRANCH   2   3
ATOM      3  C   UNL     1       1.687  -0.188  -1.499  0.00  0.00    +0.124 A 
ATOM      4  N   UNL     1       1.263   0.421  -2.636  0.00  0.00    -0.309 N 
ATOM      5  H   UNL     1       0.664   1.181  -2.573  0.00  0.00    +0.170 HD
ATOM      6  C   UNL     1       1.659  -0.008  -3.849  0.00  0.00    +0.260 A 
ATOM      7  O   UNL     1       1.270   0.550  -4.860  0.00  0.00    -0.267 OA
ATOM      8  C   UNL     1       2.543  -1.130  -3.933  0.00  0.00    +0.083 A 
ATOM      9  C   UNL     1       3.106  -1.775  -5.115  0.00  0.00    +0.039 A 
ATOM     10  C   UNL     1       3.933  -2.838  -4.945  0.00  0.00    +0.059 A 
ATOM     11  S   UNL     1       3.998  -3.031  -3.174  0.00  0.00    -0.076 S 
ATOM     12  C   UNL     1       2.927  -1.695  -2.706  0.00  0.00    +0.116 A 
ATOM     13  N   UNL     1       2.499  -1.210  -1.544  0.00  0.00    -0.225 NA
BRANCH   9  14
ATOM     14  C   UNL     1       2.783  -1.281  -6.468  0.00  0.00    +0.136 A 
ATOM     15  C   UNL     1       3.680  -1.002  -7.452  0.00  0.00    +0.050 A 
ATOM     16  C   UNL     1       2.938  -0.562  -8.566  0.00  0.00    +0.042 A 
ATOM     17  C   UNL     1       1.639  -0.593  -8.212  0.00  0.00    +0.196 A 
ATOM     18  O   UNL     1       1.548  -1.033  -6.946  0.00  0.00    -0.463 OA
ENDBRANCH   9  14
ENDBRANCH   2   3
BRANCH   2  19
ATOM     19  S   UNL     1       2.064  -0.574   1.164  0.00  0.00    -0.137 S 
BRANCH  19  20
ATOM     20  C   UNL     1       1.384  -2.253   1.055  0.00  0.00    +0.130 C 
ATOM     21  C   UNL     1      -0.092  -2.232   1.458  0.00  0.00    +0.029 C 
BRANCH  20  22
ATOM     22  C   UNL     1       2.146  -3.164   1.982  0.00  0.00    +0.230 C 
ATOM     23  O   UNL     1       2.716  -2.706   2.950  0.00  0.00    -0.274 OA
ATOM     24  N   UNL     1       2.193  -4.489   1.736  0.00  0.00    -0.282 N 
ATOM     25  H   UNL     1       1.781  -4.848   0.935  0.00  0.00    +0.155 HD
BRANCH  24  26
ATOM     26  C   UNL     1       2.839  -5.345   2.637  0.00  0.00    +0.070 A 
ATOM     27  C   UNL     1       2.637  -5.198   4.004  0.00  0.00    +0.064 A 
ATOM     28  C   UNL     1       3.276  -6.046   4.890  0.00  0.00    +0.022 A 
ATOM     29  C   UNL     1       4.114  -7.038   4.417  0.00  0.00    +0.003 A 
ATOM     30  C   UNL     1       4.317  -7.187   3.058  0.00  0.00    +0.022 A 
ATOM     31  C   UNL     1       3.677  -6.348   2.165  0.00  0.00    +0.064 A 
ATOM     32 CL   UNL     1       3.927  -6.540   0.458  0.00  0.00    -0.082 Cl
ATOM     33 CL   UNL     1       1.585  -3.952   4.598  0.00  0.00    -0.082 Cl
ENDBRANCH  24  26
ENDBRANCH  20  22
ENDBRANCH  19  20
ENDBRANCH   2  19
TORSDOF 6
