REMARK  Name = ZINC04014869
REMARK  13 active torsions:
REMARK  status: ('A' for Active; 'I' for Inactive)
REMARK    1  A    between atoms: C_1  and  C_2
REMARK    2  A    between atoms: C_4  and  C_43
REMARK    3  A    between atoms: C_14  and  O_28
REMARK    4  A    between atoms: C_15  and  C_19
REMARK    5  A    between atoms: C_19  and  C_20
REMARK    6  A    between atoms: C_20  and  C_22
REMARK    7  A    between atoms: C_20  and  C_23
REMARK    8  A    between atoms: C_23  and  N_24
REMARK    9  A    between atoms: C_25  and  C_27
REMARK   10  A    between atoms: C_32  and  C_42
REMARK   11  A    between atoms: C_35  and  O_38
REMARK   12  A    between atoms: O_38  and  C_39
REMARK   13  A    between atoms: C_39  and  C_41
REMARK                            x       y       z     vdW  Elec       q    Type
REMARK                         _______ _______ _______ _____ _____    ______ ____
ROOT
ATOM      1  C   UNL     1      -7.101  -1.671   5.680  0.00  0.00    +0.047 C 
ATOM      2  C   UNL     1      -5.767  -1.200   6.204  0.00  0.00    -0.005 C 
ATOM      3  C   UNL     1      -5.615  -0.462   7.289  0.00  0.00    -0.025 C 
ATOM      4  C   UNL     1      -6.241   0.329   8.414  0.00  0.00    -0.005 C 
ATOM      5  C   UNL     1      -7.670   0.707   8.143  0.00  0.00    +0.011 C 
ATOM      6  C   UNL     1      -7.851   1.984   7.328  0.00  0.00    +0.005 C 
ATOM      7  C   UNL     1      -7.083   3.111   8.006  0.00  0.00    +0.003 C 
ATOM      8  C   UNL     1      -5.593   2.773   7.967  0.00  0.00    +0.001 C 
ATOM      9  C   UNL     1      -5.276   1.478   8.677  0.00  0.00    +0.006 C 
ATOM     10  C   UNL     1      -3.880   0.953   8.249  0.00  0.00    +0.044 C 
ATOM     11  C   UNL     1      -4.123  -0.407   7.615  0.00  0.00    +0.098 C 
ATOM     12  C   UNL     1      -3.417  -0.749   6.313  0.00  0.00    +0.096 C 
ATOM     13  C   UNL     1      -4.491  -1.541   5.571  0.00  0.00    +0.165 C 
ATOM     14  O   UNL     1      -4.320  -2.299   4.638  0.00  0.00    -0.292 OA
ATOM     15  C   UNL     1      -5.143   2.748   6.505  0.00  0.00    +0.031 C 
ATOM     16  C   UNL     1      -5.426   4.097   5.896  0.00  0.00    -0.027 C 
ATOM     17  C   UNL     1      -6.391   4.856   6.314  0.00  0.00    -0.064 C 
ATOM     18  C   UNL     1      -7.349   4.474   7.408  0.00  0.00    -0.008 C 
ATOM     19  C   UNL     1      -7.281   5.556   8.494  0.00  0.00    +0.015 C 
ATOM     20  C   UNL     1      -7.519   6.939   7.894  0.00  0.00    +0.046 C 
ATOM     21  C   UNL     1      -6.497   7.261   6.808  0.00  0.00    +0.180 C 
ATOM     22  C   UNL     1      -6.577   6.224   5.681  0.00  0.00    +0.075 C 
ATOM     23  C   UNL     1      -8.757   4.513   6.819  0.00  0.00    +0.016 C 
ATOM     24  C   UNL     1      -6.259  -0.557   9.673  0.00  0.00    +0.016 C 
ENDROOT
BRANCH  11  25
ATOM     25  O   UNL     1      -3.796  -1.434   8.576  0.00  0.00    -0.384 OA
ATOM     26  H   UNL     1      -2.852  -1.504   8.771  0.00  0.00    +0.211 HD
ENDBRANCH  11  25
BRANCH  12  27
ATOM     27  C   UNL     1      -2.962   0.447   5.487  0.00  0.00    +0.019 C 
BRANCH  27  28
ATOM     28  C   UNL     1      -2.255  -0.045   4.223  0.00  0.00    +0.004 C 
ATOM     29  C   UNL     1      -1.928   1.148   3.323  0.00  0.00    +0.009 C 
BRANCH  28  30
ATOM     30  C   UNL     1      -0.960  -0.763   4.609  0.00  0.00    +0.107 C 
BRANCH  30  31
ATOM     31  N   UNL     1      -0.344  -1.338   3.410  0.00  0.00    -0.315 N 
ATOM     32  C   UNL     1       0.813  -2.021   3.509  0.00  0.00    +0.210 C 
ATOM     33  O   UNL     1       1.345  -2.159   4.590  0.00  0.00    -0.276 OA
ATOM     34  C   UNL     1       1.447  -2.612   2.276  0.00  0.00    +0.109 C 
ATOM     35  H   UNL     1      -0.770  -1.227   2.546  0.00  0.00    +0.149 HD
ENDBRANCH  30  31
ENDBRANCH  28  30
ENDBRANCH  27  28
ENDBRANCH  12  27
BRANCH  21  36
ATOM     36  O   UNL     1      -6.769   8.581   6.265  0.00  0.00    -0.461 OA
BRANCH  36  37
ATOM     37  C   UNL     1      -5.717   9.284   5.816  0.00  0.00    +0.304 C 
ATOM     38  O   UNL     1      -4.606   8.812   5.875  0.00  0.00    -0.251 OA
ATOM     39  C   UNL     1      -5.921  10.661   5.239  0.00  0.00    +0.136 C 
ENDBRANCH  36  37
ENDBRANCH  21  36
TORSDOF 7
