REMARK  Name = ZINC36612852
REMARK  6 active torsions:
REMARK  status: ('A' for Active; 'I' for Inactive)
REMARK    1  A    between atoms: C_1  and  C_2
REMARK    2  A    between atoms: C_2  and  N_3
REMARK    3  A    between atoms: C_10  and  C_19
REMARK    4  A    between atoms: C_12  and  C_16
REMARK    5  A    between atoms: N_21  and  C_25
REMARK    6  A    between atoms: C_23  and  C_24
REMARK                            x       y       z     vdW  Elec       q    Type
REMARK                         _______ _______ _______ _____ _____    ______ ____
ROOT
ATOM      1  N   UNL     1       0.688  -0.476  -1.203  0.00  0.00    -0.324 N 
ATOM      2  C   UNL     1       0.830  -1.829  -1.430  0.00  0.00    +0.159 A 
ATOM      3  N   UNL     1       1.416  -2.421  -2.446  0.00  0.00    -0.224 NA
ATOM      4  C   UNL     1       1.488  -3.749  -2.551  0.00  0.00    +0.101 A 
ATOM      5  C   UNL     1       2.084  -4.604  -3.581  0.00  0.00    +0.065 A 
ATOM      6  C   UNL     1       2.053  -5.979  -3.505  0.00  0.00    +0.068 A 
ATOM      7  C   UNL     1       2.693  -6.702  -4.615  0.00  0.00    +0.040 A 
ATOM      8  C   UNL     1       2.802  -8.114  -4.785  0.00  0.00    -0.001 A 
ATOM      9  C   UNL     1       3.450  -8.600  -5.913  0.00  0.00    +0.038 A 
ATOM     10  C   UNL     1       3.974  -7.725  -6.846  0.00  0.00    +0.108 A 
ATOM     11  N   UNL     1       3.867  -6.420  -6.677  0.00  0.00    -0.239 NA
ATOM     12  C   UNL     1       3.263  -5.907  -5.626  0.00  0.00    +0.112 A 
ATOM     13  S   UNL     1       2.942  -4.244  -5.090  0.00  0.00    -0.065 S 
ATOM     14  N   UNL     1       1.427  -6.561  -2.396  0.00  0.00    -0.320 N 
ATOM     15  H   UNL     1       1.396  -7.528  -2.326  0.00  0.00    +0.169 HD
ATOM     16  C   UNL     1       0.868  -5.819  -1.427  0.00  0.00    +0.265 A 
ATOM     17  O   UNL     1       0.334  -6.376  -0.481  0.00  0.00    -0.267 OA
ATOM     18  C   UNL     1       0.881  -4.435  -1.478  0.00  0.00    +0.106 A 
ATOM     19  S   UNL     1       0.299  -3.103  -0.465  0.00  0.00    -0.047 S 
ATOM     20  H   UNL     1       1.042   0.162  -1.842  0.00  0.00    +0.148 HD
ENDROOT
BRANCH   8  21
ATOM     21  C   UNL     1       2.236  -9.042  -3.778  0.00  0.00    +0.023 A 
ATOM     22  C   UNL     1       2.943  -9.899  -2.982  0.00  0.00    +0.116 A 
ATOM     23  N   UNL     1       2.059 -10.562  -2.212  0.00  0.00    -0.274 N 
ATOM     24  N   UNL     1       0.773 -10.109  -2.531  0.00  0.00    -0.176 NA
ATOM     25  C   UNL     1       0.872  -9.198  -3.461  0.00  0.00    +0.068 A 
ATOM     26  C   UNL     1      -0.274  -8.446  -4.089  0.00  0.00    +0.068 C 
ATOM     27  C   UNL     1       2.387 -11.580  -1.211  0.00  0.00    +0.172 C 
ENDBRANCH   8  21
BRANCH  10  28
ATOM     28  C   UNL     1       4.676  -8.265  -8.065  0.00  0.00    +0.390 C 
ATOM     29  F   UNL     1       5.661  -7.361  -8.475  0.00  0.00    -0.202 F 
ATOM     30  F   UNL     1       5.269  -9.494  -7.756  0.00  0.00    -0.202 F 
ENDBRANCH  10  28
BRANCH   1  32
ATOM     31  C   UNL     1      -0.019   1.526   0.010  0.00  0.00    +0.024 C 
ATOM     32  C   UNL     1       0.002  -0.004   0.002  0.00  0.00    +0.100 C 
ENDBRANCH   1  32
TORSDOF 3
