REMARK  Name = ZINC28295689
REMARK  16 active torsions:
REMARK  status: ('A' for Active; 'I' for Inactive)
REMARK    1  A    between atoms: C_1  and  C_2
REMARK    2  A    between atoms: C_5  and  S_8
REMARK    3  A    between atoms: S_8  and  N_11
REMARK    4  A    between atoms: N_11  and  C_12
REMARK    5  A    between atoms: C_12  and  C_13
REMARK    6  A    between atoms: N_15  and  N_16
REMARK    7  A    between atoms: C_17  and  C_18
REMARK    8  A    between atoms: N_20  and  C_27
REMARK    9  A    between atoms: C_27  and  C_28
REMARK   10  A    between atoms: C_28  and  C_30
REMARK   11  A    between atoms: C_28  and  O_36
REMARK   12  A    between atoms: C_30  and  N_31
REMARK   13  A    between atoms: N_31  and  C_32
REMARK   14  A    between atoms: C_32  and  C_33
REMARK   15  A    between atoms: C_32  and  C_34
REMARK   16  A    between atoms: C_32  and  C_35
REMARK                            x       y       z     vdW  Elec       q    Type
REMARK                         _______ _______ _______ _____ _____    ______ ____
ROOT
ATOM      1  C   UNL     1       0.259   5.280   0.028  0.00  0.00    +0.020 A 
ATOM      2  C   UNL     1       1.617   5.368   0.016  0.00  0.00    +0.096 A 
ATOM      3  N   UNL     1       2.159   4.118   0.004  0.00  0.00    -0.344 N 
ATOM      4  C   UNL     1       1.162   3.165   0.008  0.00  0.00    +0.050 A 
ATOM      5  C   UNL     1      -0.068   3.843   0.023  0.00  0.00    +0.008 A 
ATOM      6  C   UNL     1      -1.261   3.123   0.031  0.00  0.00    +0.010 A 
ATOM      7  C   UNL     1      -1.227   1.746   0.017  0.00  0.00    +0.001 A 
ATOM      8  C   UNL     1      -0.013   1.076   0.008  0.00  0.00    +0.002 A 
ATOM      9  C   UNL     1       1.175   1.774   0.000  0.00  0.00    +0.026 A 
ENDROOT
BRANCH   1  11
ATOM     10  N   UNL     1      -1.973   6.164   0.053  0.00  0.00    -0.188 NA
ATOM     11  C   UNL     1      -0.696   6.400   0.043  0.00  0.00    +0.140 C 
BRANCH  10  14
ATOM     12  C   UNL     1      -4.207   6.986   0.078  0.00  0.00    +0.248 C 
ATOM     13  O   UNL     1      -4.613   5.843   0.075  0.00  0.00    -0.273 OA
ATOM     14  N   UNL     1      -2.882   7.230   0.067  0.00  0.00    -0.206 N 
ATOM     15  H   UNL     1      -2.514   8.267   0.069  0.00  0.00    +0.177 HD
BRANCH  12  16
ATOM     16  C   UNL     1      -5.185   8.133   0.093  0.00  0.00    +0.203 C 
BRANCH  16  17
ATOM     17  N   UNL     1      -6.553   7.608   0.102  0.00  0.00    -0.181 NA
ATOM     18  H   UNL     1      -6.761   6.607  -0.304  0.00  0.00    +0.149 HD
BRANCH  17  19
ATOM     19  S   UNL     1      -7.818   8.603   0.490  0.00  0.00    +0.059 S 
ATOM     20  O   UNL     1      -8.998   7.819   0.385  0.00  0.00    -0.153 OA
ATOM     21  O   UNL     1      -7.454   9.275   1.688  0.00  0.00    -0.153 OA
BRANCH  19  26
ATOM     22  C   UNL     1      -8.160  12.817  -3.815  0.00  0.00    +0.044 C 
ATOM     23  C   UNL     1      -8.075  11.764  -2.740  0.00  0.00    -0.050 A 
ATOM     24  C   UNL     1      -8.777  10.582  -2.873  0.00  0.00    +0.005 A 
ATOM     25  C   UNL     1      -8.699   9.616  -1.887  0.00  0.00    +0.029 A 
ATOM     26  C   UNL     1      -7.918   9.834  -0.767  0.00  0.00    +0.105 A 
ATOM     27  C   UNL     1      -7.219  11.019  -0.631  0.00  0.00    +0.029 A 
ATOM     28  C   UNL     1      -7.294  11.982  -1.620  0.00  0.00    +0.005 A 
ENDBRANCH  19  26
ENDBRANCH  17  19
ENDBRANCH  16  17
ENDBRANCH  12  16
ENDBRANCH  10  14
ENDBRANCH   1  11
BRANCH   3  29
ATOM     29  C   UNL     1       3.595   3.828  -0.012  0.00  0.00    +0.151 C 
BRANCH  29  30
ATOM     30  C   UNL     1       4.056   3.612  -1.454  0.00  0.00    +0.117 C 
BRANCH  30  31
ATOM     31  O   UNL     1       3.908   4.829  -2.189  0.00  0.00    -0.392 OA
ATOM     32  H   UNL     1       4.191   4.868  -3.251  0.00  0.00    +0.210 HD
ENDBRANCH  30  31
BRANCH  30  33
ATOM     33  C   UNL     1       5.526   3.187  -1.462  0.00  0.00    -0.048 C 
BRANCH  33  34
ATOM     34  N   UNL     1       5.968   2.980  -2.847  0.00  0.00    +0.384 N 
ATOM     35  H   UNL     1       5.357   2.194  -3.314  0.00  0.00    -0.085 HD
ATOM     36  H   UNL     1       5.854   3.917  -3.412  0.00  0.00    -0.085 HD
BRANCH  34  37
ATOM     37  C   UNL     1       7.378   2.570  -2.894  0.00  0.00    -0.077 C 
ATOM     38  C   UNL     1       7.554   1.261  -2.121  0.00  0.00    -0.011 C 
ATOM     39  C   UNL     1       7.802   2.365  -4.349  0.00  0.00    -0.011 C 
ATOM     40  C   UNL     1       8.247   3.658  -2.259  0.00  0.00    -0.011 C 
ENDBRANCH  34  37
ENDBRANCH  33  34
ENDBRANCH  30  33
ENDBRANCH  29  30
ENDBRANCH   3  29
TORSDOF 12
