REMARK  Name = ZINC01342091
REMARK  8 active torsions:
REMARK  status: ('A' for Active; 'I' for Inactive)
REMARK    1  A    between atoms: C_1  and  C_2
REMARK    2  A    between atoms: C_5  and  C_7
REMARK    3  A    between atoms: C_8  and  C_9
REMARK    4  A    between atoms: N_11  and  C_12
REMARK    5  A    between atoms: N_11  and  C_21
REMARK    6  A    between atoms: C_21  and  C_23
REMARK    7  A    between atoms: C_21  and  C_28
REMARK    8  A    between atoms: N_30  and  C_31
REMARK                            x       y       z     vdW  Elec       q    Type
REMARK                         _______ _______ _______ _____ _____    ______ ____
ROOT
ATOM      1  C   UNL     1      -2.260  -2.654   1.126  0.00  0.00    +0.245 C 
ATOM      2  O   UNL     1      -2.565  -1.892   2.025  0.00  0.00    -0.270 OA
ATOM      3  N   UNL     1      -1.302  -2.307   0.243  0.00  0.00    -0.249 N 
ENDROOT
BRANCH   3   4
ATOM      4  C   UNL     1      -0.877  -3.224  -0.725  0.00  0.00    +0.042 A 
ATOM      5  C   UNL     1       0.136  -4.127  -0.429  0.00  0.00    +0.027 A 
ATOM      6  C   UNL     1       0.557  -5.032  -1.384  0.00  0.00    +0.051 A 
ATOM      7  C   UNL     1      -0.029  -5.042  -2.640  0.00  0.00    +0.166 A 
ATOM      8  C   UNL     1      -1.045  -4.137  -2.940  0.00  0.00    +0.168 A 
ATOM      9  C   UNL     1      -1.470  -3.234  -1.980  0.00  0.00    +0.073 A 
ATOM     10  O   UNL     1      -1.451  -4.348  -4.226  0.00  0.00    -0.453 OA
ATOM     11  C   UNL     1      -0.960  -5.656  -4.575  0.00  0.00    +0.466 C 
ATOM     12  O   UNL     1       0.201  -5.820  -3.739  0.00  0.00    -0.453 OA
ENDBRANCH   3   4
BRANCH   1  14
ATOM     13  C   UNL     1      -3.943  -4.213   1.831  0.00  0.00    +0.051 C 
ATOM     14  C   UNL     1      -2.911  -3.905   1.007  0.00  0.00    +0.071 C 
BRANCH  13  19
ATOM     15  C   UNL     1      -5.098  -8.760   0.217  0.00  0.00    +0.086 C 
ATOM     16  C   UNL     1      -5.118  -7.478   1.009  0.00  0.00    +0.103 A 
ATOM     17  C   UNL     1      -5.973  -7.192   2.017  0.00  0.00    +0.045 A 
ATOM     18  C   UNL     1      -5.649  -5.909   2.483  0.00  0.00    +0.049 A 
ATOM     19  C   UNL     1      -4.595  -5.465   1.712  0.00  0.00    +0.128 A 
ATOM     20  O   UNL     1      -4.292  -6.439   0.829  0.00  0.00    -0.461 OA
ENDBRANCH  13  19
ENDBRANCH   1  14
BRANCH   3  21
ATOM     21  C   UNL     1      -0.706  -0.970   0.298  0.00  0.00    +0.233 C 
BRANCH  21  22
ATOM     22  C   UNL     1      -0.817  -0.315  -1.055  0.00  0.00    +0.135 A 
ATOM     23  C   UNL     1      -1.261   0.933  -1.291  0.00  0.00    +0.047 A 
ATOM     24  C   UNL     1      -1.194   1.134  -2.689  0.00  0.00    +0.041 A 
ATOM     25  C   UNL     1      -0.721  -0.006  -3.224  0.00  0.00    +0.195 A 
ATOM     26  O   UNL     1      -0.494  -0.880  -2.230  0.00  0.00    -0.465 OA
ENDBRANCH  21  22
BRANCH  21  27
ATOM     27  C   UNL     1       0.746  -1.082   0.684  0.00  0.00    +0.242 C 
ATOM     28  O   UNL     1       1.235  -2.172   0.893  0.00  0.00    -0.273 OA
ATOM     29  N   UNL     1       1.501   0.028   0.797  0.00  0.00    -0.311 N 
ATOM     30  H   UNL     1       1.111   0.900   0.626  0.00  0.00    +0.149 HD
BRANCH  29  31
ATOM     31  C   UNL     1       2.913  -0.081   1.173  0.00  0.00    +0.073 C 
ATOM     32  C   UNL     1       3.033  -0.140   2.697  0.00  0.00    +0.022 C 
ATOM     33  C   UNL     1       4.507  -0.254   3.089  0.00  0.00    +0.002 C 
ATOM     34  C   UNL     1       5.270   0.964   2.564  0.00  0.00    +0.000 C 
ATOM     35  C   UNL     1       5.151   1.023   1.040  0.00  0.00    +0.002 C 
ATOM     36  C   UNL     1       3.676   1.137   0.648  0.00  0.00    +0.022 C 
ENDBRANCH  29  31
ENDBRANCH  21  27
ENDBRANCH   3  21
TORSDOF 7
