REMARK  Name = ZINC13496152
REMARK  14 active torsions:
REMARK  status: ('A' for Active; 'I' for Inactive)
REMARK    1  A    between atoms: C_1  and  C_2
REMARK    2  A    between atoms: C_2  and  O_3
REMARK    3  A    between atoms: O_3  and  C_4
REMARK    4  A    between atoms: C_4  and  C_6
REMARK    5  A    between atoms: C_7  and  C_33
REMARK    6  A    between atoms: C_8  and  C_32
REMARK    7  A    between atoms: C_10  and  N_11
REMARK    8  A    between atoms: C_12  and  C_14
REMARK    9  A    between atoms: C_14  and  S_15
REMARK   10  A    between atoms: S_15  and  C_16
REMARK   11  A    between atoms: C_19  and  C_21
REMARK   12  A    between atoms: C_24  and  N_27
REMARK   13  A    between atoms: N_27  and  S_28
REMARK   14  A    between atoms: S_28  and  C_31
REMARK                            x       y       z     vdW  Elec       q    Type
REMARK                         _______ _______ _______ _____ _____    ______ ____
ROOT
ATOM      1  S   UNL     1      -3.591  -2.685   0.333  0.00  0.00    -0.056 S 
ENDROOT
BRANCH   1   2
ATOM      2  C   UNL     1      -3.136  -4.385   0.241  0.00  0.00    +0.278 A 
ATOM      3  N   UNL     1      -1.914  -4.859   0.174  0.00  0.00    -0.101 NA
ATOM      4  N   UNL     1      -1.955  -6.144   0.119  0.00  0.00    -0.106 NA
ATOM      5  C   UNL     1      -3.204  -6.541   0.149  0.00  0.00    +0.249 A 
ATOM      6  O   UNL     1      -3.978  -5.436   0.233  0.00  0.00    -0.411 OA
BRANCH   5   7
ATOM      7  C   UNL     1      -3.678  -7.939   0.106  0.00  0.00    +0.039 A 
ATOM      8  C   UNL     1      -5.046  -8.216   0.152  0.00  0.00    +0.015 A 
ATOM      9  C   UNL     1      -5.485  -9.522   0.107  0.00  0.00    +0.025 A 
ATOM     10  C   UNL     1      -4.567 -10.563   0.026  0.00  0.00    +0.048 A 
ATOM     11  C   UNL     1      -3.204 -10.291  -0.015  0.00  0.00    +0.025 A 
ATOM     12  C   UNL     1      -2.759  -8.988   0.024  0.00  0.00    +0.015 A 
BRANCH  10  13
ATOM     13  N   UNL     1      -5.015 -11.884  -0.014  0.00  0.00    -0.221 N 
ATOM     14  H   UNL     1      -5.405 -12.239  -0.828  0.00  0.00    +0.173 HD
BRANCH  13  15
ATOM     15  S   UNL     1      -4.880 -12.846   1.327  0.00  0.00    +0.040 S 
ATOM     16  O   UNL     1      -5.418 -14.100   0.931  0.00  0.00    -0.155 OA
ATOM     17  O   UNL     1      -3.518 -12.733   1.719  0.00  0.00    -0.155 OA
ATOM     18  C   UNL     1      -5.952 -12.069   2.567  0.00  0.00    +0.218 C 
ENDBRANCH  13  15
ENDBRANCH  10  13
ENDBRANCH   5   7
ENDBRANCH   1   2
BRANCH   1  19
ATOM     19  C   UNL     1      -1.952  -1.919   0.303  0.00  0.00    +0.175 C 
BRANCH  19  21
ATOM     20  N   UNL     1      -1.000   0.364   0.366  0.00  0.00    -0.279 N 
ATOM     21  C   UNL     1      -2.097  -0.420   0.374  0.00  0.00    +0.228 C 
ATOM     22  O   UNL     1      -3.200   0.080   0.439  0.00  0.00    -0.275 OA
ATOM     23  H   UNL     1      -0.118  -0.036   0.315  0.00  0.00    +0.155 HD
BRANCH  20  28
ATOM     24  C   UNL     1      -0.132   2.708   0.435  0.00  0.00    +0.091 A 
ATOM     25  C   UNL     1      -0.560   4.085   0.512  0.00  0.00    -0.025 A 
ATOM     26  C   UNL     1      -1.883   4.314   0.574  0.00  0.00    -0.008 A 
ATOM     27  S   UNL     1      -2.587   2.679   0.521  0.00  0.00    -0.078 S 
ATOM     28  C   UNL     1      -1.133   1.742   0.432  0.00  0.00    +0.086 A 
ATOM     29  C   UNL     1      -2.600   5.638   0.658  0.00  0.00    +0.052 C 
ATOM     30  C   UNL     1       0.435   5.216   0.524  0.00  0.00    +0.045 C 
BRANCH  24  31
ATOM     31  C   UNL     1       1.285   2.345   0.365  0.00  0.00    +0.342 C 
ATOM     32  O   UNL     1       1.833   2.241  -0.715  0.00  0.00    -0.245 OA
BRANCH  31  33
ATOM     33  O   UNL     1       1.982   2.128   1.499  0.00  0.00    -0.461 OA
BRANCH  33  35
ATOM     34  C   UNL     1       4.002   1.566   2.737  0.00  0.00    +0.048 C 
ATOM     35  C   UNL     1       3.382   1.772   1.354  0.00  0.00    +0.229 C 
ENDBRANCH  33  35
ENDBRANCH  31  33
ENDBRANCH  24  31
ENDBRANCH  20  28
ENDBRANCH  19  21
ENDBRANCH   1  19
TORSDOF 10
