REMARK  Name = ZINC63530131
REMARK  7 active torsions:
REMARK  status: ('A' for Active; 'I' for Inactive)
REMARK    1  A    between atoms: C_1  and  C_2
REMARK    2  A    between atoms: C_4  and  C_32
REMARK    3  A    between atoms: C_8  and  N_27
REMARK    4  A    between atoms: C_10  and  C_13
REMARK    5  A    between atoms: N_15  and  C_16
REMARK    6  A    between atoms: C_16  and  C_17
REMARK    7  A    between atoms: C_17  and  C_18
REMARK                            x       y       z     vdW  Elec       q    Type
REMARK                         _______ _______ _______ _____ _____    ______ ____
ROOT
ATOM      1  C   UNL     1       0.331   1.611  -0.071  0.00  0.00    +0.044 C 
ATOM      2  C   UNL     1       0.228   0.107  -0.097  0.00  0.00    -0.041 A 
ATOM      3  C   UNL     1       0.136  -0.565  -1.303  0.00  0.00    +0.026 A 
ATOM      4  C   UNL     1       0.041  -1.941  -1.318  0.00  0.00    +0.040 A 
ATOM      5  N   UNL     1       0.031  -2.614  -0.182  0.00  0.00    -0.245 NA
ATOM      6  C   UNL     1       0.112  -2.005   0.985  0.00  0.00    +0.103 A 
ATOM      7  C   UNL     1       0.232  -0.620   1.096  0.00  0.00    +0.012 A 
ATOM      8  C   UNL     1       0.364  -0.067   2.493  0.00  0.00    +0.141 C 
ATOM      9  C   UNL     1      -0.155  -1.063   3.554  0.00  0.00    +0.166 C 
ATOM     10  S   UNL     1       0.098  -2.642   2.648  0.00  0.00    -0.090 S 
ATOM     11  C   UNL     1      -0.050  -2.676  -2.630  0.00  0.00    +0.065 C 
ENDROOT
BRANCH   8  12
ATOM     12  N   UNL     1      -0.406   1.175   2.590  0.00  0.00    -0.344 N 
ATOM     13  C   UNL     1      -0.032   2.290   3.281  0.00  0.00    +0.086 A 
ATOM     14  C   UNL     1      -0.996   3.221   3.134  0.00  0.00    +0.019 A 
ATOM     15  C   UNL     1      -2.003   2.660   2.323  0.00  0.00    +0.019 A 
ATOM     16  C   UNL     1      -1.612   1.411   2.000  0.00  0.00    +0.086 A 
ENDBRANCH   8  12
BRANCH   9  17
ATOM     17  C   UNL     1      -1.615  -0.839   3.851  0.00  0.00    +0.229 C 
ATOM     18  O   UNL     1      -2.385  -0.586   2.949  0.00  0.00    -0.275 OA
ATOM     19  N   UNL     1      -2.065  -0.918   5.119  0.00  0.00    -0.314 N 
ATOM     20  H   UNL     1      -1.449  -1.120   5.840  0.00  0.00    +0.149 HD
BRANCH  19  21
ATOM     21  C   UNL     1      -3.485  -0.700   5.407  0.00  0.00    +0.108 C 
BRANCH  21  22
ATOM     22  C   UNL     1      -3.728  -0.846   6.911  0.00  0.00    +0.052 C 
BRANCH  22  23
ATOM     23  C   UNL     1      -5.188  -0.621   7.208  0.00  0.00    -0.040 C 
ATOM     24  C   UNL     1      -6.147  -1.566   7.332  0.00  0.00    -0.001 A 
ATOM     25  C   UNL     1      -6.120  -3.030   7.230  0.00  0.00    +0.010 A 
ATOM     26  C   UNL     1      -7.269  -3.722   7.407  0.00  0.00    +0.001 A 
ATOM     27  C   UNL     1      -8.482  -3.077   7.684  0.00  0.00    +0.002 A 
ATOM     28  C   UNL     1      -8.587  -1.735   7.792  0.00  0.00    +0.026 A 
ATOM     29  C   UNL     1      -7.441  -0.909   7.625  0.00  0.00    +0.043 A 
ATOM     30  N   UNL     1      -7.287   0.392   7.680  0.00  0.00    -0.380 N 
ATOM     31  C   UNL     1      -5.876   0.707   7.434  0.00  0.00    +0.144 C 
ATOM     32  H   UNL     1      -7.989   1.037   7.858  0.00  0.00    +0.160 HD
ENDBRANCH  22  23
ENDBRANCH  21  22
ENDBRANCH  19  21
ENDBRANCH   9  17
TORSDOF 5
