REMARK  Name = ZINC19218986
REMARK  3 active torsions:
REMARK  status: ('A' for Active; 'I' for Inactive)
REMARK    1  A    between atoms: C_6  and  C_7
REMARK    2  A    between atoms: C_9  and  C_12
REMARK    3  A    between atoms: C_12  and  C_13
REMARK                            x       y       z     vdW  Elec       q    Type
REMARK                         _______ _______ _______ _____ _____    ______ ____
ROOT
ATOM      1  C   UNL     1       2.480   1.068  -0.015  0.00  0.00    +0.202 A 
ATOM      2  N   UNL     1       3.712   1.628  -0.029  0.00  0.00    -0.191 NA
ATOM      3  C   UNL     1       4.554   0.625  -0.036  0.00  0.00    +0.229 A 
ATOM      4  O   UNL     1       3.829  -0.498  -0.035  0.00  0.00    -0.338 OA
ATOM      5  N   UNL     1       2.646  -0.230  -0.023  0.00  0.00    -0.056 NA
ENDROOT
BRANCH   1  11
ATOM      6  C   UNL     1       1.162   3.183   0.008  0.00  0.00    +0.015 A 
ATOM      7  C   UNL     1      -0.043   3.854   0.022  0.00  0.00    +0.050 A 
ATOM      8  C   UNL     1      -1.236   3.146   0.030  0.00  0.00    +0.166 A 
ATOM      9  C   UNL     1      -1.219   1.751   0.017  0.00  0.00    +0.167 A 
ATOM     10  C   UNL     1      -0.013   1.076   0.008  0.00  0.00    +0.061 A 
ATOM     11  C   UNL     1       1.185   1.790   0.000  0.00  0.00    +0.026 A 
ATOM     12  O   UNL     1      -2.507   1.300   0.032  0.00  0.00    -0.453 OA
ATOM     13  C   UNL     1      -3.304   2.421   0.458  0.00  0.00    +0.466 C 
ATOM     14  O   UNL     1      -2.534   3.565   0.043  0.00  0.00    -0.453 OA
ENDBRANCH   1  11
BRANCH   3  15
ATOM     15  C   UNL     1       6.058   0.719  -0.050  0.00  0.00    +0.121 C 
BRANCH  15  16
ATOM     16  C   UNL     1       6.580   0.744   1.388  0.00  0.00    +0.082 C 
ATOM     17  C   UNL     1       8.125   0.714   1.396  0.00  0.00    +0.032 C 
ATOM     18  C   UNL     1       8.469   2.220   1.456  0.00  0.00    +0.097 C 
ATOM     19  C   UNL     1       7.249   2.854   2.089  0.00  0.00    +0.213 C 
ATOM     20  O   UNL     1       7.215   3.968   2.569  0.00  0.00    -0.276 OA
ATOM     21  N   UNL     1       6.209   2.004   2.042  0.00  0.00    -0.312 N 
ATOM     22  H   UNL     1       5.185   2.148   2.417  0.00  0.00    +0.149 HD
ENDBRANCH  15  16
ENDBRANCH   3  15
TORSDOF 3
