REMARK  Name = ZINC09569092
REMARK  9 active torsions:
REMARK  status: ('A' for Active; 'I' for Inactive)
REMARK    1  A    between atoms: C_1  and  C_2
REMARK    2  A    between atoms: C_6  and  C_8
REMARK    3  A    between atoms: C_13  and  C_16
REMARK    4  A    between atoms: C_16  and  C_17
REMARK    5  A    between atoms: C_17  and  N_18
REMARK    6  A    between atoms: C_19  and  C_21
REMARK    7  A    between atoms: N_23  and  C_24
REMARK    8  A    between atoms: C_27  and  C_31
REMARK    9  A    between atoms: C_29  and  C_30
REMARK                            x       y       z     vdW  Elec       q    Type
REMARK                         _______ _______ _______ _____ _____    ______ ____
ROOT
ATOM      1  C   UNL     1      -2.878  -0.760   1.465  0.00  0.00    +0.111 C 
ENDROOT
BRANCH   1   2
ATOM      2  N   UNL     1      -4.318  -0.489   1.479  0.00  0.00    -0.307 N 
ATOM      3  C   UNL     1      -4.989  -0.468   2.647  0.00  0.00    +0.299 C 
ATOM      4  O   UNL     1      -4.400  -0.673   3.689  0.00  0.00    -0.265 OA
ATOM      5  H   UNL     1      -4.788  -0.325   0.646  0.00  0.00    +0.149 HD
BRANCH   3   6
ATOM      6  C   UNL     1      -6.457  -0.192   2.661  0.00  0.00    +0.303 C 
ATOM      7  O   UNL     1      -7.045   0.013   1.620  0.00  0.00    -0.265 OA
ATOM      8  N   UNL     1      -7.127  -0.171   3.830  0.00  0.00    -0.278 N 
ATOM      9  H   UNL     1      -6.675  -0.414   4.653  0.00  0.00    +0.155 HD
BRANCH   8  10
ATOM     10  C   UNL     1      -8.474   0.200   3.856  0.00  0.00    +0.037 A 
ATOM     11  C   UNL     1      -8.992   1.014   2.856  0.00  0.00    +0.024 A 
ATOM     12  C   UNL     1     -10.323   1.379   2.885  0.00  0.00    +0.005 A 
ATOM     13  C   UNL     1     -11.142   0.933   3.906  0.00  0.00    -0.050 A 
ATOM     14  C   UNL     1     -10.631   0.122   4.902  0.00  0.00    +0.008 A 
ATOM     15  C   UNL     1      -9.301  -0.250   4.878  0.00  0.00    -0.029 A 
ATOM     16  C   UNL     1      -8.746  -1.139   5.961  0.00  0.00    +0.045 C 
ATOM     17  C   UNL     1     -12.595   1.332   3.933  0.00  0.00    +0.044 C 
ENDBRANCH   8  10
ENDBRANCH   3   6
ENDBRANCH   1   2
BRANCH   1  18
ATOM     18  C   UNL     1      -2.366  -0.726   0.024  0.00  0.00    +0.075 C 
BRANCH  18  24
ATOM     19  C   UNL     1       1.216   1.888   0.000  0.00  0.00    +0.183 A 
ATOM     20  N   UNL     1       2.037   0.831  -0.011  0.00  0.00    -0.200 NA
ATOM     21  C   UNL     1       1.329  -0.264  -0.008  0.00  0.00    +0.196 A 
ATOM     22  N   UNL     1       0.003   0.044   0.005  0.00  0.00    -0.210 N 
ATOM     23  N   UNL     1      -0.028   1.463   0.010  0.00  0.00    -0.144 NA
ATOM     24  C   UNL     1      -0.885  -1.004   0.010  0.00  0.00    +0.054 A 
ATOM     25  C   UNL     1      -0.451  -2.266   0.002  0.00  0.00    +0.072 A 
ATOM     26  S   UNL     1       1.321  -2.041  -0.013  0.00  0.00    -0.056 S 
BRANCH  19  32
ATOM     27  C   UNL     1       4.850   5.312  -0.022  0.00  0.00    +0.044 C 
ATOM     28  C   UNL     1       3.385   4.959  -0.010  0.00  0.00    -0.050 A 
ATOM     29  C   UNL     1       2.433   5.962   0.001  0.00  0.00    +0.003 A 
ATOM     30  C   UNL     1       1.087   5.646   0.012  0.00  0.00    +0.001 A 
ATOM     31  C   UNL     1       0.686   4.325   0.007  0.00  0.00    +0.011 A 
ATOM     32  C   UNL     1       1.640   3.310   0.001  0.00  0.00    +0.021 A 
ATOM     33  C   UNL     1       2.995   3.635  -0.010  0.00  0.00    +0.015 A 
ENDBRANCH  19  32
ENDBRANCH  18  24
ENDBRANCH   1  18
TORSDOF 6
