REMARK  Name = ZINC36604039
REMARK  12 active torsions:
REMARK  status: ('A' for Active; 'I' for Inactive)
REMARK    1  A    between atoms: C_1  and  C_2
REMARK    2  A    between atoms: C_2  and  C_3
REMARK    3  A    between atoms: C_2  and  C_4
REMARK    4  A    between atoms: C_2  and  N_5
REMARK    5  A    between atoms: C_6  and  C_8
REMARK    6  A    between atoms: C_8  and  C_10
REMARK    7  A    between atoms: C_8  and  N_17
REMARK    8  A    between atoms: C_14  and  O_16
REMARK    9  A    between atoms: N_17  and  C_18
REMARK   10  A    between atoms: C_24  and  C_26
REMARK   11  A    between atoms: C_26  and  C_34
REMARK   12  A    between atoms: C_27  and  C_28
REMARK                            x       y       z     vdW  Elec       q    Type
REMARK                         _______ _______ _______ _____ _____    ______ ____
ROOT
ATOM      1  N   UNL     1       4.371  -0.542  -4.175  0.00  0.00    -0.251 N 
ATOM      2  C   UNL     1       4.362   0.509  -5.019  0.00  0.00    +0.252 C 
ATOM      3  O   UNL     1       3.392   1.241  -5.069  0.00  0.00    -0.270 OA
ENDROOT
BRANCH   1   4
ATOM      4  C   UNL     1       5.542  -1.286  -3.997  0.00  0.00    +0.038 A 
ATOM      5  C   UNL     1       6.356  -1.050  -2.897  0.00  0.00    +0.023 A 
ATOM      6  C   UNL     1       7.511  -1.786  -2.724  0.00  0.00    +0.002 A 
ATOM      7  C   UNL     1       7.858  -2.758  -3.645  0.00  0.00    +0.000 A 
ATOM      8  C   UNL     1       7.049  -2.995  -4.742  0.00  0.00    +0.002 A 
ATOM      9  C   UNL     1       5.889  -2.266  -4.917  0.00  0.00    +0.023 A 
ENDBRANCH   1   4
BRANCH   2  10
ATOM     10  C   UNL     1       5.526   0.771  -5.880  0.00  0.00    +0.045 C 
ATOM     11  C   UNL     1       5.365   1.423  -7.062  0.00  0.00    +0.021 C 
BRANCH  11  12
ATOM     12  C   UNL     1       6.541   1.847  -7.835  0.00  0.00    -0.024 A 
ATOM     13  C   UNL     1       6.542   1.738  -9.230  0.00  0.00    +0.008 A 
ATOM     14  C   UNL     1       7.650   2.138  -9.947  0.00  0.00    +0.001 A 
ATOM     15  C   UNL     1       8.758   2.645  -9.291  0.00  0.00    +0.000 A 
ATOM     16  C   UNL     1       8.765   2.756  -7.911  0.00  0.00    +0.001 A 
ATOM     17  C   UNL     1       7.663   2.366  -7.179  0.00  0.00    +0.008 A 
ENDBRANCH  11  12
BRANCH  10  18
ATOM     18  C   UNL     1       6.874   0.324  -5.459  0.00  0.00    -0.013 A 
ATOM     19  C   UNL     1       7.605  -0.551  -6.263  0.00  0.00    +0.008 A 
ATOM     20  C   UNL     1       8.860  -0.964  -5.866  0.00  0.00    +0.001 A 
ATOM     21  C   UNL     1       9.394  -0.512  -4.672  0.00  0.00    +0.000 A 
ATOM     22  C   UNL     1       8.674   0.356  -3.870  0.00  0.00    +0.001 A 
ATOM     23  C   UNL     1       7.420   0.781  -4.260  0.00  0.00    +0.008 A 
ENDBRANCH  10  18
ENDBRANCH   2  10
BRANCH   1  24
ATOM     24  C   UNL     1       3.154  -0.904  -3.444  0.00  0.00    +0.198 C 
BRANCH  24  25
ATOM     25  C   UNL     1       2.861  -2.368  -3.652  0.00  0.00    -0.014 A 
ATOM     26  C   UNL     1       3.734  -3.323  -3.165  0.00  0.00    +0.006 A 
ATOM     27  C   UNL     1       3.468  -4.667  -3.354  0.00  0.00    +0.004 A 
ATOM     28  C   UNL     1       2.328  -5.058  -4.030  0.00  0.00    +0.045 A 
ATOM     29  C   UNL     1       1.450  -4.101  -4.519  0.00  0.00    +0.117 A 
ATOM     30  C   UNL     1       1.717  -2.753  -4.322  0.00  0.00    +0.051 A 
BRANCH  29  31
ATOM     31  O   UNL     1       0.328  -4.483  -5.184  0.00  0.00    -0.507 OA
ATOM     32  H   UNL     1      -0.442  -4.613  -4.613  0.00  0.00    +0.292 HD
ENDBRANCH  29  31
ENDBRANCH  24  25
BRANCH  24  34
ATOM     33  N   UNL     1       2.390  -0.969  -1.092  0.00  0.00    -0.309 N 
ATOM     34  C   UNL     1       3.352  -0.635  -1.974  0.00  0.00    +0.239 C 
ATOM     35  O   UNL     1       4.378  -0.118  -1.585  0.00  0.00    -0.273 OA
ATOM     36  H   UNL     1       1.569  -1.383  -1.404  0.00  0.00    +0.149 HD
BRANCH  33  38
ATOM     37  C   UNL     1       2.781   0.793   0.557  0.00  0.00    +0.031 C 
ATOM     38  C   UNL     1       2.582  -0.708   0.336  0.00  0.00    +0.026 C 
ATOM     39  C   UNL     1       3.816  -1.465   0.832  0.00  0.00    +0.031 C 
ATOM     40  C   UNL     1       1.350  -1.178   1.111  0.00  0.00    +0.031 C 
ENDBRANCH  33  38
ENDBRANCH  24  34
ENDBRANCH   1  24
TORSDOF 9
