REMARK  Name = ZINC49554693
REMARK  3 active torsions:
REMARK  status: ('A' for Active; 'I' for Inactive)
REMARK    1  A    between atoms: C_3  and  S_9
REMARK    2  A    between atoms: C_6  and  N_7
REMARK    3  A    between atoms: S_9  and  N_12
REMARK                            x       y       z     vdW  Elec       q    Type
REMARK                         _______ _______ _______ _____ _____    ______ ____
ROOT
ATOM      1  S   UNL     1       3.890   2.321  -0.023  0.00  0.00    +0.102 S 
ATOM      2  O   UNL     1       4.688   1.766  -1.059  0.00  0.00    -0.146 OA
ATOM      3  O   UNL     1       3.540   3.697   0.015  0.00  0.00    -0.146 OA
ENDROOT
BRANCH   1   4
ATOM      4  N   UNL     1       4.667   1.990   1.402  0.00  0.00    -0.103 NA
ATOM      5  C   UNL     1       5.829   2.539   1.657  0.00  0.00    +0.192 A 
ATOM      6  N   UNL     1       6.568   3.410   0.893  0.00  0.00    -0.336 N 
ATOM      7  C   UNL     1       7.781   3.870   1.361  0.00  0.00    +0.028 A 
ATOM      8  C   UNL     1       8.184   3.435   2.561  0.00  0.00    +0.012 A 
ATOM      9  S   UNL     1       6.875   2.363   3.095  0.00  0.00    -0.053 S 
ATOM     10  C   UNL     1       9.446   3.778   3.286  0.00  0.00    +0.044 C 
ATOM     11  C   UNL     1      10.414   4.439   2.293  0.00  0.00    +0.006 C 
ATOM     12  C   UNL     1       9.649   5.506   1.505  0.00  0.00    +0.006 C 
ATOM     13  C   UNL     1       8.649   4.838   0.561  0.00  0.00    +0.054 C 
ATOM     14  H   UNL     1       6.238   3.701   0.029  0.00  0.00    +0.168 HD
ENDBRANCH   1   4
BRANCH   1  17
ATOM     15  C   UNL     1      -0.017   1.385   0.010  0.00  0.00    +0.025 A 
ATOM     16  C   UNL     1       1.171   2.091   0.002  0.00  0.00    +0.032 A 
ATOM     17  C   UNL     1       2.377   1.416  -0.013  0.00  0.00    +0.127 A 
ATOM     18  C   UNL     1       2.400   0.033  -0.021  0.00  0.00    +0.046 A 
ATOM     19  C   UNL     1       1.216  -0.679  -0.014  0.00  0.00    +0.040 A 
ATOM     20  C   UNL     1       0.002  -0.004   0.002  0.00  0.00    +0.026 A 
ATOM     21 BR   UNL     1       4.054  -0.885  -0.043  0.00  0.00    -0.048 Br
BRANCH  20  22
ATOM     22  N   UNL     1      -1.197  -0.720   0.010  0.00  0.00    -0.358 N 
ATOM     23  H   UNL     1      -2.044  -0.248   0.020  0.00  0.00    +0.142 HD
ATOM     24  H   UNL     1      -1.183  -1.690   0.004  0.00  0.00    +0.142 HD
ENDBRANCH  20  22
ENDBRANCH   1  17
TORSDOF 3
