REMARK  Name = ZINC63068365
REMARK  7 active torsions:
REMARK  status: ('A' for Active; 'I' for Inactive)
REMARK    1  A    between atoms: C_1  and  C_2
REMARK    2  A    between atoms: C_3  and  C_9
REMARK    3  A    between atoms: C_4  and  C_8
REMARK    4  A    between atoms: N_5  and  C_7
REMARK    5  A    between atoms: C_9  and  C_10
REMARK    6  A    between atoms: C_9  and  N_11
REMARK    7  A    between atoms: C_22  and  C_23
REMARK                            x       y       z     vdW  Elec       q    Type
REMARK                         _______ _______ _______ _____ _____    ______ ____
ROOT
ATOM      1  N   UNL     1      -0.615   0.845  -2.745  0.00  0.00    -0.293 N 
ATOM      2  C   UNL     1      -1.168   1.100  -3.947  0.00  0.00    +0.303 C 
ATOM      3  O   UNL     1      -0.903   0.393  -4.900  0.00  0.00    -0.253 OA
ATOM      4  N   UNL     1      -2.015   2.138  -4.093  0.00  0.00    -0.278 N 
ATOM      5  C   UNL     1      -2.713   2.357  -5.368  0.00  0.00    +0.115 C 
ATOM      6  C   UNL     1      -4.220   2.174  -5.131  0.00  0.00    +0.062 C 
ATOM      7  C   UNL     1      -4.590   2.857  -3.855  0.00  0.00    -0.004 A 
ATOM      8  C   UNL     1      -3.763   3.271  -2.858  0.00  0.00    -0.017 A 
ATOM      9  C   UNL     1      -4.365   3.880  -1.757  0.00  0.00    +0.013 A 
ATOM     10  C   UNL     1      -5.708   4.037  -1.722  0.00  0.00    +0.046 A 
ATOM     11  S   UNL     1      -6.204   3.316  -3.279  0.00  0.00    -0.101 S 
ATOM     12  C   UNL     1      -2.259   3.063  -2.978  0.00  0.00    +0.105 C 
ATOM     13  C   UNL     1      -1.575   4.403  -3.257  0.00  0.00    +0.033 C 
ATOM     14  H   UNL     1      -0.769   1.450  -2.002  0.00  0.00    +0.151 HD
ENDROOT
BRANCH   1  15
ATOM     15  C   UNL     1       0.219  -0.345  -2.559  0.00  0.00    +0.105 C 
ATOM     16  C   UNL     1       1.673  -0.005  -2.895  0.00  0.00    +0.033 C 
BRANCH  15  19
ATOM     17  C   UNL     1      -0.226  -3.327  -1.584  0.00  0.00    +0.068 C 
ATOM     18  C   UNL     1      -0.068  -2.120  -0.696  0.00  0.00    +0.065 A 
ATOM     19  C   UNL     1       0.128  -0.804  -1.127  0.00  0.00    +0.016 A 
ATOM     20  C   UNL     1       0.223  -0.016  -0.031  0.00  0.00    +0.041 A 
ATOM     21  N   UNL     1       0.091  -0.805   1.056  0.00  0.00    -0.271 N 
ATOM     22  N   UNL     1      -0.095  -2.121   0.612  0.00  0.00    -0.176 NA
ATOM     23  C   UNL     1       0.131  -0.364   2.452  0.00  0.00    +0.172 C 
ATOM     24  C   UNL     1       0.437   1.476  -0.025  0.00  0.00    +0.065 C 
ENDBRANCH  15  19
ENDBRANCH   1  15
TORSDOF 2
