REMARK  Name = ZINC03655732
REMARK  8 active torsions:
REMARK  status: ('A' for Active; 'I' for Inactive)
REMARK    1  A    between atoms: C_1  and  C_2
REMARK    2  A    between atoms: C_16  and  C_18
REMARK    3  A    between atoms: C_22  and  O_24
REMARK    4  A    between atoms: C_27  and  C_36
REMARK    5  A    between atoms: C_28  and  C_30
REMARK    6  A    between atoms: C_30  and  O_32
REMARK    7  A    between atoms: O_32  and  C_33
REMARK    8  A    between atoms: C_33  and  C_34
REMARK                            x       y       z     vdW  Elec       q    Type
REMARK                         _______ _______ _______ _____ _____    ______ ____
ROOT
ATOM      1  C   UNL     1       2.477   3.920  -0.002  0.00  0.00    +0.044 C 
ATOM      2  C   UNL     1       1.170   3.170   0.007  0.00  0.00    -0.050 A 
ATOM      3  C   UNL     1       1.170   1.782   0.001  0.00  0.00    +0.007 A 
ATOM      4  C   UNL     1      -0.013   1.076   0.008  0.00  0.00    +0.047 A 
ATOM      5  C   UNL     1      -1.227   1.757   0.017  0.00  0.00    +0.139 A 
ATOM      6  C   UNL     1      -1.217   3.162   0.031  0.00  0.00    +0.065 A 
ATOM      7  C   UNL     1      -0.011   3.860   0.022  0.00  0.00    +0.018 A 
ATOM      8  C   UNL     1      -2.515   3.866   0.046  0.00  0.00    +0.199 A 
ATOM      9  O   UNL     1      -2.582   5.082   0.054  0.00  0.00    -0.287 OA
ATOM     10  C   UNL     1      -3.717   3.029   0.036  0.00  0.00    +0.072 A 
ATOM     11  C   UNL     1      -3.599   1.678   0.028  0.00  0.00    +0.199 A 
ATOM     12  O   UNL     1      -2.390   1.082   0.019  0.00  0.00    -0.450 OA
ATOM     13  C   UNL     1      -4.962   1.090   0.031  0.00  0.00    +0.289 C 
ATOM     14  O   UNL     1      -5.205  -0.100   0.026  0.00  0.00    -0.266 OA
ATOM     15  N   UNL     1      -5.888   2.064   0.041  0.00  0.00    -0.232 N 
ATOM     16  C   UNL     1      -5.188   3.354   0.045  0.00  0.00    +0.152 C 
ATOM     17  C   UNL     1      -7.258   1.882   0.047  0.00  0.00    +0.169 A 
ATOM     18  N   UNL     1      -7.944   0.749   0.039  0.00  0.00    -0.229 NA
ATOM     19  C   UNL     1      -9.250   0.739   0.052  0.00  0.00    +0.062 A 
ATOM     20  C   UNL     1      -9.906   1.963   0.061  0.00  0.00    +0.120 A 
ATOM     21  S   UNL     1      -8.513   3.082   0.060  0.00  0.00    -0.045 S 
ATOM     22  C   UNL     1     -10.020  -0.557   0.049  0.00  0.00    +0.067 C 
ENDROOT
BRANCH  16  23
ATOM     23  C   UNL     1      -5.552   4.146  -1.185  0.00  0.00    -0.019 A 
ATOM     24  C   UNL     1      -5.706   3.503  -2.400  0.00  0.00    +0.006 A 
ATOM     25  C   UNL     1      -6.039   4.226  -3.530  0.00  0.00    +0.004 A 
ATOM     26  C   UNL     1      -6.220   5.594  -3.448  0.00  0.00    +0.045 A 
ATOM     27  C   UNL     1      -6.066   6.241  -2.231  0.00  0.00    +0.117 A 
ATOM     28  C   UNL     1      -5.737   5.512  -1.097  0.00  0.00    +0.051 A 
BRANCH  27  29
ATOM     29  O   UNL     1      -6.244   7.585  -2.148  0.00  0.00    -0.507 OA
ATOM     30  H   UNL     1      -7.152   7.851  -1.950  0.00  0.00    +0.292 HD
ENDBRANCH  27  29
ENDBRANCH  16  23
BRANCH  20  31
ATOM     31  C   UNL     1     -11.338   2.255   0.069  0.00  0.00    +0.348 C 
ATOM     32  O   UNL     1     -12.145   1.344   0.069  0.00  0.00    -0.244 OA
BRANCH  31  33
ATOM     33  O   UNL     1     -11.766   3.535   0.078  0.00  0.00    -0.457 OA
BRANCH  33  34
ATOM     34  C   UNL     1     -13.179   3.747   0.085  0.00  0.00    +0.259 C 
BRANCH  34  35
ATOM     35  C   UNL     1     -13.466   5.226   0.094  0.00  0.00    +0.006 C 
ATOM     36  C   UNL     1     -14.381   5.721  -0.701  0.00  0.00    +0.007 C 
ENDBRANCH  34  35
ENDBRANCH  33  34
ENDBRANCH  31  33
ENDBRANCH  20  31
TORSDOF 6
