REMARK  Name = ZINC58365724
REMARK  4 active torsions:
REMARK  status: ('A' for Active; 'I' for Inactive)
REMARK    1  A    between atoms: C_1  and  C_2
REMARK    2  A    between atoms: C_5  and  C_7
REMARK    3  A    between atoms: C_7  and  N_9
REMARK    4  A    between atoms: N_18  and  C_19
REMARK                            x       y       z     vdW  Elec       q    Type
REMARK                         _______ _______ _______ _____ _____    ______ ____
ROOT
ATOM      1  N   UNL     1       2.986  -3.020  -0.048  0.00  0.00    -0.139 NA
ATOM      2  C   UNL     1       3.812  -4.053   0.051  0.00  0.00    +0.206 A 
ATOM      3  N   UNL     1       3.442  -5.363   0.054  0.00  0.00    -0.325 N 
ATOM      4  C   UNL     1       4.589  -6.141   0.174  0.00  0.00    +0.066 A 
ATOM      5  C   UNL     1       4.800  -7.512   0.228  0.00  0.00    +0.028 A 
ATOM      6  C   UNL     1       6.084  -8.005   0.352  0.00  0.00    +0.002 A 
ATOM      7  C   UNL     1       7.161  -7.139   0.423  0.00  0.00    +0.002 A 
ATOM      8  C   UNL     1       6.962  -5.774   0.370  0.00  0.00    +0.028 A 
ATOM      9  C   UNL     1       5.676  -5.268   0.245  0.00  0.00    +0.073 A 
ATOM     10  N   UNL     1       5.169  -3.973   0.161  0.00  0.00    -0.280 N 
ATOM     11  H   UNL     1       2.533  -5.697  -0.016  0.00  0.00    +0.169 HD
ENDROOT
BRANCH  10  12
ATOM     12  C   UNL     1       5.922  -2.793   0.188  0.00  0.00    +0.050 A 
ATOM     13  C   UNL     1       5.792  -1.908   1.250  0.00  0.00    +0.026 A 
ATOM     14  C   UNL     1       6.536  -0.745   1.274  0.00  0.00    +0.002 A 
ATOM     15  C   UNL     1       7.411  -0.462   0.241  0.00  0.00    +0.000 A 
ATOM     16  C   UNL     1       7.543  -1.341  -0.818  0.00  0.00    +0.002 A 
ATOM     17  C   UNL     1       6.806  -2.508  -0.845  0.00  0.00    +0.026 A 
ENDBRANCH  10  12
BRANCH   1  18
ATOM     18  C   UNL     1       1.660  -3.218  -0.034  0.00  0.00    +0.305 C 
ATOM     19  O   UNL     1       1.213  -4.353  -0.027  0.00  0.00    -0.265 OA
BRANCH  18  24
ATOM     20  C   UNL     1      -0.012   1.506  -0.025  0.00  0.00    +0.086 C 
ATOM     21  C   UNL     1       0.007  -0.001  -0.022  0.00  0.00    +0.103 A 
ATOM     22  C   UNL     1      -1.081  -0.801  -0.009  0.00  0.00    +0.045 A 
ATOM     23  C   UNL     1      -0.618  -2.127  -0.012  0.00  0.00    +0.055 A 
ATOM     24  C   UNL     1       0.745  -2.067  -0.026  0.00  0.00    +0.192 A 
ATOM     25  O   UNL     1       1.106  -0.768  -0.037  0.00  0.00    -0.455 OA
ENDBRANCH  18  24
ENDBRANCH   1  18
TORSDOF 3
