REMARK  Name = ZINC38732114
REMARK  5 active torsions:
REMARK  status: ('A' for Active; 'I' for Inactive)
REMARK    1  A    between atoms: C_4  and  C_7
REMARK    2  A    between atoms: C_7  and  N_8
REMARK    3  A    between atoms: C_11  and  N_14
REMARK    4  A    between atoms: C_15  and  C_17
REMARK    5  A    between atoms: C_23  and  C_25
REMARK                            x       y       z     vdW  Elec       q    Type
REMARK                         _______ _______ _______ _____ _____    ______ ____
ROOT
ATOM      1  C   UNL     1       9.595  -2.587   4.186  0.00  0.00    +0.087 C 
ATOM      2  C   UNL     1       8.895  -2.844   5.521  0.00  0.00    +0.013 C 
ATOM      3  C   UNL     1       8.355  -1.525   6.076  0.00  0.00    +0.001 C 
ATOM      4  C   UNL     1       9.514  -0.548   6.288  0.00  0.00    +0.001 C 
ATOM      5  C   UNL     1      10.214  -0.291   4.953  0.00  0.00    +0.013 C 
ATOM      6  C   UNL     1      10.754  -1.610   4.397  0.00  0.00    +0.087 C 
ENDROOT
BRANCH   6   7
ATOM      7  C   UNL     1      11.444  -1.357   3.082  0.00  0.00    +0.219 C 
ATOM      8  O   UNL     1      11.178  -0.364   2.439  0.00  0.00    -0.275 OA
ATOM      9  N   UNL     1      12.358  -2.233   2.620  0.00  0.00    -0.298 N 
ATOM     10  C   UNL     1      12.609  -3.495   3.330  0.00  0.00    +0.126 C 
ATOM     11  C   UNL     1      12.418  -4.657   2.348  0.00  0.00    +0.125 C 
ATOM     12  N   UNL     1      13.181  -4.368   1.125  0.00  0.00    -0.314 N 
ATOM     13  C   UNL     1      12.929  -3.106   0.415  0.00  0.00    +0.125 C 
ATOM     14  C   UNL     1      13.117  -1.947   1.395  0.00  0.00    +0.126 C 
ATOM     15  C   UNL     1      14.123  -5.272   0.649  0.00  0.00    +0.099 A 
ATOM     16  C   UNL     1      14.249  -6.519   1.254  0.00  0.00    +0.042 A 
ATOM     17  C   UNL     1      15.191  -7.409   0.769  0.00  0.00    +0.005 A 
ATOM     18  C   UNL     1      15.978  -7.021  -0.307  0.00  0.00    +0.018 A 
ATOM     19  C   UNL     1      15.799  -5.768  -0.859  0.00  0.00    +0.084 A 
ATOM     20  N   UNL     1      14.889  -4.941  -0.380  0.00  0.00    -0.350 N 
ATOM     21  H   UNL     1      14.780  -4.068  -0.788  0.00  0.00    +0.166 HD
ENDBRANCH   6   7
BRANCH   1  23
ATOM     22  N   UNL     1       7.505  -2.683   2.868  0.00  0.00    -0.314 N 
ATOM     23  C   UNL     1       8.613  -1.995   3.208  0.00  0.00    +0.217 C 
ATOM     24  O   UNL     1       8.818  -0.900   2.729  0.00  0.00    -0.275 OA
ATOM     25  H   UNL     1       7.340  -3.558   3.251  0.00  0.00    +0.149 HD
BRANCH  22  29
ATOM     26  N   UNL     1       4.297  -2.659   1.190  0.00  0.00    +0.384 N 
ATOM     27  C   UNL     1       4.308  -1.269   1.693  0.00  0.00    -0.077 C 
ATOM     28  C   UNL     1       5.523  -1.203   2.651  0.00  0.00    +0.002 C 
ATOM     29  C   UNL     1       6.549  -2.107   1.918  0.00  0.00    +0.055 C 
ATOM     30  C   UNL     1       5.662  -3.207   1.297  0.00  0.00    -0.056 C 
ATOM     31  H   UNL     1       3.664  -3.214   1.746  0.00  0.00    -0.081 HD
BRANCH  26  32
ATOM     32  C   UNL     1       3.867  -2.674  -0.214  0.00  0.00    -0.043 C 
BRANCH  32  36
ATOM     33  C   UNL     1      -0.206  -1.412  -0.471  0.00  0.00    +0.000 A 
ATOM     34  C   UNL     1       0.812  -0.481  -0.550  0.00  0.00    +0.000 A 
ATOM     35  C   UNL     1       2.130  -0.889  -0.467  0.00  0.00    +0.002 A 
ATOM     36  C   UNL     1       2.430  -2.229  -0.304  0.00  0.00    -0.064 A 
ATOM     37  C   UNL     1       1.411  -3.160  -0.223  0.00  0.00    +0.002 A 
ATOM     38  C   UNL     1       0.093  -2.752  -0.308  0.00  0.00    +0.000 A 
ENDBRANCH  32  36
ENDBRANCH  26  32
ENDBRANCH  22  29
ENDBRANCH   1  23
TORSDOF 5
