REMARK  Name = ZINC36855142
REMARK  7 active torsions:
REMARK  status: ('A' for Active; 'I' for Inactive)
REMARK    1  A    between atoms: C_1  and  C_2
REMARK    2  A    between atoms: C_5  and  N_9
REMARK    3  A    between atoms: C_6  and  C_8
REMARK    4  A    between atoms: C_22  and  S_23
REMARK    5  A    between atoms: S_23  and  C_24
REMARK    6  A    between atoms: C_24  and  C_26
REMARK    7  A    between atoms: C_24  and  C_27
REMARK                            x       y       z     vdW  Elec       q    Type
REMARK                         _______ _______ _______ _____ _____    ______ ____
ROOT
ATOM      1  N   UNL     1       0.059  -4.170  -0.021  0.00  0.00    -0.245 N 
ATOM      2  C   UNL     1      -1.105  -4.851  -0.024  0.00  0.00    +0.268 A 
ATOM      3  O   UNL     1      -2.167  -4.258  -0.021  0.00  0.00    -0.267 OA
ATOM      4  C   UNL     1      -1.071  -6.325  -0.033  0.00  0.00    +0.064 A 
ATOM      5  C   UNL     1      -2.245  -7.076  -0.037  0.00  0.00    +0.015 A 
ATOM      6  C   UNL     1      -2.173  -8.453  -0.046  0.00  0.00    +0.001 A 
ATOM      7  C   UNL     1      -0.942  -9.090  -0.050  0.00  0.00    +0.002 A 
ATOM      8  C   UNL     1       0.228  -8.357  -0.046  0.00  0.00    +0.027 A 
ATOM      9  C   UNL     1       0.176  -6.972  -0.037  0.00  0.00    +0.064 A 
ATOM     10  N   UNL     1       1.335  -6.207  -0.034  0.00  0.00    -0.255 N 
ATOM     11  C   UNL     1       1.275  -4.837  -0.031  0.00  0.00    +0.245 A 
ATOM     12  N   UNL     1       2.512  -4.402  -0.034  0.00  0.00    -0.109 NA
ATOM     13  N   UNL     1       3.330  -5.394  -0.044  0.00  0.00    -0.120 NA
ATOM     14  C   UNL     1       2.666  -6.525  -0.036  0.00  0.00    +0.198 A 
ENDROOT
BRANCH   1  19
ATOM     15  C   UNL     1      -0.018   1.503   0.010  0.00  0.00    +0.044 C 
ATOM     16  C   UNL     1       0.002  -0.004   0.002  0.00  0.00    -0.050 A 
ATOM     17  C   UNL     1       0.006  -0.688  -1.200  0.00  0.00    +0.005 A 
ATOM     18  C   UNL     1       0.025  -2.068  -1.212  0.00  0.00    +0.027 A 
ATOM     19  C   UNL     1       0.041  -2.771  -0.013  0.00  0.00    +0.056 A 
ATOM     20  C   UNL     1       0.037  -2.082   1.192  0.00  0.00    -0.026 A 
ATOM     21  C   UNL     1       0.023  -0.700   1.196  0.00  0.00    +0.008 A 
ATOM     22  C   UNL     1       0.053  -2.840   2.495  0.00  0.00    +0.046 C 
ENDBRANCH   1  19
BRANCH  14  23
ATOM     23  S   UNL     1       3.357  -8.146  -0.046  0.00  0.00    -0.075 S 
BRANCH  23  24
ATOM     24  C   UNL     1       5.148  -7.860  -0.046  0.00  0.00    +0.117 C 
ATOM     25  C   UNL     1       5.556  -7.186   1.265  0.00  0.00    +0.027 C 
BRANCH  24  26
ATOM     26  C   UNL     1       5.867  -9.178  -0.178  0.00  0.00    +0.124 A 
ATOM     27  N   UNL     1       7.028  -9.211  -0.883  0.00  0.00    -0.309 N 
ATOM     28  H   UNL     1       7.370  -8.396  -1.284  0.00  0.00    +0.170 HD
ATOM     29  C   UNL     1       7.712 -10.369  -1.030  0.00  0.00    +0.259 A 
ATOM     30  O   UNL     1       8.754 -10.413  -1.658  0.00  0.00    -0.267 OA
ATOM     31  C   UNL     1       7.148 -11.573  -0.402  0.00  0.00    +0.065 A 
ATOM     32  C   UNL     1       7.773 -12.815  -0.495  0.00  0.00    +0.015 A 
ATOM     33  C   UNL     1       7.200 -13.911   0.113  0.00  0.00    +0.001 A 
ATOM     34  C   UNL     1       6.008 -13.786   0.814  0.00  0.00    +0.002 A 
ATOM     35  C   UNL     1       5.374 -12.568   0.917  0.00  0.00    +0.028 A 
ATOM     36  C   UNL     1       5.935 -11.443   0.310  0.00  0.00    +0.078 A 
ATOM     37  N   UNL     1       5.348 -10.223   0.391  0.00  0.00    -0.233 NA
ENDBRANCH  24  26
ENDBRANCH  23  24
ENDBRANCH  14  23
TORSDOF 4
