REMARK  Name = ZINC09366007
REMARK  6 active torsions:
REMARK  status: ('A' for Active; 'I' for Inactive)
REMARK    1  A    between atoms: C_1  and  C_2
REMARK    2  A    between atoms: C_3  and  C_27
REMARK    3  A    between atoms: N_9  and  C_12
REMARK    4  A    between atoms: C_12  and  C_13
REMARK    5  A    between atoms: N_15  and  C_16
REMARK    6  A    between atoms: C_17  and  C_24
REMARK                            x       y       z     vdW  Elec       q    Type
REMARK                         _______ _______ _______ _____ _____    ______ ____
ROOT
ATOM      1  C   UNL     1       3.231   4.249  -4.533  0.00  0.00    +0.222 C 
ENDROOT
BRANCH   1  10
ATOM      2  C   UNL     1       0.104   3.695   2.353  0.00  0.00    +0.052 C 
ATOM      3  C   UNL     1       0.681   4.249   1.075  0.00  0.00    -0.003 A 
ATOM      4  C   UNL     1       1.169   3.569   0.010  0.00  0.00    +0.007 A 
ATOM      5  C   UNL     1       1.687   4.322  -1.126  0.00  0.00    +0.080 A 
ATOM      6  C   UNL     1       1.613   5.719  -0.997  0.00  0.00    +0.116 A 
ATOM      7  S   UNL     1       0.884   5.956   0.604  0.00  0.00    -0.073 S 
ATOM      8  N   UNL     1       2.042   6.537  -1.954  0.00  0.00    -0.230 NA
ATOM      9  C   UNL     1       2.549   6.068  -3.062  0.00  0.00    +0.203 A 
ATOM     10  N   UNL     1       2.655   4.732  -3.276  0.00  0.00    -0.290 N 
ATOM     11  C   UNL     1       2.242   3.842  -2.354  0.00  0.00    +0.263 A 
ATOM     12  O   UNL     1       2.344   2.645  -2.561  0.00  0.00    -0.267 OA
BRANCH   4  13
ATOM     13  C   UNL     1       1.183   2.087   0.002  0.00  0.00    -0.016 A 
ATOM     14  C   UNL     1      -0.017   1.376   0.010  0.00  0.00    +0.008 A 
ATOM     15  C   UNL     1       0.002  -0.004   0.002  0.00  0.00    +0.001 A 
ATOM     16  C   UNL     1       1.208  -0.682  -0.014  0.00  0.00    +0.000 A 
ATOM     17  C   UNL     1       2.401   0.018  -0.021  0.00  0.00    +0.001 A 
ATOM     18  C   UNL     1       2.395   1.398  -0.013  0.00  0.00    +0.008 A 
ENDBRANCH   4  13
ENDBRANCH   1  10
BRANCH   1  19
ATOM     19  C   UNL     1       4.721   4.091  -4.376  0.00  0.00    +0.237 C 
ATOM     20  O   UNL     1       5.251   4.357  -3.318  0.00  0.00    -0.273 OA
ATOM     21  N   UNL     1       5.466   3.656  -5.412  0.00  0.00    -0.278 N 
ATOM     22  H   UNL     1       5.042   3.444  -6.258  0.00  0.00    +0.155 HD
BRANCH  21  23
ATOM     23  C   UNL     1       6.837   3.511  -5.267  0.00  0.00    +0.084 A 
ATOM     24  C   UNL     1       7.760   3.077  -6.203  0.00  0.00    +0.068 A 
ATOM     25  C   UNL     1       9.163   3.018  -5.794  0.00  0.00    -0.023 A 
ATOM     26  C   UNL     1       9.404   3.392  -4.524  0.00  0.00    -0.004 A 
ATOM     27  S   UNL     1       7.810   3.823  -3.870  0.00  0.00    -0.077 S 
ATOM     28  C   UNL     1      10.866   3.302  -4.178  0.00  0.00    +0.043 C 
ATOM     29  C   UNL     1      11.585   3.229  -5.543  0.00  0.00    +0.010 C 
ATOM     30  C   UNL     1      10.490   2.623  -6.443  0.00  0.00    +0.037 C 
BRANCH  24  31
ATOM     31  C   UNL     1       7.346   2.693  -7.556  0.00  0.00    +0.244 C 
ATOM     32  O   UNL     1       7.314   3.527  -8.442  0.00  0.00    -0.270 OA
ATOM     33  N   UNL     1       7.002   1.417  -7.819  0.00  0.00    -0.325 N 
ATOM     34  H   UNL     1       7.027   0.752  -7.114  0.00  0.00    +0.145 HD
ATOM     35  H   UNL     1       6.728   1.163  -8.715  0.00  0.00    +0.145 HD
ENDBRANCH  24  31
ENDBRANCH  21  23
ENDBRANCH   1  19
TORSDOF 5
