REMARK  Name = ZINC22838601
REMARK  7 active torsions:
REMARK  status: ('A' for Active; 'I' for Inactive)
REMARK    1  A    between atoms: C_1  and  C_2
REMARK    2  A    between atoms: C_11  and  N_29
REMARK    3  A    between atoms: C_13  and  S_15
REMARK    4  A    between atoms: S_15  and  C_16
REMARK    5  A    between atoms: C_16  and  C_17
REMARK    6  A    between atoms: N_19  and  C_20
REMARK    7  A    between atoms: N_19  and  C_21
REMARK                            x       y       z     vdW  Elec       q    Type
REMARK                         _______ _______ _______ _____ _____    ______ ____
ROOT
ATOM      1  C   UNL     1     -10.880   6.295  -2.161  0.00  0.00    +0.008 C 
ATOM      2  C   UNL     1      -9.518   5.623  -1.980  0.00  0.00    -0.009 C 
ATOM      3  C   UNL     1      -8.730   6.346  -0.883  0.00  0.00    +0.008 C 
ATOM      4  C   UNL     1      -7.286   5.844  -0.864  0.00  0.00    +0.037 C 
ATOM      5  C   UNL     1      -7.295   4.320  -0.775  0.00  0.00    -0.025 A 
ATOM      6  C   UNL     1      -8.399   3.618  -1.095  0.00  0.00    -0.004 A 
ATOM      7  S   UNL     1      -7.956   1.919  -0.847  0.00  0.00    -0.073 S 
ATOM      8  C   UNL     1      -6.281   2.155  -0.313  0.00  0.00    +0.115 A 
ATOM      9  C   UNL     1      -6.122   3.555  -0.344  0.00  0.00    +0.051 A 
ATOM     10  C   UNL     1      -4.841   4.036   0.047  0.00  0.00    +0.129 A 
ATOM     11  N   UNL     1      -3.909   3.171   0.409  0.00  0.00    -0.207 NA
ATOM     12  C   UNL     1      -4.124   1.861   0.410  0.00  0.00    +0.191 A 
ATOM     13  N   UNL     1      -5.299   1.356   0.056  0.00  0.00    -0.214 NA
ATOM     14  C   UNL     1      -9.717   4.160  -1.560  0.00  0.00    +0.046 C 
ENDROOT
BRANCH  10  15
ATOM     15  N   UNL     1      -4.576   5.394   0.053  0.00  0.00    -0.343 N 
ATOM     16  H   UNL     1      -3.584   5.759   0.357  0.00  0.00    +0.144 HD
ATOM     17  H   UNL     1      -5.357   6.108  -0.245  0.00  0.00    +0.144 HD
ENDBRANCH  10  15
BRANCH  12  18
ATOM     18  S   UNL     1      -2.827   0.772   0.899  0.00  0.00    -0.077 S 
BRANCH  18  19
ATOM     19  C   UNL     1      -1.523   1.976   1.253  0.00  0.00    +0.173 C 
BRANCH  19  20
ATOM     20  C   UNL     1      -0.280   1.252   1.702  0.00  0.00    +0.226 C 
ATOM     21  O   UNL     1      -0.276   0.042   1.776  0.00  0.00    -0.275 OA
ATOM     22  N   UNL     1       0.829   1.950   2.018  0.00  0.00    -0.299 N 
ATOM     23  C   UNL     1       0.825   3.412   1.929  0.00  0.00    +0.132 C 
BRANCH  22  24
ATOM     24  C   UNL     1       2.039   1.246   2.449  0.00  0.00    +0.098 C 
ATOM     25  C   UNL     1       3.194   1.558   1.482  0.00  0.00    +0.046 C 
ATOM     26  C   UNL     1       4.536   1.090   2.094  0.00  0.00    +0.168 C 
ATOM     27  S   UNL     1       4.219   1.209   3.902  0.00  0.00    -0.029 S 
ATOM     28  O   UNL     1       4.307  -0.089   4.473  0.00  0.00    -0.174 OA
ATOM     29  O   UNL     1       5.003   2.265   4.440  0.00  0.00    -0.174 OA
ATOM     30  C   UNL     1       2.452   1.731   3.868  0.00  0.00    +0.188 C 
ENDBRANCH  22  24
ENDBRANCH  19  20
ENDBRANCH  18  19
ENDBRANCH  12  18
TORSDOF 5
