REMARK  Name = ZINC40733018
REMARK  9 active torsions:
REMARK  status: ('A' for Active; 'I' for Inactive)
REMARK    1  A    between atoms: C_1  and  C_2
REMARK    2  A    between atoms: C_2  and  C_3
REMARK    3  A    between atoms: C_4  and  C_22
REMARK    4  A    between atoms: N_6  and  C_9
REMARK    5  A    between atoms: C_7  and  C_8
REMARK    6  A    between atoms: C_12  and  C_18
REMARK    7  A    between atoms: C_14  and  N_15
REMARK    8  A    between atoms: C_18  and  C_20
REMARK    9  A    between atoms: C_18  and  O_21
REMARK                            x       y       z     vdW  Elec       q    Type
REMARK                         _______ _______ _______ _____ _____    ______ ____
ROOT
ATOM      1  C   UNL     1      -4.551  -1.626  -1.303  0.00  0.00    +0.096 A 
ATOM      2  C   UNL     1      -4.556  -1.527  -2.688  0.00  0.00    +0.030 A 
ATOM      3  C   UNL     1      -5.685  -1.882  -3.401  0.00  0.00    +0.008 A 
ATOM      4  C   UNL     1      -6.810  -2.334  -2.735  0.00  0.00    -0.017 A 
ATOM      5  C   UNL     1      -6.808  -2.434  -1.357  0.00  0.00    +0.041 A 
ATOM      6  C   UNL     1      -5.680  -2.086  -0.639  0.00  0.00    +0.152 A 
ENDROOT
BRANCH   1  10
ATOM      7  C   UNL     1      -1.740  -0.118   0.245  0.00  0.00    -0.004 A 
ATOM      8  C   UNL     1      -1.681  -1.413   0.772  0.00  0.00    +0.064 A 
ATOM      9  N   UNL     1      -2.679  -2.102   0.280  0.00  0.00    -0.171 NA
ATOM     10  N   UNL     1      -3.407  -1.267  -0.578  0.00  0.00    -0.234 N 
ATOM     11  C   UNL     1      -2.813  -0.052  -0.577  0.00  0.00    +0.045 A 
ATOM     12  C   UNL     1      -3.264   1.158  -1.355  0.00  0.00    +0.066 C 
ATOM     13  C   UNL     1      -0.646  -1.926   1.740  0.00  0.00    +0.068 C 
BRANCH   7  15
ATOM     14  C   UNL     1      -1.284   1.794   1.757  0.00  0.00    +0.009 C 
ATOM     15  C   UNL     1      -0.783   1.006   0.545  0.00  0.00    +0.035 C 
ENDBRANCH   7  15
ENDBRANCH   1  10
BRANCH   6  16
ATOM     16  N   UNL     1      -5.676  -2.199   0.837  0.00  0.00    +0.059 N 
ATOM     17  O   UNL     1      -6.618  -2.699   1.407  0.00  0.00    -0.126 OA
ATOM     18  O   UNL     1      -4.732  -1.791   1.472  0.00  0.00    -0.126 OA
ENDBRANCH   6  16
BRANCH   4  19
ATOM     19  C   UNL     1      -8.041  -2.720  -3.515  0.00  0.00    +0.141 C 
ATOM     20  C   UNL     1      -8.819  -1.458  -3.896  0.00  0.00    +0.043 C 
BRANCH  19  21
ATOM     21  O   UNL     1      -7.654  -3.416  -4.702  0.00  0.00    -0.387 OA
ATOM     22  H   UNL     1      -7.090  -2.901  -5.294  0.00  0.00    +0.210 HD
ENDBRANCH  19  21
ENDBRANCH   4  19
TORSDOF 5
