REMARK  Name = ZINC24717379
REMARK  14 active torsions:
REMARK  status: ('A' for Active; 'I' for Inactive)
REMARK    1  A    between atoms: C_1  and  C_2
REMARK    2  A    between atoms: C_2  and  C_3
REMARK    3  A    between atoms: C_2  and  C_4
REMARK    4  A    between atoms: C_4  and  N_5
REMARK    5  A    between atoms: C_6  and  C_8
REMARK    6  A    between atoms: C_8  and  N_9
REMARK    7  A    between atoms: N_12  and  C_15
REMARK    8  A    between atoms: C_18  and  S_24
REMARK    9  A    between atoms: C_20  and  N_21
REMARK   10  A    between atoms: S_24  and  N_27
REMARK   11  A    between atoms: N_27  and  C_28
REMARK   12  A    between atoms: C_28  and  C_29
REMARK   13  A    between atoms: C_28  and  C_30
REMARK   14  A    between atoms: C_28  and  C_31
REMARK                            x       y       z     vdW  Elec       q    Type
REMARK                         _______ _______ _______ _____ _____    ______ ____
ROOT
ATOM      1  C   UNL     1       1.438   1.983  -1.738  0.00  0.00    +0.060 A 
ATOM      2  C   UNL     1       0.378   1.102  -1.912  0.00  0.00    +0.027 A 
ATOM      3  C   UNL     1      -0.891   1.463  -1.508  0.00  0.00    +0.030 A 
ATOM      4  C   UNL     1      -1.107   2.696  -0.920  0.00  0.00    +0.108 A 
ATOM      5  C   UNL     1      -0.054   3.576  -0.745  0.00  0.00    +0.063 A 
ATOM      6  C   UNL     1       1.218   3.223  -1.153  0.00  0.00    +0.149 A 
ENDROOT
BRANCH   1  10
ATOM      7  N   UNL     1       4.670  -0.086  -3.332  0.00  0.00    +0.387 N 
ATOM      8  C   UNL     1       4.619   0.099  -1.875  0.00  0.00    -0.059 C 
ATOM      9  C   UNL     1       3.181   0.414  -1.454  0.00  0.00    +0.086 C 
ATOM     10  N   UNL     1       2.723   1.623  -2.152  0.00  0.00    -0.332 N 
ATOM     11  C   UNL     1       2.774   1.438  -3.609  0.00  0.00    +0.086 C 
ATOM     12  C   UNL     1       4.212   1.123  -4.030  0.00  0.00    -0.059 C 
ATOM     13  H   UNL     1       3.989  -0.909  -3.594  0.00  0.00    -0.081 HD
BRANCH   7  14
ATOM     14  C   UNL     1       6.021  -0.465  -3.767  0.00  0.00    +0.019 C 
BRANCH  14  16
ATOM     15  N   UNL     1       7.578  -2.357  -3.431  0.00  0.00    -0.317 N 
ATOM     16  C   UNL     1       6.340  -1.850  -3.267  0.00  0.00    +0.196 C 
ATOM     17  O   UNL     1       5.483  -2.508  -2.716  0.00  0.00    -0.278 OA
ATOM     18  H   UNL     1       8.356  -1.760  -3.930  0.00  0.00    +0.149 HD
BRANCH  15  19
ATOM     19  C   UNL     1       7.888  -3.704  -2.945  0.00  0.00    +0.107 C 
BRANCH  19  21
ATOM     20  C   UNL     1      10.264  -3.097  -2.462  0.00  0.00    +0.009 C 
ATOM     21  C   UNL     1       9.350  -4.034  -3.255  0.00  0.00    -0.000 C 
ATOM     22  C   UNL     1       9.640  -5.483  -2.860  0.00  0.00    +0.009 C 
ENDBRANCH  19  21
ENDBRANCH  15  19
ENDBRANCH  14  16
ENDBRANCH   7  14
ENDBRANCH   1  10
BRANCH   6  23
ATOM     23  N   UNL     1       2.344   4.165  -0.965  0.00  0.00    +0.058 N 
ATOM     24  O   UNL     1       2.150   5.252  -0.451  0.00  0.00    -0.126 OA
ATOM     25  O   UNL     1       3.465   3.853  -1.324  0.00  0.00    -0.126 OA
ENDBRANCH   6  23
BRANCH   4  26
ATOM     26  S   UNL     1      -2.727   3.151  -0.398  0.00  0.00    +0.059 S 
ATOM     27  O   UNL     1      -3.332   1.974   0.119  0.00  0.00    -0.153 OA
ATOM     28  O   UNL     1      -2.589   4.338   0.371  0.00  0.00    -0.153 OA
BRANCH  26  29
ATOM     29  N   UNL     1      -3.581   3.564  -1.756  0.00  0.00    -0.185 NA
ATOM     30  H   UNL     1      -4.513   3.028  -1.988  0.00  0.00    +0.149 HD
BRANCH  29  31
ATOM     31  C   UNL     1      -3.218   4.765  -2.512  0.00  0.00    +0.032 C 
ATOM     32  C   UNL     1      -1.724   4.728  -2.842  0.00  0.00    +0.029 C 
ATOM     33  C   UNL     1      -4.026   4.814  -3.811  0.00  0.00    +0.029 C 
ATOM     34  C   UNL     1      -3.525   6.007  -1.674  0.00  0.00    +0.029 C 
ENDBRANCH  29  31
ENDBRANCH  26  29
ENDBRANCH   4  26
TORSDOF 9
