REMARK  Name = ZINC41512887
REMARK  6 active torsions:
REMARK  status: ('A' for Active; 'I' for Inactive)
REMARK    1  A    between atoms: C_1  and  C_2
REMARK    2  A    between atoms: C_4  and  O_32
REMARK    3  A    between atoms: C_5  and  C_24
REMARK    4  A    between atoms: C_11  and  C_12
REMARK    5  A    between atoms: C_24  and  N_25
REMARK    6  A    between atoms: C_28  and  C_31
REMARK                            x       y       z     vdW  Elec       q    Type
REMARK                         _______ _______ _______ _____ _____    ______ ____
ROOT
ATOM      1  C   UNL     1      -0.658   1.599   0.133  0.00  0.00    +0.045 C 
ATOM      2  C   UNL     1      -0.761   0.096   0.112  0.00  0.00    -0.033 A 
ATOM      3  C   UNL     1      -1.037  -0.555  -1.057  0.00  0.00    +0.050 A 
ATOM      4  C   UNL     1      -1.133  -1.944  -1.079  0.00  0.00    +0.122 A 
ATOM      5  C   UNL     1      -0.949  -2.681   0.080  0.00  0.00    +0.020 A 
ATOM      6  C   UNL     1      -0.667  -2.035   1.277  0.00  0.00    +0.145 A 
ATOM      7  C   UNL     1      -0.568  -0.634   1.285  0.00  0.00    +0.071 A 
ATOM      8  C   UNL     1      -0.259  -0.248   2.674  0.00  0.00    +0.232 C 
ATOM      9  O   UNL     1      -0.095   0.876   3.117  0.00  0.00    -0.283 OA
ATOM     10  C   UNL     1      -0.193  -1.521   3.405  0.00  0.00    +0.176 C 
ATOM     11  C   UNL     1       0.068  -1.674   4.729  0.00  0.00    +0.061 C 
ATOM     12  O   UNL     1      -0.450  -2.514   2.521  0.00  0.00    -0.451 OA
ENDROOT
BRANCH  11  13
ATOM     13  C   UNL     1      -0.019  -3.002   5.345  0.00  0.00    +0.022 A 
ATOM     14  C   UNL     1      -0.011  -4.152   4.546  0.00  0.00    +0.031 A 
ATOM     15  C   UNL     1      -0.095  -5.396   5.133  0.00  0.00    +0.042 A 
ATOM     16  C   UNL     1      -0.189  -5.513   6.512  0.00  0.00    +0.029 A 
ATOM     17  C   UNL     1      -0.198  -4.387   7.313  0.00  0.00    +0.022 A 
ATOM     18  C   UNL     1      -0.105  -3.129   6.742  0.00  0.00    +0.136 A 
ATOM     19  O   UNL     1      -0.096  -2.015   7.519  0.00  0.00    -0.465 OA
ATOM     20  C   UNL     1      -0.543  -2.165   8.870  0.00  0.00    +0.395 C 
ATOM     21  O   UNL     1       0.098  -3.314   9.438  0.00  0.00    -0.339 OA
ATOM     22  C   UNL     1      -0.305  -4.539   8.810  0.00  0.00    +0.202 C 
ATOM     23 CL   UNL     1      -0.084  -6.822   4.143  0.00  0.00    -0.084 Cl
ENDBRANCH  11  13
BRANCH   4  24
ATOM     24  O   UNL     1      -1.408  -2.581  -2.246  0.00  0.00    -0.506 OA
ATOM     25  H   UNL     1      -0.623  -2.822  -2.757  0.00  0.00    +0.292 HD
ENDBRANCH   4  24
BRANCH   5  26
ATOM     26  C   UNL     1      -1.056  -4.184   0.041  0.00  0.00    -0.036 C 
BRANCH  26  27
ATOM     27  N   UNL     1       0.265  -4.761  -0.243  0.00  0.00    +0.383 N 
ATOM     28  C   UNL     1       0.694  -4.359  -1.587  0.00  0.00    -0.078 C 
ATOM     29  C   UNL     1       2.104  -4.891  -1.857  0.00  0.00    -0.016 C 
ATOM     30  C   UNL     1       2.095  -6.419  -1.758  0.00  0.00    -0.018 C 
ATOM     31  C   UNL     1       1.575  -6.828  -0.376  0.00  0.00    -0.016 C 
ATOM     32  C   UNL     1       0.185  -6.225  -0.162  0.00  0.00    -0.078 C 
ATOM     33  C   UNL     1       3.516  -6.952  -1.948  0.00  0.00    +0.007 C 
ATOM     34  H   UNL     1       0.931  -4.424   0.436  0.00  0.00    -0.081 HD
ENDBRANCH  26  27
ENDBRANCH   5  26
TORSDOF 4
