REMARK  Name = ZINC01091909
REMARK  6 active torsions:
REMARK  status: ('A' for Active; 'I' for Inactive)
REMARK    1  A    between atoms: C_6  and  C_7
REMARK    2  A    between atoms: C_7  and  N_8
REMARK    3  A    between atoms: C_10  and  N_25
REMARK    4  A    between atoms: C_11  and  C_13
REMARK    5  A    between atoms: N_15  and  N_16
REMARK    6  A    between atoms: C_17  and  C_18
REMARK                            x       y       z     vdW  Elec       q    Type
REMARK                         _______ _______ _______ _____ _____    ______ ____
ROOT
ATOM      1  N   UNL     1       1.356   2.010  -0.000  0.00  0.00    -0.264 N 
ATOM      2  C   UNL     1       1.852   2.878  -0.908  0.00  0.00    +0.142 A 
ATOM      3  C   UNL     1       3.147   3.103  -0.582  0.00  0.00    +0.176 A 
ATOM      4  C   UNL     1       3.389   2.317   0.570  0.00  0.00    +0.179 A 
ATOM      5  N   UNL     1       2.261   1.697   0.856  0.00  0.00    -0.164 NA
ENDROOT
BRANCH   4   6
ATOM      6  C   UNL     1       4.660   2.216   1.313  0.00  0.00    +0.286 C 
ATOM      7  O   UNL     1       5.632   2.848   0.945  0.00  0.00    -0.267 OA
ATOM      8  N   UNL     1       4.745   1.424   2.400  0.00  0.00    -0.202 N 
ATOM      9  H   UNL     1       3.970   0.919   2.694  0.00  0.00    +0.178 HD
BRANCH   8  10
ATOM     10  N   UNL     1       5.951   1.328   3.106  0.00  0.00    -0.187 NA
ATOM     11  C   UNL     1       6.032   0.564   4.152  0.00  0.00    +0.138 C 
BRANCH  11  12
ATOM     12  C   UNL     1       7.303   0.463   4.894  0.00  0.00    -0.005 A 
ATOM     13  C   UNL     1       8.422   1.184   4.471  0.00  0.00    +0.010 A 
ATOM     14  C   UNL     1       9.605   1.089   5.173  0.00  0.00    +0.016 A 
ATOM     15  C   UNL     1       9.688   0.274   6.289  0.00  0.00    +0.018 A 
ATOM     16  C   UNL     1       8.584  -0.447   6.711  0.00  0.00    +0.016 A 
ATOM     17  C   UNL     1       7.393  -0.357   6.021  0.00  0.00    +0.010 A 
ATOM     18 BR   UNL     1      11.317   0.144   7.240  0.00  0.00    -0.050 Br
ENDBRANCH  11  12
ENDBRANCH   8  10
ENDBRANCH   4   6
BRANCH   3  19
ATOM     19  N   UNL     1       4.107   3.983  -1.284  0.00  0.00    +0.060 N 
ATOM     20  O   UNL     1       3.755   4.604  -2.271  0.00  0.00    -0.126 OA
ATOM     21  O   UNL     1       5.249   4.088  -0.874  0.00  0.00    -0.126 OA
ENDBRANCH   3  19
BRANCH   1  22
ATOM     22  C   UNL     1      -0.018   1.503   0.010  0.00  0.00    +0.178 C 
BRANCH  22  28
ATOM     23  C   UNL     1      -0.006  -0.689  -1.199  0.00  0.00    +0.006 A 
ATOM     24  C   UNL     1       0.018  -2.071  -1.207  0.00  0.00    +0.015 A 
ATOM     25  C   UNL     1       0.039  -2.769  -0.013  0.00  0.00    +0.018 A 
ATOM     26  C   UNL     1       0.041  -2.083   1.188  0.00  0.00    +0.015 A 
ATOM     27  C   UNL     1       0.023  -0.701   1.196  0.00  0.00    +0.006 A 
ATOM     28  C   UNL     1       0.002  -0.004   0.002  0.00  0.00    -0.026 A 
ATOM     29 BR   UNL     1       0.064  -4.660  -0.024  0.00  0.00    -0.050 Br
ENDBRANCH  22  28
ENDBRANCH   1  22
TORSDOF 6
