REMARK  Name = ZINC08326114
REMARK  7 active torsions:
REMARK  status: ('A' for Active; 'I' for Inactive)
REMARK    1  A    between atoms: C_1  and  C_2
REMARK    2  A    between atoms: C_2  and  C_3
REMARK    3  A    between atoms: C_3  and  C_5
REMARK    4  A    between atoms: C_3  and  S_6
REMARK    5  A    between atoms: S_6  and  C_7
REMARK    6  A    between atoms: C_18  and  C_20
REMARK    7  A    between atoms: C_24  and  O_26
REMARK                            x       y       z     vdW  Elec       q    Type
REMARK                         _______ _______ _______ _____ _____    ______ ____
ROOT
ATOM      1  C   UNL     1       3.154  -0.528   2.698  0.00  0.00    +0.171 A 
ATOM      2  N   UNL     1       4.469  -0.292   2.967  0.00  0.00    -0.302 N 
ATOM      3  H   UNL     1       5.023   0.160   2.312  0.00  0.00    +0.171 HD
ATOM      4  C   UNL     1       5.001  -0.687   4.143  0.00  0.00    +0.258 A 
ATOM      5  O   UNL     1       6.179  -0.482   4.393  0.00  0.00    -0.267 OA
ATOM      6  C   UNL     1       4.178  -1.334   5.071  0.00  0.00    +0.069 A 
ATOM      7  C   UNL     1       2.848  -1.546   4.751  0.00  0.00    +0.135 A 
ATOM      8  N   UNL     1       2.374  -1.132   3.571  0.00  0.00    -0.208 NA
ATOM      9  N   UNL     1       2.018  -2.176   5.657  0.00  0.00    -0.302 N 
ATOM     10  C   UNL     1       2.356  -2.247   6.981  0.00  0.00    +0.017 C 
ATOM     11  C   UNL     1       3.632  -2.064   7.382  0.00  0.00    +0.024 C 
ATOM     12  C   UNL     1       4.732  -1.791   6.388  0.00  0.00    +0.092 C 
ATOM     13  C   UNL     1       3.978  -2.121   8.744  0.00  0.00    +0.162 C 
ATOM     14  O   UNL     1       5.137  -1.960   9.071  0.00  0.00    -0.292 OA
ATOM     15  C   UNL     1       2.942  -2.375   9.803  0.00  0.00    +0.080 C 
ATOM     16  C   UNL     1       1.587  -1.857   9.311  0.00  0.00    +0.014 C 
ATOM     17  C   UNL     1       1.263  -2.539   7.980  0.00  0.00    +0.051 C 
ATOM     18  H   UNL     1       1.187  -2.572   5.352  0.00  0.00    +0.153 HD
ENDROOT
BRANCH  12  19
ATOM     19  C   UNL     1       5.529  -3.053   6.176  0.00  0.00    -0.032 A 
ATOM     20  C   UNL     1       4.917  -4.176   5.651  0.00  0.00    +0.005 A 
ATOM     21  C   UNL     1       5.645  -5.335   5.455  0.00  0.00    +0.004 A 
ATOM     22  C   UNL     1       6.986  -5.373   5.785  0.00  0.00    +0.045 A 
ATOM     23  C   UNL     1       7.602  -4.248   6.311  0.00  0.00    +0.117 A 
ATOM     24  C   UNL     1       6.871  -3.084   6.501  0.00  0.00    +0.050 A 
BRANCH  23  25
ATOM     25  O   UNL     1       8.921  -4.283   6.636  0.00  0.00    -0.507 OA
ATOM     26  H   UNL     1       9.511  -4.025   5.914  0.00  0.00    +0.292 HD
ENDBRANCH  23  25
ENDBRANCH  12  19
BRANCH   1  27
ATOM     27  S   UNL     1       2.482  -0.007   1.155  0.00  0.00    -0.085 S 
BRANCH  27  28
ATOM     28  C   UNL     1       0.742  -0.511   1.242  0.00  0.00    +0.051 C 
ATOM     29  C   UNL     1       0.655  -2.037   1.299  0.00  0.00    +0.019 C 
BRANCH  28  31
ATOM     30  C   UNL     1      -0.019   1.526   0.010  0.00  0.00    +0.005 C 
ATOM     31  C   UNL     1       0.002  -0.004   0.002  0.00  0.00    +0.011 C 
ENDBRANCH  28  31
ENDBRANCH  27  28
ENDBRANCH   1  27
TORSDOF 5
