REMARK  Name = ZINC20395663
REMARK  12 active torsions:
REMARK  status: ('A' for Active; 'I' for Inactive)
REMARK    1  A    between atoms: C_1  and  C_2
REMARK    2  A    between atoms: C_5  and  S_30
REMARK    3  A    between atoms: C_7  and  N_8
REMARK    4  A    between atoms: C_9  and  C_11
REMARK    5  A    between atoms: C_11  and  S_12
REMARK    6  A    between atoms: S_12  and  C_13
REMARK    7  A    between atoms: C_14  and  C_28
REMARK    8  A    between atoms: C_21  and  C_24
REMARK    9  A    between atoms: C_24  and  C_25
REMARK   10  A    between atoms: C_24  and  C_26
REMARK   11  A    between atoms: C_24  and  C_27
REMARK   12  A    between atoms: S_30  and  N_33
REMARK                            x       y       z     vdW  Elec       q    Type
REMARK                         _______ _______ _______ _____ _____    ______ ____
ROOT
ATOM      1  C   UNL     1      -0.175  -4.434  -1.721  0.00  0.00    +0.172 C 
ENDROOT
BRANCH   1   3
ATOM      2  N   UNL     1      -1.548  -6.408  -1.143  0.00  0.00    -0.285 N 
ATOM      3  C   UNL     1      -0.575  -5.875  -1.907  0.00  0.00    +0.227 C 
ATOM      4  O   UNL     1      -0.021  -6.554  -2.745  0.00  0.00    -0.275 OA
ATOM      5  H   UNL     1      -1.987  -5.821  -0.323  0.00  0.00    +0.155 HD
BRANCH   2  12
ATOM      6  C   UNL     1      -2.718  -7.859   1.008  0.00  0.00    +0.045 C 
ATOM      7  C   UNL     1      -2.577  -8.452  -0.371  0.00  0.00    -0.029 A 
ATOM      8  C   UNL     1      -3.028  -9.734  -0.621  0.00  0.00    +0.007 A 
ATOM      9  C   UNL     1      -2.894 -10.280  -1.884  0.00  0.00    +0.029 A 
ATOM     10  C   UNL     1      -2.315  -9.544  -2.902  0.00  0.00    +0.107 A 
ATOM     11  C   UNL     1      -1.868  -8.261  -2.659  0.00  0.00    +0.052 A 
ATOM     12  C   UNL     1      -2.000  -7.708  -1.392  0.00  0.00    +0.038 A 
BRANCH  10  13
ATOM     13  S   UNL     1      -2.147 -10.246  -4.509  0.00  0.00    +0.056 S 
ATOM     14  O   UNL     1      -3.137 -11.260  -4.615  0.00  0.00    -0.153 OA
ATOM     15  O   UNL     1      -2.070  -9.158  -5.421  0.00  0.00    -0.153 OA
BRANCH  13  16
ATOM     16  N   UNL     1      -0.679 -11.011  -4.560  0.00  0.00    -0.204 NA
ATOM     17  H   UNL     1      -0.536 -11.464  -5.552  0.00  0.00    +0.144 HD
ATOM     18  H   UNL     1      -0.648 -11.796  -3.790  0.00  0.00    +0.144 HD
ENDBRANCH  13  16
ENDBRANCH  10  13
ENDBRANCH   2  12
ENDBRANCH   1   3
BRANCH   1  19
ATOM     19  S   UNL     1       1.147  -4.019  -2.886  0.00  0.00    -0.095 S 
BRANCH  19  20
ATOM     20  C   UNL     1       1.411  -2.330  -2.461  0.00  0.00    +0.115 A 
ATOM     21  C   UNL     1       2.388  -1.580  -3.140  0.00  0.00    +0.084 A 
ATOM     22  C   UNL     1       2.569  -0.243  -2.781  0.00  0.00    +0.027 A 
ATOM     23  C   UNL     1       1.780   0.293  -1.770  0.00  0.00    -0.025 A 
ATOM     24  C   UNL     1       0.846  -0.503  -1.143  0.00  0.00    +0.046 A 
ATOM     25  N   UNL     1       0.692  -1.771  -1.505  0.00  0.00    -0.244 NA
ATOM     26  C   UNL     1      -0.035   0.011  -0.033  0.00  0.00    +0.056 C 
ATOM     27  C   UNL     1      -0.065   1.538  -0.033  0.00  0.00    +0.010 C 
ATOM     28  C   UNL     1       1.380   2.050  -0.046  0.00  0.00    -0.001 C 
ATOM     29  C   UNL     1       1.988   1.741  -1.413  0.00  0.00    +0.041 C 
BRANCH  28  30
ATOM     30  C   UNL     1       1.394   3.561   0.195  0.00  0.00    -0.035 C 
ATOM     31  C   UNL     1       0.759   3.867   1.553  0.00  0.00    +0.011 C 
ATOM     32  C   UNL     1       2.838   4.067   0.181  0.00  0.00    +0.011 C 
ATOM     33  C   UNL     1       0.598   4.260  -0.909  0.00  0.00    +0.011 C 
ENDBRANCH  28  30
BRANCH  21  34
ATOM     34  C   UNL     1       3.179  -2.174  -4.176  0.00  0.00    +0.102 C 
ATOM     35  N   UNL     1       3.806  -2.644  -4.998  0.00  0.00    -0.191 NA
ENDBRANCH  21  34
ENDBRANCH  19  20
ENDBRANCH   1  19
TORSDOF 8
