REMARK  Name = ZINC06471574
REMARK  7 active torsions:
REMARK  status: ('A' for Active; 'I' for Inactive)
REMARK    1  A    between atoms: C_1  and  C_2
REMARK    2  A    between atoms: C_2  and  C_3
REMARK    3  A    between atoms: C_3  and  C_4
REMARK    4  A    between atoms: N_6  and  N_7
REMARK    5  A    between atoms: N_14  and  C_15
REMARK    6  A    between atoms: C_20  and  C_22
REMARK    7  A    between atoms: C_20  and  C_23
REMARK                            x       y       z     vdW  Elec       q    Type
REMARK                         _______ _______ _______ _____ _____    ______ ____
ROOT
ATOM      1  N   UNL     1       0.123   3.366   2.050  0.00  0.00    -0.234 N 
ATOM      2  C   UNL     1       0.755   4.128   1.103  0.00  0.00    +0.216 A 
ATOM      3  N   UNL     1       0.717   5.441   1.203  0.00  0.00    -0.214 NA
ATOM      4  C   UNL     1       1.315   6.218   0.292  0.00  0.00    +0.084 A 
ATOM      5  C   UNL     1       2.014   5.640  -0.755  0.00  0.00    +0.050 A 
ATOM      6  C   UNL     1       2.051   4.243  -0.855  0.00  0.00    +0.260 A 
ATOM      7  O   UNL     1       2.649   3.700  -1.770  0.00  0.00    -0.267 OA
ATOM      8  N   UNL     1       1.411   3.512   0.082  0.00  0.00    -0.276 N 
ATOM      9  C   UNL     1       2.746   6.502  -1.748  0.00  0.00    +0.007 C 
ATOM     10  C   UNL     1       2.926   5.724  -3.056  0.00  0.00    +0.012 C 
ATOM     11  C   UNL     1       3.672   6.596  -4.068  0.00  0.00    +0.001 C 
ATOM     12  C   UNL     1       5.046   6.966  -3.506  0.00  0.00    +0.000 C 
ATOM     13  C   UNL     1       4.871   7.738  -2.197  0.00  0.00    +0.001 C 
ATOM     14  C   UNL     1       4.123   6.865  -1.187  0.00  0.00    +0.012 C 
ATOM     15  C   UNL     1       1.960   7.781  -2.027  0.00  0.00    +0.047 C 
ATOM     16  C   UNL     1       1.567   8.457  -0.741  0.00  0.00    -0.037 A 
ATOM     17  C   UNL     1       1.236   7.693   0.378  0.00  0.00    +0.004 A 
ATOM     18  C   UNL     1       0.841   8.318   1.558  0.00  0.00    +0.010 A 
ATOM     19  C   UNL     1       0.790   9.697   1.618  0.00  0.00    +0.001 A 
ATOM     20  C   UNL     1       1.132  10.452   0.510  0.00  0.00    +0.000 A 
ATOM     21  C   UNL     1       1.520   9.835  -0.666  0.00  0.00    +0.004 A 
ATOM     22  H   UNL     1       0.209   2.400   2.031  0.00  0.00    +0.173 HD
ENDROOT
BRANCH   8  23
ATOM     23  C   UNL     1       1.418   2.049  -0.002  0.00  0.00    +0.098 C 
ATOM     24  C   UNL     1       2.860   1.538   0.076  0.00  0.00    +0.053 C 
ATOM     25  C   UNL     1       2.864   0.017  -0.092  0.00  0.00    +0.162 C 
ATOM     26  O   UNL     1       2.252  -0.325  -1.337  0.00  0.00    -0.374 OA
ATOM     27  C   UNL     1       0.888   0.086  -1.450  0.00  0.00    +0.066 C 
ATOM     28  C   UNL     1       0.805   1.610  -1.336  0.00  0.00    +0.059 C 
ATOM     29  C   UNL     1       0.332  -0.356  -2.805  0.00  0.00    +0.041 C 
ATOM     30  C   UNL     1       0.069  -0.555  -0.328  0.00  0.00    +0.041 C 
ENDBRANCH   8  23
BRANCH   1  33
ATOM     31  C   UNL     1      -1.267   3.232   3.978  0.00  0.00    +0.229 C 
ATOM     32  O   UNL     1      -1.160   2.025   3.954  0.00  0.00    -0.274 OA
ATOM     33  N   UNL     1      -0.646   3.982   3.046  0.00  0.00    -0.234 N 
ATOM     34  H   UNL     1      -0.731   4.948   3.064  0.00  0.00    +0.173 HD
BRANCH  31  35
ATOM     35  C   UNL     1      -2.094   3.895   5.049  0.00  0.00    +0.097 C 
BRANCH  35  37
ATOM     36  C   UNL     1      -3.524   3.499   7.059  0.00  0.00    +0.004 C 
ATOM     37  C   UNL     1      -2.684   2.826   5.971  0.00  0.00    +0.006 C 
ENDBRANCH  35  37
ENDBRANCH  31  35
ENDBRANCH   1  33
TORSDOF 4
