REMARK  Name = ZINC65397876
REMARK  6 active torsions:
REMARK  status: ('A' for Active; 'I' for Inactive)
REMARK    1  A    between atoms: C_1  and  C_2
REMARK    2  A    between atoms: C_7  and  N_8
REMARK    3  A    between atoms: C_10  and  C_14
REMARK    4  A    between atoms: C_15  and  C_26
REMARK    5  A    between atoms: N_18  and  C_19
REMARK    6  A    between atoms: C_19  and  C_20
REMARK                            x       y       z     vdW  Elec       q    Type
REMARK                         _______ _______ _______ _____ _____    ______ ____
ROOT
ATOM      1  C   UNL     1      -0.474  -0.008   5.960  0.00  0.00    +0.050 A 
ATOM      2  C   UNL     1       0.062  -1.235   6.190  0.00  0.00    +0.067 A 
ATOM      3  N   UNL     1      -0.460  -1.701   7.343  0.00  0.00    -0.346 N 
ATOM      4  C   UNL     1      -1.288  -0.818   7.827  0.00  0.00    +0.174 A 
ATOM      5  N   UNL     1      -1.321   0.251   7.001  0.00  0.00    -0.327 N 
ATOM      6  H   UNL     1      -0.252  -2.558   7.748  0.00  0.00    +0.167 HD
ENDROOT
BRANCH   1   9
ATOM      7  N   UNL     1       1.738   2.135   4.058  0.00  0.00    -0.266 N 
ATOM      8  C   UNL     1       1.287   0.761   4.333  0.00  0.00    +0.135 C 
ATOM      9  C   UNL     1      -0.186   0.894   4.788  0.00  0.00    +0.072 C 
ATOM     10  C   UNL     1      -0.236   2.389   5.208  0.00  0.00    +0.113 C 
ATOM     11  N   UNL     1       0.698   3.010   4.237  0.00  0.00    -0.239 NA
ATOM     12  H   UNL     1       1.029   3.902   4.574  0.00  0.00    +0.144 HD
BRANCH   7  19
ATOM     13  C   UNL     1       2.066   3.621   1.654  0.00  0.00    +0.046 C 
ATOM     14  C   UNL     1       3.239   3.220   2.511  0.00  0.00    -0.028 A 
ATOM     15  C   UNL     1       4.521   3.579   2.140  0.00  0.00    +0.005 A 
ATOM     16  C   UNL     1       5.598   3.211   2.925  0.00  0.00    +0.000 A 
ATOM     17  C   UNL     1       5.396   2.483   4.084  0.00  0.00    +0.002 A 
ATOM     18  C   UNL     1       4.118   2.122   4.461  0.00  0.00    +0.025 A 
ATOM     19  C   UNL     1       3.033   2.495   3.677  0.00  0.00    +0.047 A 
ENDBRANCH   7  19
ENDBRANCH   1   9
BRANCH   2  20
ATOM     20  C   UNL     1       1.044  -1.937   5.328  0.00  0.00    +0.000 A 
ATOM     21  C   UNL     1       0.820  -2.044   3.956  0.00  0.00    +0.010 A 
ATOM     22  C   UNL     1       1.738  -2.698   3.159  0.00  0.00    +0.001 A 
ATOM     23  C   UNL     1       2.878  -3.246   3.718  0.00  0.00    +0.000 A 
ATOM     24  C   UNL     1       3.105  -3.142   5.079  0.00  0.00    +0.001 A 
ATOM     25  C   UNL     1       2.198  -2.486   5.885  0.00  0.00    +0.010 A 
ENDBRANCH   2  20
BRANCH   5  26
ATOM     26  C   UNL     1      -2.122   1.464   7.186  0.00  0.00    +0.200 C 
BRANCH  26  27
ATOM     27  C   UNL     1      -3.416   1.333   6.424  0.00  0.00    +0.170 A 
ATOM     28  H   UNL     1      -5.395   1.556   4.030  0.00  0.00    +0.190 HD
ATOM     29  N   UNL     1      -4.549   0.824   6.905  0.00  0.00    -0.218 NA
ATOM     30  C   UNL     1      -5.478   0.859   5.984  0.00  0.00    +0.216 A 
ATOM     31  N   UNL     1      -4.945   1.402   4.876  0.00  0.00    -0.265 N 
ATOM     32  N   UNL     1      -3.610   1.706   5.186  0.00  0.00    -0.156 NA
ENDBRANCH  26  27
ENDBRANCH   5  26
TORSDOF 5
