REMARK  Name = ZINC16882038
REMARK  8 active torsions:
REMARK  status: ('A' for Active; 'I' for Inactive)
REMARK    1  A    between atoms: C_1  and  C_2
REMARK    2  A    between atoms: C_5  and  C_9
REMARK    3  A    between atoms: C_6  and  C_8
REMARK    4  A    between atoms: C_9  and  C_10
REMARK    5  A    between atoms: C_11  and  C_26
REMARK    6  A    between atoms: C_13  and  C_25
REMARK    7  A    between atoms: N_14  and  C_17
REMARK    8  A    between atoms: C_17  and  C_18
REMARK                            x       y       z     vdW  Elec       q    Type
REMARK                         _______ _______ _______ _____ _____    ______ ____
ROOT
ATOM      1  C   UNL     1       3.121   1.046   1.169  0.00  0.00    +0.042 A 
ATOM      2  C   UNL     1       2.824  -0.026   1.954  0.00  0.00    +0.049 A 
ATOM      3  N   UNL     1       3.207  -0.041   3.233  0.00  0.00    -0.239 NA
ATOM      4  C   UNL     1       3.867   0.955   3.760  0.00  0.00    +0.110 A 
ATOM      5  N   UNL     1       4.192   2.045   3.037  0.00  0.00    -0.292 N 
ATOM      6  C   UNL     1       3.838   2.120   1.736  0.00  0.00    +0.258 A 
ATOM      7  O   UNL     1       4.129   3.098   1.067  0.00  0.00    -0.267 OA
ATOM      8  C   UNL     1       4.274   0.885   5.209  0.00  0.00    +0.086 C 
ATOM      9  C   UNL     1       2.064  -1.194   1.380  0.00  0.00    +0.066 C 
ENDROOT
BRANCH   1  10
ATOM     10  C   UNL     1       2.697   1.083  -0.277  0.00  0.00    +0.077 C 
BRANCH  10  15
ATOM     11  C   UNL     1      -2.385   3.795  -0.729  0.00  0.00    +0.044 C 
ATOM     12  C   UNL     1      -1.059   3.088  -0.611  0.00  0.00    -0.050 A 
ATOM     13  C   UNL     1      -0.521   2.832   0.636  0.00  0.00    +0.003 A 
ATOM     14  C   UNL     1       0.697   2.188   0.744  0.00  0.00    +0.004 A 
ATOM     15  C   UNL     1       1.372   1.790  -0.395  0.00  0.00    -0.040 A 
ATOM     16  C   UNL     1       0.832   2.042  -1.642  0.00  0.00    -0.047 A 
ATOM     17  C   UNL     1      -0.384   2.691  -1.750  0.00  0.00    +0.007 A 
ATOM     18  C   UNL     1       1.568   1.608  -2.884  0.00  0.00    +0.044 C 
ENDBRANCH  10  15
ENDBRANCH   1  10
BRANCH   5  19
ATOM     19  C   UNL     1       4.933   3.144   3.660  0.00  0.00    +0.163 C 
BRANCH  19  20
ATOM     20  C   UNL     1       6.227   3.362   2.918  0.00  0.00    -0.009 A 
ATOM     21  C   UNL     1       6.384   4.476   2.115  0.00  0.00    +0.007 A 
ATOM     22  C   UNL     1       7.570   4.675   1.434  0.00  0.00    +0.000 A 
ATOM     23  C   UNL     1       8.600   3.762   1.556  0.00  0.00    +0.001 A 
ATOM     24  C   UNL     1       8.444   2.648   2.360  0.00  0.00    +0.020 A 
ATOM     25  C   UNL     1       7.259   2.450   3.045  0.00  0.00    +0.046 A 
ATOM     26 CL   UNL     1       7.065   1.055   4.060  0.00  0.00    -0.083 Cl
ENDBRANCH  19  20
ENDBRANCH   5  19
TORSDOF 4
