REMARK  Name = ZINC65265732
REMARK  5 active torsions:
REMARK  status: ('A' for Active; 'I' for Inactive)
REMARK    1  A    between atoms: C_1  and  O_2
REMARK    2  A    between atoms: O_2  and  C_3
REMARK    3  A    between atoms: C_3  and  C_4
REMARK    4  A    between atoms: C_4  and  N_5
REMARK    5  A    between atoms: C_21  and  C_23
REMARK                            x       y       z     vdW  Elec       q    Type
REMARK                         _______ _______ _______ _____ _____    ______ ____
ROOT
ATOM      1  N   UNL     1       1.401  -2.532  -0.162  0.00  0.00    -0.373 N 
ATOM      2  C   UNL     1       1.501  -3.788  -0.450  0.00  0.00    +0.095 C 
ATOM      3  N   UNL     1       0.896  -4.756   0.316  0.00  0.00    -0.303 N 
ATOM      4  C   UNL     1      -0.394  -5.162  -0.010  0.00  0.00    +0.037 A 
ATOM      5  C   UNL     1      -1.349  -5.305   0.987  0.00  0.00    +0.023 A 
ATOM      6  C   UNL     1      -2.626  -5.722   0.670  0.00  0.00    +0.002 A 
ATOM      7  C   UNL     1      -2.943  -5.997  -0.647  0.00  0.00    +0.000 A 
ATOM      8  C   UNL     1      -1.997  -5.849  -1.638  0.00  0.00    +0.007 A 
ATOM      9  C   UNL     1      -0.707  -5.422  -1.338  0.00  0.00    -0.012 A 
ATOM     10  C   UNL     1       0.243  -5.258  -2.497  0.00  0.00    +0.119 C 
ATOM     11  N   UNL     1       1.642  -5.505  -2.123  0.00  0.00    -0.299 NA
ATOM     12  C   UNL     1       2.273  -4.263  -1.634  0.00  0.00    +0.091 C 
ATOM     13  C   UNL     1       3.753  -4.511  -1.296  0.00  0.00    +0.050 C 
ATOM     14  C   UNL     1       4.450  -4.345  -2.665  0.00  0.00    +0.110 C 
ATOM     15  N   UNL     1       3.549  -3.557  -3.522  0.00  0.00    -0.293 N 
ATOM     16  C   UNL     1       2.341  -3.209  -2.747  0.00  0.00    +0.138 C 
ATOM     17  C   UNL     1       3.788  -3.211  -4.802  0.00  0.00    +0.282 C 
ATOM     18  O   UNL     1       2.968  -2.555  -5.418  0.00  0.00    -0.267 OA
ATOM     19  H   UNL     1       1.835  -1.870  -0.723  0.00  0.00    +0.161 HD
ATOM     20  H   UNL     1       1.709  -6.242  -1.438  0.00  0.00    +0.123 HD
ATOM     21  H   UNL     1       1.362  -5.149   1.070  0.00  0.00    +0.153 HD
ENDROOT
BRANCH  17  22
ATOM     22  C   UNL     1       5.034  -3.626  -5.454  0.00  0.00    +0.189 A 
ATOM     23  C   UNL     1       5.402  -3.341  -6.738  0.00  0.00    +0.054 A 
ATOM     24  C   UNL     1       6.660  -3.930  -6.937  0.00  0.00    +0.042 A 
ATOM     25  C   UNL     1       7.001  -4.542  -5.781  0.00  0.00    +0.196 A 
ATOM     26  O   UNL     1       6.021  -4.352  -4.888  0.00  0.00    -0.458 OA
ENDBRANCH  17  22
BRANCH   1  27
ATOM     27  C   UNL     1       0.633  -2.108   1.011  0.00  0.00    +0.141 C 
BRANCH  27  28
ATOM     28  C   UNL     1       0.673  -0.582   1.123  0.00  0.00    +0.180 C 
BRANCH  28  30
ATOM     29  C   UNL     1      -0.017   1.425   0.010  0.00  0.00    +0.194 C 
ATOM     30  O   UNL     1       0.002  -0.004   0.002  0.00  0.00    -0.381 OA
ENDBRANCH  28  30
ENDBRANCH  27  28
ENDBRANCH   1  27
TORSDOF 4
