REMARK  Name = ZINC06321424
REMARK  14 active torsions:
REMARK  status: ('A' for Active; 'I' for Inactive)
REMARK    1  A    between atoms: C_1  and  C_2
REMARK    2  A    between atoms: C_6  and  C_15
REMARK    3  A    between atoms: C_15  and  N_16
REMARK    4  A    between atoms: N_16  and  C_17
REMARK    5  A    between atoms: N_16  and  C_24
REMARK    6  A    between atoms: C_17  and  C_18
REMARK    7  A    between atoms: C_18  and  N_65
REMARK    8  A    between atoms: C_24  and  N_26
REMARK    9  A    between atoms: N_26  and  C_27
REMARK   10  A    between atoms: C_27  and  C_28
REMARK   11  A    between atoms: C_28  and  C_29
REMARK   12  A    between atoms: C_29  and  N_67
REMARK   13  A    between atoms: C_30  and  N_67
REMARK   14  A    between atoms: C_31  and  N_67
REMARK                            x       y       z     vdW  Elec       q    Type
REMARK                         _______ _______ _______ _____ _____    ______ ____
ROOT
ATOM      1  N   UNL     1       0.002  -0.004   0.002  0.00  0.00    -0.310 N 
ENDROOT
BRANCH   1   2
ATOM      2  C   UNL     1       0.000  -0.672  -1.169  0.00  0.00    +0.133 C 
ATOM      3  S   UNL     1       0.023  -2.383  -1.178  0.00  0.00    -0.019 S 
BRANCH   2   4
ATOM      4  N   UNL     1      -0.020   0.009  -2.332  0.00  0.00    -0.326 N 
ATOM      5  H   UNL     1      -0.033   0.978  -2.327  0.00  0.00    +0.148 HD
BRANCH   4   6
ATOM      6  C   UNL     1      -0.022  -0.717  -3.605  0.00  0.00    +0.101 C 
BRANCH   6   7
ATOM      7  C   UNL     1      -0.047   0.283  -4.762  0.00  0.00    +0.000 C 
BRANCH   7   8
ATOM      8  C   UNL     1      -0.049  -0.475  -6.091  0.00  0.00    -0.078 C 
BRANCH   8  11
ATOM      9  C   UNL     1       0.162  -0.188  -8.486  0.00  0.00    -0.097 C 
ATOM     10  C   UNL     1      -1.337   1.234  -7.225  0.00  0.00    -0.097 C 
ATOM     11  N   UNL     1      -0.052   0.505  -7.199  0.00  0.00    +0.376 N 
ATOM     12  H   UNL     1       0.711   1.177  -7.051  0.00  0.00    -0.083 HD
ENDBRANCH   8  11
ENDBRANCH   7   8
ENDBRANCH   6   7
ENDBRANCH   4   6
ENDBRANCH   2   4
ENDBRANCH   1   2
BRANCH   1  13
ATOM     13  C   UNL     1       0.024  -0.743   1.267  0.00  0.00    +0.147 C 
BRANCH  13  19
ATOM     14  C   UNL     1      -6.004  -5.112   1.693  0.00  0.00    +0.045 C 
ATOM     15  C   UNL     1      -5.293  -3.820   2.002  0.00  0.00    -0.031 A 
ATOM     16  C   UNL     1      -4.012  -3.632   1.569  0.00  0.00    +0.014 A 
ATOM     17  C   UNL     1      -3.352  -2.432   1.855  0.00  0.00    -0.001 A 
ATOM     18  C   UNL     1      -1.980  -2.196   1.401  0.00  0.00    +0.020 A 
ATOM     19  C   UNL     1      -1.389  -1.016   1.714  0.00  0.00    +0.035 A 
ATOM     20  C   UNL     1      -2.094  -0.041   2.451  0.00  0.00    +0.254 A 
ATOM     21  O   UNL     1      -1.544   1.014   2.717  0.00  0.00    -0.268 OA
ATOM     22  N   UNL     1      -3.355  -0.246   2.867  0.00  0.00    -0.322 N 
ATOM     23  H   UNL     1      -3.811   0.446   3.372  0.00  0.00    +0.169 HD
ATOM     24  C   UNL     1      -4.011  -1.427   2.588  0.00  0.00    +0.051 A 
ATOM     25  C   UNL     1      -5.315  -1.639   3.019  0.00  0.00    +0.046 A 
ATOM     26  C   UNL     1      -5.948  -2.830   2.725  0.00  0.00    +0.046 A 
ATOM     27 CL   UNL     1      -7.576  -3.095   3.265  0.00  0.00    -0.083 Cl
ENDBRANCH  13  19
ENDBRANCH   1  13
BRANCH   1  28
ATOM     28  C   UNL     1      -0.018   1.461   0.010  0.00  0.00    +0.088 C 
BRANCH  28  29
ATOM     29  C   UNL     1       1.418   1.990  -0.001  0.00  0.00    -0.059 C 
BRANCH  29  35
ATOM     30  C   UNL     1       0.828   3.985  -1.242  0.00  0.00    -0.050 C 
ATOM     31  C   UNL     1       0.771   5.513  -1.167  0.00  0.00    +0.141 C 
ATOM     32  O   UNL     1       2.084   6.022  -0.913  0.00  0.00    -0.383 OA
ATOM     33  C   UNL     1       2.668   5.531   0.296  0.00  0.00    +0.141 C 
ATOM     34  C   UNL     1       2.744   4.003   0.236  0.00  0.00    -0.050 C 
ATOM     35  N   UNL     1       1.382   3.469   0.027  0.00  0.00    +0.384 N 
ATOM     36  H   UNL     1       0.781   3.773   0.802  0.00  0.00    -0.082 HD
ENDBRANCH  29  35
ENDBRANCH  28  29
ENDBRANCH   1  28
TORSDOF 11
