REMARK  Name = ZINC59503065
REMARK  9 active torsions:
REMARK  status: ('A' for Active; 'I' for Inactive)
REMARK    1  A    between atoms: C_1  and  C_2
REMARK    2  A    between atoms: C_2  and  C_3
REMARK    3  A    between atoms: C_2  and  C_4
REMARK    4  A    between atoms: C_2  and  C_5
REMARK    5  A    between atoms: C_8  and  C_11
REMARK    6  A    between atoms: C_14  and  C_15
REMARK    7  A    between atoms: C_18  and  O_21
REMARK    8  A    between atoms: O_21  and  S_22
REMARK    9  A    between atoms: S_22  and  C_25
REMARK                            x       y       z     vdW  Elec       q    Type
REMARK                         _______ _______ _______ _____ _____    ______ ____
ROOT
ATOM      1  C   UNL     1       2.677  -1.818  -4.761  0.00  0.00    +0.232 C 
ATOM      2  N   UNL     1       3.922  -1.556  -5.045  0.00  0.00    -0.205 NA
ATOM      3  C   UNL     1       4.250  -2.164  -6.221  0.00  0.00    +0.152 C 
ATOM      4  C   UNL     1       5.468  -2.135  -6.867  0.00  0.00    +0.043 C 
ATOM      5  C   UNL     1       3.025  -2.860  -6.657  0.00  0.00    +0.364 C 
ATOM      6  O   UNL     1       2.874  -3.529  -7.662  0.00  0.00    -0.243 OA
ATOM      7  O   UNL     1       2.109  -2.599  -5.700  0.00  0.00    -0.402 OA
ENDROOT
BRANCH   1  11
ATOM      8  C   UNL     1       0.666  -0.399  -1.301  0.00  0.00    -0.042 A 
ATOM      9  C   UNL     1      -0.006  -1.198  -2.209  0.00  0.00    +0.005 A 
ATOM     10  C   UNL     1       0.641  -1.662  -3.335  0.00  0.00    +0.013 A 
ATOM     11  C   UNL     1       1.977  -1.324  -3.558  0.00  0.00    +0.037 A 
ATOM     12  C   UNL     1       2.650  -0.517  -2.637  0.00  0.00    +0.013 A 
ATOM     13  C   UNL     1       1.989  -0.056  -1.518  0.00  0.00    +0.005 A 
BRANCH   8  15
ATOM     14  C   UNL     1      -0.057   1.635  -0.080  0.00  0.00    +0.015 C 
ATOM     15  C   UNL     1      -0.048   0.105  -0.073  0.00  0.00    -0.013 C 
ATOM     16  C   UNL     1       0.676  -0.395   1.179  0.00  0.00    +0.015 C 
ATOM     17  C   UNL     1      -1.487  -0.414  -0.071  0.00  0.00    +0.015 C 
ENDBRANCH   8  15
ENDBRANCH   1  11
BRANCH   4  18
ATOM     18  C   UNL     1       6.552  -1.298  -6.347  0.00  0.00    -0.023 A 
ATOM     19  C   UNL     1       7.746  -1.163  -7.070  0.00  0.00    +0.011 A 
ATOM     20  C   UNL     1       8.756  -0.377  -6.579  0.00  0.00    +0.049 A 
ATOM     21  C   UNL     1       8.599   0.286  -5.366  0.00  0.00    +0.157 A 
ATOM     22  C   UNL     1       7.417   0.156  -4.644  0.00  0.00    +0.049 A 
ATOM     23  C   UNL     1       6.397  -0.623  -5.128  0.00  0.00    +0.011 A 
BRANCH  21  24
ATOM     24  O   UNL     1       9.603   1.062  -4.885  0.00  0.00    -0.342 OA
BRANCH  24  25
ATOM     25  S   UNL     1       9.532   2.514  -5.334  0.00  0.00    +0.151 S 
ATOM     26  O   UNL     1      10.747   3.126  -4.923  0.00  0.00    -0.131 OA
ATOM     27  O   UNL     1       9.107   2.500  -6.690  0.00  0.00    -0.131 OA
BRANCH  25  28
ATOM     28  C   UNL     1       8.243   3.283  -4.410  0.00  0.00    +0.128 A 
ATOM     29  C   UNL     1       6.949   3.279  -4.895  0.00  0.00    +0.030 A 
ATOM     30  C   UNL     1       5.938   3.882  -4.170  0.00  0.00    +0.002 A 
ATOM     31  C   UNL     1       6.221   4.489  -2.961  0.00  0.00    +0.000 A 
ATOM     32  C   UNL     1       7.516   4.493  -2.476  0.00  0.00    +0.002 A 
ATOM     33  C   UNL     1       8.526   3.886  -3.199  0.00  0.00    +0.030 A 
ENDBRANCH  25  28
ENDBRANCH  24  25
ENDBRANCH  21  24
ENDBRANCH   4  18
TORSDOF 6
