REMARK  Name = ZINC11021542
REMARK  10 active torsions:
REMARK  status: ('A' for Active; 'I' for Inactive)
REMARK    1  A    between atoms: C_1  and  C_2
REMARK    2  A    between atoms: C_2  and  N_3
REMARK    3  A    between atoms: C_7  and  S_28
REMARK    4  A    between atoms: C_11  and  S_12
REMARK    5  A    between atoms: S_12  and  C_13
REMARK    6  A    between atoms: C_13  and  C_15
REMARK    7  A    between atoms: C_13  and  C_16
REMARK    8  A    between atoms: N_18  and  C_19
REMARK    9  A    between atoms: C_25  and  C_27
REMARK   10  A    between atoms: S_28  and  N_31
REMARK                            x       y       z     vdW  Elec       q    Type
REMARK                         _______ _______ _______ _____ _____    ______ ____
ROOT
ATOM      1  N   UNL     1       6.389   1.221  -1.060  0.00  0.00    -0.319 N 
ATOM      2  C   UNL     1       7.149   0.066  -0.970  0.00  0.00    +0.070 A 
ATOM      3  C   UNL     1       8.479  -0.232  -1.226  0.00  0.00    +0.030 A 
ATOM      4  C   UNL     1       8.945  -1.516  -1.031  0.00  0.00    +0.030 A 
ATOM      5  C   UNL     1       8.092  -2.512  -0.579  0.00  0.00    +0.108 A 
ATOM      6  C   UNL     1       6.768  -2.233  -0.319  0.00  0.00    +0.058 A 
ATOM      7  C   UNL     1       6.281  -0.938  -0.512  0.00  0.00    +0.092 A 
ATOM      8  N   UNL     1       5.060  -0.366  -0.342  0.00  0.00    -0.222 NA
ATOM      9  C   UNL     1       5.119   0.902  -0.669  0.00  0.00    +0.171 A 
ENDROOT
BRANCH   5  10
ATOM     10  S   UNL     1       8.706  -4.145  -0.335  0.00  0.00    +0.061 S 
ATOM     11  O   UNL     1       7.588  -5.018  -0.430  0.00  0.00    -0.153 OA
ATOM     12  O   UNL     1       9.849  -4.278  -1.169  0.00  0.00    -0.153 OA
BRANCH  10  13
ATOM     13  N   UNL     1       9.246  -4.237   1.227  0.00  0.00    -0.172 NA
ATOM     14  C   UNL     1      10.640  -3.911   1.567  0.00  0.00    +0.137 C 
ATOM     15  C   UNL     1      10.627  -2.911   2.735  0.00  0.00    +0.177 C 
ATOM     16  O   UNL     1       9.823  -3.437   3.793  0.00  0.00    -0.377 OA
ATOM     17  C   UNL     1       8.449  -3.624   3.447  0.00  0.00    +0.177 C 
ATOM     18  C   UNL     1       8.349  -4.654   2.316  0.00  0.00    +0.137 C 
ENDBRANCH  10  13
ENDBRANCH   5  10
BRANCH   1  20
ATOM     19  C   UNL     1       7.360   3.326  -0.282  0.00  0.00    +0.027 C 
ATOM     20  C   UNL     1       6.859   2.539  -1.494  0.00  0.00    +0.121 C 
ENDBRANCH   1  20
BRANCH   9  21
ATOM     21  S   UNL     1       3.766   2.028  -0.607  0.00  0.00    -0.075 S 
BRANCH  21  22
ATOM     22  C   UNL     1       2.462   0.920  -0.017  0.00  0.00    +0.137 C 
ATOM     23  C   UNL     1       2.798   0.445   1.398  0.00  0.00    +0.029 C 
BRANCH  22  24
ATOM     24  C   UNL     1       1.147   1.655   0.000  0.00  0.00    +0.226 C 
ATOM     25  O   UNL     1       1.130   2.868   0.007  0.00  0.00    -0.275 OA
ATOM     26  N   UNL     1      -0.011   0.966   0.007  0.00  0.00    -0.311 N 
ATOM     27  H   UNL     1       0.002  -0.004   0.002  0.00  0.00    +0.149 HD
BRANCH  26  28
ATOM     28  C   UNL     1      -1.290   1.681   0.017  0.00  0.00    +0.076 C 
ATOM     29  C   UNL     1      -1.680   2.047  -1.416  0.00  0.00    +0.022 C 
ATOM     30  C   UNL     1      -3.015   2.794  -1.405  0.00  0.00    +0.002 C 
ATOM     31  C   UNL     1      -4.096   1.899  -0.796  0.00  0.00    +0.000 C 
ATOM     32  C   UNL     1      -3.705   1.533   0.638  0.00  0.00    +0.005 C 
ATOM     33  C   UNL     1      -2.370   0.786   0.627  0.00  0.00    +0.006 C 
ATOM     34  C   UNL     1      -1.980   0.419   2.060  0.00  0.00    +0.009 C 
ENDBRANCH  26  28
ENDBRANCH  22  24
ENDBRANCH  21  22
ENDBRANCH   9  21
TORSDOF 7
