REMARK  Name = ZINC12524048
REMARK  12 active torsions:
REMARK  status: ('A' for Active; 'I' for Inactive)
REMARK    1  A    between atoms: C_1  and  C_2
REMARK    2  A    between atoms: C_2  and  C_3
REMARK    3  A    between atoms: C_3  and  N_4
REMARK    4  A    between atoms: N_4  and  C_5
REMARK    5  A    between atoms: N_4  and  S_8
REMARK    6  A    between atoms: C_5  and  C_6
REMARK    7  A    between atoms: C_6  and  C_7
REMARK    8  A    between atoms: S_8  and  C_11
REMARK    9  A    between atoms: C_14  and  C_17
REMARK   10  A    between atoms: C_22  and  C_31
REMARK   11  A    between atoms: C_22  and  C_32
REMARK   12  A    between atoms: N_29  and  C_30
REMARK                            x       y       z     vdW  Elec       q    Type
REMARK                         _______ _______ _______ _____ _____    ______ ____
ROOT
ATOM      1  C   UNL     1      -4.630   8.291   1.680  0.00  0.00    +0.106 A 
ATOM      2  C   UNL     1      -3.743   8.347   0.620  0.00  0.00    +0.029 A 
ATOM      3  C   UNL     1      -2.894   7.289   0.370  0.00  0.00    +0.012 A 
ATOM      4  C   UNL     1      -2.932   6.160   1.190  0.00  0.00    -0.000 A 
ATOM      5  C   UNL     1      -3.833   6.108   2.255  0.00  0.00    +0.012 A 
ATOM      6  C   UNL     1      -4.673   7.175   2.496  0.00  0.00    +0.029 A 
ENDROOT
BRANCH   4   7
ATOM      7  C   UNL     1      -2.026   5.024   0.929  0.00  0.00    +0.093 C 
ATOM      8  N   UNL     1      -1.155   4.953  -0.024  0.00  0.00    -0.086 NA
ATOM      9  O   UNL     1      -0.434   3.732  -0.022  0.00  0.00    -0.366 OA
ATOM     10  C   UNL     1      -0.638   3.123   1.251  0.00  0.00    +0.220 C 
ATOM     11  C   UNL     1      -1.957   3.737   1.735  0.00  0.00    +0.131 C 
ATOM     12  C   UNL     1      -0.727   1.596   1.158  0.00  0.00    +0.052 C 
ATOM     13  C   UNL     1      -0.103   1.151   2.470  0.00  0.00    -0.015 A 
ATOM     14  C   UNL     1      -0.116  -0.063   3.123  0.00  0.00    +0.006 A 
ATOM     15  C   UNL     1       0.540  -0.207   4.332  0.00  0.00    +0.000 A 
ATOM     16  C   UNL     1       1.209   0.870   4.885  0.00  0.00    +0.002 A 
ATOM     17  C   UNL     1       1.226   2.087   4.236  0.00  0.00    +0.023 A 
ATOM     18  C   UNL     1       0.569   2.239   3.016  0.00  0.00    +0.036 A 
ATOM     19  N   UNL     1       0.463   3.365   2.185  0.00  0.00    -0.293 N 
ATOM     20  C   UNL     1       0.225   4.581   2.974  0.00  0.00    +0.133 C 
ATOM     21  C   UNL     1       0.082   1.075  -0.032  0.00  0.00    +0.022 C 
ATOM     22  C   UNL     1      -2.183   1.137   1.065  0.00  0.00    +0.022 C 
ENDBRANCH   4   7
BRANCH   1  23
ATOM     23  S   UNL     1      -5.711   9.648   1.991  0.00  0.00    +0.061 S 
ATOM     24  O   UNL     1      -6.064   9.579   3.366  0.00  0.00    -0.153 OA
ATOM     25  O   UNL     1      -5.099  10.795   1.418  0.00  0.00    -0.153 OA
BRANCH  23  26
ATOM     26  N   UNL     1      -7.101   9.374   1.133  0.00  0.00    -0.177 NA
BRANCH  26  27
ATOM     27  C   UNL     1      -8.206   8.633   1.745  0.00  0.00    +0.109 C 
BRANCH  27  29
ATOM     28  C   UNL     1     -10.363   8.846   2.989  0.00  0.00    +0.005 C 
ATOM     29  C   UNL     1      -9.208   9.620   2.349  0.00  0.00    +0.014 C 
ENDBRANCH  27  29
ENDBRANCH  26  27
BRANCH  26  30
ATOM     30  C   UNL     1      -7.224   9.872  -0.240  0.00  0.00    +0.109 C 
BRANCH  30  31
ATOM     31  C   UNL     1      -6.833   8.766  -1.221  0.00  0.00    +0.014 C 
ATOM     32  C   UNL     1      -6.961   9.286  -2.654  0.00  0.00    +0.005 C 
ENDBRANCH  30  31
ENDBRANCH  26  30
ENDBRANCH  23  26
ENDBRANCH   1  23
TORSDOF 7
