REMARK  Name = ZINC11998457
REMARK  8 active torsions:
REMARK  status: ('A' for Active; 'I' for Inactive)
REMARK    1  A    between atoms: C_1  and  C_2
REMARK    2  A    between atoms: C_5  and  N_26
REMARK    3  A    between atoms: C_7  and  S_8
REMARK    4  A    between atoms: S_8  and  N_11
REMARK    5  A    between atoms: N_11  and  C_12
REMARK    6  A    between atoms: C_12  and  C_13
REMARK    7  A    between atoms: C_13  and  C_15
REMARK    8  A    between atoms: C_13  and  N_62
REMARK                            x       y       z     vdW  Elec       q    Type
REMARK                         _______ _______ _______ _____ _____    ______ ____
ROOT
ATOM      1  S   UNL     1       0.070   6.544   0.322  0.00  0.00    +0.059 S 
ATOM      2  O   UNL     1      -0.951   7.145   1.106  0.00  0.00    -0.153 OA
ATOM      3  O   UNL     1       1.444   6.876   0.474  0.00  0.00    -0.153 OA
ENDROOT
BRANCH   1  10
ATOM      4  C   UNL     1       1.849   4.498  -1.015  0.00  0.00    +0.046 C 
ATOM      5  C   UNL     1       0.802   3.946  -0.083  0.00  0.00    -0.024 A 
ATOM      6  C   UNL     1       0.708   2.580   0.118  0.00  0.00    +0.007 A 
ATOM      7  C   UNL     1      -0.253   2.071   0.968  0.00  0.00    +0.025 A 
ATOM      8  C   UNL     1      -1.119   2.931   1.630  0.00  0.00    +0.061 A 
ATOM      9  C   UNL     1      -1.019   4.302   1.431  0.00  0.00    +0.054 A 
ATOM     10  C   UNL     1      -0.058   4.805   0.575  0.00  0.00    +0.110 A 
BRANCH   8  11
ATOM     11  N   UNL     1      -2.092   2.418   2.496  0.00  0.00    -0.144 N 
ATOM     12  C   UNL     1      -3.246   3.015   2.829  0.00  0.00    +0.240 C 
ATOM     13  O   UNL     1      -3.551   4.087   2.350  0.00  0.00    -0.274 OA
ATOM     14  C   UNL     1      -4.153   2.326   3.803  0.00  0.00    +0.122 C 
ATOM     15  C   UNL     1      -3.763   0.825   3.870  0.00  0.00    +0.198 C 
ATOM     16  S   UNL     1      -2.017   0.955   3.305  0.00  0.00    +0.052 S 
ATOM     17  O   UNL     1      -1.732  -0.020   2.311  0.00  0.00    -0.155 OA
ATOM     18  O   UNL     1      -1.142   1.167   4.404  0.00  0.00    -0.155 OA
ENDBRANCH   8  11
ENDBRANCH   1  10
BRANCH   1  19
ATOM     19  N   UNL     1      -0.315   6.837  -1.262  0.00  0.00    -0.191 NA
ATOM     20  H   UNL     1       0.352   7.202  -1.864  0.00  0.00    +0.148 HD
BRANCH  19  21
ATOM     21  C   UNL     1      -1.664   6.546  -1.754  0.00  0.00    +0.098 C 
BRANCH  21  22
ATOM     22  C   UNL     1      -1.870   7.226  -3.109  0.00  0.00    +0.015 C 
BRANCH  22  29
ATOM     23  C   UNL     1      -2.388   9.267  -1.895  0.00  0.00    -0.078 C 
ATOM     24  C   UNL     1      -2.343  10.770  -1.904  0.00  0.00    -0.019 C 
ATOM     25  C   UNL     1      -3.555  11.292  -2.704  0.00  0.00    -0.002 C 
ATOM     26  C   UNL     1      -3.345  11.198  -4.145  0.00  0.00    -0.002 C 
ATOM     27  C   UNL     1      -3.131   9.742  -4.609  0.00  0.00    -0.019 C 
ATOM     28  C   UNL     1      -1.716   9.343  -4.293  0.00  0.00    -0.078 C 
ATOM     29  N   UNL     1      -1.537   8.652  -2.970  0.00  0.00    +0.387 N 
ATOM     30  H   UNL     1      -0.552   8.737  -2.691  0.00  0.00    -0.081 HD
ENDBRANCH  22  29
BRANCH  22  31
ATOM     31  C   UNL     1      -3.296   7.030  -3.557  0.00  0.00    +0.093 A 
ATOM     32  C   UNL     1      -3.696   6.284  -4.603  0.00  0.00    +0.043 A 
ATOM     33  C   UNL     1      -5.105   6.381  -4.659  0.00  0.00    +0.041 A 
ATOM     34  C   UNL     1      -5.482   7.180  -3.645  0.00  0.00    +0.195 A 
ATOM     35  O   UNL     1      -4.382   7.565  -2.977  0.00  0.00    -0.469 OA
ENDBRANCH  22  31
ENDBRANCH  21  22
ENDBRANCH  19  21
ENDBRANCH   1  19
TORSDOF 7
