REMARK  Name = ZINC16503076
REMARK  13 active torsions:
REMARK  status: ('A' for Active; 'I' for Inactive)
REMARK    1  A    between atoms: C_1  and  C_2
REMARK    2  A    between atoms: C_5  and  C_11
REMARK    3  A    between atoms: C_7  and  N_8
REMARK    4  A    between atoms: N_13  and  C_14
REMARK    5  A    between atoms: N_13  and  C_37
REMARK    6  A    between atoms: C_14  and  C_15
REMARK    7  A    between atoms: C_25  and  C_27
REMARK    8  A    between atoms: C_30  and  C_33
REMARK    9  A    between atoms: C_33  and  C_34
REMARK   10  A    between atoms: C_33  and  C_35
REMARK   11  A    between atoms: C_33  and  C_36
REMARK   12  A    between atoms: C_37  and  C_38
REMARK   13  A    between atoms: C_37  and  C_39
REMARK                            x       y       z     vdW  Elec       q    Type
REMARK                         _______ _______ _______ _____ _____    ______ ____
ROOT
ATOM      1  C   UNL     1       4.016   2.436   0.162  0.00  0.00    +0.234 C 
ATOM      2  O   UNL     1       3.972   2.175  -1.022  0.00  0.00    -0.274 OA
ATOM      3  N   UNL     1       4.904   1.809   0.958  0.00  0.00    -0.289 N 
ATOM      4  C   UNL     1       4.909   2.054   2.408  0.00  0.00    +0.114 C 
ATOM      5  C   UNL     1       4.530   0.738   3.115  0.00  0.00    +0.062 C 
ATOM      6  C   UNL     1       5.263  -0.387   2.459  0.00  0.00    -0.003 A 
ATOM      7  C   UNL     1       5.883  -0.387   1.248  0.00  0.00    -0.012 A 
ATOM      8  C   UNL     1       6.496  -1.577   0.859  0.00  0.00    +0.013 A 
ATOM      9  C   UNL     1       6.457  -2.656   1.674  0.00  0.00    +0.046 A 
ATOM     10  S   UNL     1       5.529  -2.031   3.067  0.00  0.00    -0.101 S 
ATOM     11  C   UNL     1       5.886   0.876   0.389  0.00  0.00    +0.137 C 
ENDROOT
BRANCH  11  12
ATOM     12  C   UNL     1       5.501   0.532  -1.027  0.00  0.00    -0.023 A 
ATOM     13  C   UNL     1       4.310  -0.122  -1.280  0.00  0.00    +0.006 A 
ATOM     14  C   UNL     1       3.955  -0.434  -2.579  0.00  0.00    +0.004 A 
ATOM     15  C   UNL     1       4.795  -0.100  -3.625  0.00  0.00    -0.042 A 
ATOM     16  C   UNL     1       5.989   0.550  -3.371  0.00  0.00    +0.004 A 
ATOM     17  C   UNL     1       6.342   0.866  -2.073  0.00  0.00    +0.006 A 
BRANCH  15  18
ATOM     18  C   UNL     1       4.411  -0.445  -5.040  0.00  0.00    -0.013 C 
ATOM     19  C   UNL     1       5.470  -1.368  -5.646  0.00  0.00    +0.015 C 
ATOM     20  C   UNL     1       3.055  -1.154  -5.043  0.00  0.00    +0.015 C 
ATOM     21  C   UNL     1       4.317   0.837  -5.870  0.00  0.00    +0.015 C 
ENDBRANCH  15  18
ENDBRANCH  11  12
BRANCH   1  22
ATOM     22  C   UNL     1       3.076   3.461   0.743  0.00  0.00    +0.204 C 
BRANCH  22  25
ATOM     23  C   UNL     1       0.965   3.519  -0.472  0.00  0.00    +0.247 C 
ATOM     24  O   UNL     1       0.254   3.956  -1.356  0.00  0.00    -0.270 OA
ATOM     25  N   UNL     1       2.217   3.993  -0.318  0.00  0.00    -0.286 N 
BRANCH  23  30
ATOM     26  C   UNL     1      -1.027  -0.555   3.071  0.00  0.00    +0.046 C 
ATOM     27  C   UNL     1      -0.505   0.512   2.143  0.00  0.00    -0.020 A 
ATOM     28  C   UNL     1       0.856   0.626   1.920  0.00  0.00    +0.006 A 
ATOM     29  C   UNL     1       1.339   1.597   1.068  0.00  0.00    +0.013 A 
ATOM     30  C   UNL     1       0.453   2.473   0.438  0.00  0.00    +0.039 A 
ATOM     31  C   UNL     1      -0.918   2.353   0.668  0.00  0.00    +0.046 A 
ATOM     32  C   UNL     1      -1.389   1.374   1.518  0.00  0.00    +0.130 A 
BRANCH  32  33
ATOM     33  N   UNL     1      -2.843   1.245   1.763  0.00  0.00    +0.057 N 
ATOM     34  O   UNL     1      -3.625   1.980   1.186  0.00  0.00    -0.126 OA
ATOM     35  O   UNL     1      -3.258   0.404   2.540  0.00  0.00    -0.126 OA
ENDBRANCH  32  33
ENDBRANCH  23  30
BRANCH  25  36
ATOM     36  C   UNL     1       2.719   5.040  -1.212  0.00  0.00    +0.071 C 
ATOM     37  C   UNL     1       3.202   6.231  -0.381  0.00  0.00    +0.028 C 
ATOM     38  C   UNL     1       3.883   4.489  -2.038  0.00  0.00    +0.028 C 
ENDBRANCH  25  36
ENDBRANCH  22  25
ENDBRANCH   1  22
TORSDOF 7
