REMARK  Name = ZINC29701981
REMARK  5 active torsions:
REMARK  status: ('A' for Active; 'I' for Inactive)
REMARK    1  A    between atoms: C_1  and  C_2
REMARK    2  A    between atoms: N_11  and  C_12
REMARK    3  A    between atoms: C_12  and  C_13
REMARK    4  A    between atoms: N_15  and  C_16
REMARK    5  A    between atoms: C_16  and  C_22
REMARK                            x       y       z     vdW  Elec       q    Type
REMARK                         _______ _______ _______ _____ _____    ______ ____
ROOT
ATOM      1  C   UNL     1       0.882  -0.469   3.610  0.00  0.00    +0.228 C 
ATOM      2  O   UNL     1       2.000  -0.909   3.444  0.00  0.00    -0.274 OA
ATOM      3  N   UNL     1       0.425  -0.245   4.858  0.00  0.00    -0.296 N 
ATOM      4  H   UNL     1      -0.469   0.108   4.991  0.00  0.00    +0.150 HD
ENDROOT
BRANCH   3   5
ATOM      5  C   UNL     1       1.278  -0.533   6.013  0.00  0.00    +0.121 C 
ATOM      6  C   UNL     1       1.648  -2.018   6.016  0.00  0.00    +0.041 C 
ATOM      7  C   UNL     1       2.538  -2.320   7.223  0.00  0.00    +0.003 C 
ATOM      8  C   UNL     1       1.785  -1.979   8.511  0.00  0.00    +0.000 C 
ATOM      9  C   UNL     1       1.415  -0.494   8.508  0.00  0.00    +0.003 C 
ATOM     10  C   UNL     1       0.525  -0.193   7.301  0.00  0.00    +0.041 C 
BRANCH   5  11
ATOM     11  C   UNL     1       2.504   0.277   5.933  0.00  0.00    +0.088 C 
ATOM     12  N   UNL     1       3.450   0.903   5.871  0.00  0.00    -0.194 NA
ENDBRANCH   5  11
ENDBRANCH   3   5
BRANCH   1  13
ATOM     13  C   UNL     1       0.005  -0.172   2.421  0.00  0.00    +0.181 C 
BRANCH  13  23
ATOM     14  C   UNL     1      -0.019   1.526   0.010  0.00  0.00    +0.031 C 
ATOM     15  C   UNL     1       0.002  -0.004   0.002  0.00  0.00    +0.101 C 
ATOM     16  C   UNL     1       0.722  -0.498  -1.229  0.00  0.00    +0.036 A 
ATOM     17  C   UNL     1       0.593  -0.069  -2.493  0.00  0.00    +0.024 A 
ATOM     18  C   UNL     1       1.475  -0.832  -3.288  0.00  0.00    +0.019 A 
ATOM     19  C   UNL     1       2.109  -1.700  -2.471  0.00  0.00    +0.086 A 
ATOM     20  N   UNL     1       1.652  -1.504  -1.208  0.00  0.00    -0.348 N 
ATOM     21  C   UNL     1       2.043  -2.215   0.015  0.00  0.00    +0.137 C 
ATOM     22  C   UNL     1       0.980  -1.943   1.087  0.00  0.00    +0.107 C 
ATOM     23  N   UNL     1       0.728  -0.499   1.185  0.00  0.00    -0.284 NA
ENDBRANCH  13  23
ENDBRANCH   1  13
TORSDOF 4
