REMARK  Name = ZINC09123983
REMARK  9 active torsions:
REMARK  status: ('A' for Active; 'I' for Inactive)
REMARK    1  A    between atoms: C_1  and  C_2
REMARK    2  A    between atoms: C_2  and  O_3
REMARK    3  A    between atoms: O_3  and  C_4
REMARK    4  A    between atoms: C_8  and  C_10
REMARK    5  A    between atoms: C_13  and  C_28
REMARK    6  A    between atoms: N_20  and  C_21
REMARK    7  A    between atoms: C_21  and  C_22
REMARK    8  A    between atoms: C_31  and  C_35
REMARK    9  A    between atoms: C_33  and  O_34
REMARK                            x       y       z     vdW  Elec       q    Type
REMARK                         _______ _______ _______ _____ _____    ______ ____
ROOT
ATOM      1  C   UNL     1       1.891  -4.397   3.433  0.00  0.00    +0.142 C 
ATOM      2  C   UNL     1       1.115  -4.695   4.686  0.00  0.00    +0.035 A 
ATOM      3  C   UNL     1       0.285  -4.209   5.703  0.00  0.00    +0.102 A 
ATOM      4  N   UNL     1       0.013  -5.219   6.506  0.00  0.00    -0.173 NA
ATOM      5  N   UNL     1       0.589  -6.293   6.098  0.00  0.00    -0.272 N 
ATOM      6  H   UNL     1       0.529  -7.158   6.534  0.00  0.00    +0.189 HD
ATOM      7  C   UNL     1       1.298  -6.037   4.959  0.00  0.00    +0.126 A 
ATOM      8  C   UNL     1       2.165  -6.609   3.923  0.00  0.00    +0.266 C 
ATOM      9  O   UNL     1       2.518  -7.772   3.877  0.00  0.00    -0.268 OA
ATOM     10  N   UNL     1       2.517  -5.663   3.030  0.00  0.00    -0.281 N 
ENDROOT
BRANCH   3  11
ATOM     11  C   UNL     1      -0.200  -2.814   5.851  0.00  0.00    +0.045 A 
ATOM     12  C   UNL     1       0.265  -1.819   4.995  0.00  0.00    +0.034 A 
ATOM     13  C   UNL     1      -0.189  -0.522   5.137  0.00  0.00    +0.045 A 
ATOM     14  C   UNL     1      -1.105  -0.208   6.127  0.00  0.00    -0.029 A 
ATOM     15  C   UNL     1      -1.572  -1.190   6.981  0.00  0.00    +0.050 A 
ATOM     16  C   UNL     1      -1.129  -2.496   6.845  0.00  0.00    +0.126 A 
ATOM     17  C   UNL     1      -1.596   1.209   6.274  0.00  0.00    +0.045 C 
ATOM     18 CL   UNL     1       0.391   0.719   4.071  0.00  0.00    -0.083 Cl
BRANCH  16  19
ATOM     19  O   UNL     1      -1.592  -3.463   7.680  0.00  0.00    -0.506 OA
ATOM     20  H   UNL     1      -1.066  -3.573   8.484  0.00  0.00    +0.292 HD
ENDBRANCH  16  19
ENDBRANCH   3  11
BRANCH   1  25
ATOM     21  C   UNL     1       0.168  -2.149   0.932  0.00  0.00    +0.121 A 
ATOM     22  C   UNL     1      -0.748  -3.023   0.362  0.00  0.00    +0.045 A 
ATOM     23  C   UNL     1      -0.804  -4.336   0.788  0.00  0.00    +0.004 A 
ATOM     24  C   UNL     1       0.050  -4.779   1.782  0.00  0.00    +0.006 A 
ATOM     25  C   UNL     1       0.962  -3.910   2.351  0.00  0.00    -0.019 A 
ATOM     26  C   UNL     1       1.027  -2.598   1.924  0.00  0.00    +0.051 A 
BRANCH  21  27
ATOM     27  O   UNL     1       0.226  -0.857   0.514  0.00  0.00    -0.492 OA
BRANCH  27  29
ATOM     28  C   UNL     1      -0.475   1.012  -0.848  0.00  0.00    +0.048 C 
ATOM     29  C   UNL     1      -0.689  -0.465  -0.511  0.00  0.00    +0.225 C 
ENDBRANCH  27  29
ENDBRANCH  21  27
ENDBRANCH   1  25
BRANCH  10  30
ATOM     30  C   UNL     1       3.374  -5.862   1.859  0.00  0.00    +0.145 C 
BRANCH  30  31
ATOM     31  C   UNL     1       4.811  -5.615   2.241  0.00  0.00    -0.012 A 
ATOM     32  C   UNL     1       5.356  -4.344   2.137  0.00  0.00    +0.008 A 
ATOM     33  C   UNL     1       6.682  -4.163   2.499  0.00  0.00    +0.020 A 
ATOM     34  C   UNL     1       7.412  -5.247   2.948  0.00  0.00    +0.111 A 
ATOM     35  N   UNL     1       6.861  -6.442   3.033  0.00  0.00    -0.263 NA
ATOM     36  C   UNL     1       5.601  -6.650   2.703  0.00  0.00    +0.115 A 
ENDBRANCH  30  31
ENDBRANCH  10  30
TORSDOF 7
