REMARK  Name = ZINC07901073
REMARK  5 active torsions:
REMARK  status: ('A' for Active; 'I' for Inactive)
REMARK    1  A    between atoms: C_1  and  C_2
REMARK    2  A    between atoms: C_2  and  C_4
REMARK    3  A    between atoms: C_2  and  S_20
REMARK    4  A    between atoms: N_9  and  C_10
REMARK    5  A    between atoms: S_20  and  C_21
REMARK                            x       y       z     vdW  Elec       q    Type
REMARK                         _______ _______ _______ _____ _____    ______ ____
ROOT
ATOM      1  C   UNL     1      -0.718   1.572   1.248  0.00  0.00    +0.233 C 
ATOM      2  O   UNL     1      -0.347   2.587   1.798  0.00  0.00    -0.274 OA
ATOM      3  N   UNL     1      -1.761   0.878   1.746  0.00  0.00    -0.239 N 
ATOM      4  C   UNL     1      -2.392   1.313   2.854  0.00  0.00    +0.306 C 
ATOM      5  O   UNL     1      -2.020   2.330   3.406  0.00  0.00    -0.252 OA
ATOM      6  N   UNL     1      -3.434   0.619   3.352  0.00  0.00    -0.294 N 
ATOM      7  H   UNL     1      -2.057   0.066   1.306  0.00  0.00    +0.159 HD
ATOM      8  H   UNL     1      -3.731  -0.193   2.912  0.00  0.00    +0.151 HD
ENDROOT
BRANCH   6   9
ATOM      9  C   UNL     1      -4.120   1.091   4.558  0.00  0.00    +0.037 C 
ATOM     10  C   UNL     1      -3.127   1.150   5.720  0.00  0.00    +0.029 C 
ATOM     11  C   UNL     1      -3.843   1.643   6.979  0.00  0.00    -0.008 C 
ATOM     12  C   UNL     1      -4.981   0.682   7.328  0.00  0.00    +0.007 C 
ATOM     13  C   UNL     1      -5.974   0.623   6.166  0.00  0.00    -0.008 C 
ATOM     14  C   UNL     1      -5.258   0.130   4.907  0.00  0.00    +0.029 C 
ATOM     15  C   UNL     1      -6.546   2.020   5.913  0.00  0.00    +0.007 C 
ATOM     16  C   UNL     1      -5.408   2.981   5.564  0.00  0.00    -0.008 C 
ATOM     17  C   UNL     1      -4.415   3.040   6.726  0.00  0.00    +0.007 C 
ATOM     18  C   UNL     1      -4.692   2.488   4.305  0.00  0.00    +0.029 C 
ENDBRANCH   6   9
BRANCH   1  20
ATOM     19  C   UNL     1      -0.753   1.593  -1.232  0.00  0.00    +0.029 C 
ATOM     20  C   UNL     1      -0.013   1.086   0.008  0.00  0.00    +0.137 C 
BRANCH  20  21
ATOM     21  S   UNL     1       1.685   1.712  -0.005  0.00  0.00    -0.075 S 
BRANCH  21  22
ATOM     22  C   UNL     1       2.303   0.892  -1.437  0.00  0.00    +0.168 A 
ATOM     23  N   UNL     1       3.573   1.016  -1.926  0.00  0.00    -0.333 N 
ATOM     24  H   UNL     1       4.304   1.579  -1.542  0.00  0.00    +0.168 HD
ATOM     25  C   UNL     1       3.659   0.214  -3.053  0.00  0.00    +0.067 A 
ATOM     26  C   UNL     1       4.672  -0.069  -3.956  0.00  0.00    +0.028 A 
ATOM     27  C   UNL     1       4.434  -0.930  -5.008  0.00  0.00    +0.002 A 
ATOM     28  C   UNL     1       3.186  -1.515  -5.168  0.00  0.00    +0.002 A 
ATOM     29  C   UNL     1       2.168  -1.244  -4.281  0.00  0.00    +0.030 A 
ATOM     30  C   UNL     1       2.394  -0.375  -3.210  0.00  0.00    +0.090 A 
ATOM     31  N   UNL     1       1.612   0.077  -2.195  0.00  0.00    -0.222 NA
ENDBRANCH  21  22
ENDBRANCH  20  21
ENDBRANCH   1  20
TORSDOF 4
