REMARK  Name = ZINC30961505
REMARK  12 active torsions:
REMARK  status: ('A' for Active; 'I' for Inactive)
REMARK    1  A    between atoms: C_1  and  C_2
REMARK    2  A    between atoms: C_2  and  C_3
REMARK    3  A    between atoms: C_2  and  C_4
REMARK    4  A    between atoms: C_4  and  C_6
REMARK    5  A    between atoms: C_4  and  N_25
REMARK    6  A    between atoms: N_8  and  N_9
REMARK    7  A    between atoms: C_10  and  C_11
REMARK    8  A    between atoms: N_13  and  C_20
REMARK    9  A    between atoms: C_20  and  C_21
REMARK   10  A    between atoms: C_21  and  O_23
REMARK   11  A    between atoms: O_23  and  C_24
REMARK   12  A    between atoms: C_26  and  C_28
REMARK                            x       y       z     vdW  Elec       q    Type
REMARK                         _______ _______ _______ _____ _____    ______ ____
ROOT
ATOM      1  C   UNL     1      -0.074   6.851   0.349  0.00  0.00    +0.253 C 
ATOM      2  O   UNL     1      -0.401   8.018   0.281  0.00  0.00    -0.272 OA
ATOM      3  N   UNL     1      -1.014   5.886   0.333  0.00  0.00    -0.205 N 
ATOM      4  H   UNL     1      -0.715   4.828   0.298  0.00  0.00    +0.177 HD
ENDROOT
BRANCH   3   5
ATOM      5  N   UNL     1      -2.372   6.230   0.361  0.00  0.00    -0.188 NA
ATOM      6  C   UNL     1      -3.274   5.303   0.487  0.00  0.00    +0.140 C 
BRANCH   6   7
ATOM      7  C   UNL     1      -2.918   4.007   1.087  0.00  0.00    +0.020 A 
ATOM      8  C   UNL     1      -1.749   3.691   1.705  0.00  0.00    +0.097 A 
ATOM      9  N   UNL     1      -1.790   2.397   2.132  0.00  0.00    -0.335 N 
ATOM     10  C   UNL     1      -3.004   1.827   1.812  0.00  0.00    +0.050 A 
ATOM     11  C   UNL     1      -3.766   2.803   1.147  0.00  0.00    +0.009 A 
ATOM     12  C   UNL     1      -5.054   2.504   0.709  0.00  0.00    +0.010 A 
ATOM     13  C   UNL     1      -5.574   1.247   0.926  0.00  0.00    +0.001 A 
ATOM     14  C   UNL     1      -4.821   0.281   1.578  0.00  0.00    +0.002 A 
ATOM     15  C   UNL     1      -3.546   0.562   2.017  0.00  0.00    +0.026 A 
BRANCH   9  16
ATOM     16  C   UNL     1      -0.701   1.710   2.831  0.00  0.00    +0.242 C 
BRANCH  16  17
ATOM     17  C   UNL     1       0.132   0.946   1.835  0.00  0.00    +0.327 C 
ATOM     18  O   UNL     1      -0.155   0.971   0.662  0.00  0.00    -0.249 OA
BRANCH  17  19
ATOM     19  O   UNL     1       1.192   0.236   2.251  0.00  0.00    -0.467 OA
ATOM     20  C   UNL     1       1.948  -0.476   1.237  0.00  0.00    +0.280 C 
ENDBRANCH  17  19
ENDBRANCH  16  17
ENDBRANCH   9  16
ENDBRANCH   6   7
ENDBRANCH   3   5
BRANCH   1  21
ATOM     21  C   UNL     1       1.384   6.483   0.452  0.00  0.00    +0.163 C 
BRANCH  21  22
ATOM     22  N   UNL     1       2.159   7.661   0.849  0.00  0.00    -0.300 N 
ATOM     23  C   UNL     1       3.340   7.509   1.481  0.00  0.00    +0.246 C 
ATOM     24  O   UNL     1       3.761   6.394   1.722  0.00  0.00    -0.270 OA
ATOM     25  H   UNL     1       1.777   8.669   0.631  0.00  0.00    +0.150 HD
BRANCH  23  26
ATOM     26  C   UNL     1       4.121   8.697   1.881  0.00  0.00    +0.055 A 
ATOM     27  C   UNL     1       3.639   9.978   1.606  0.00  0.00    +0.016 A 
ATOM     28  C   UNL     1       4.373  11.083   1.981  0.00  0.00    +0.021 A 
ATOM     29  C   UNL     1       5.587  10.925   2.631  0.00  0.00    +0.042 A 
ATOM     30  C   UNL     1       6.071   9.658   2.907  0.00  0.00    +0.040 A 
ATOM     31  C   UNL     1       5.343   8.543   2.542  0.00  0.00    +0.054 A 
ATOM     32 CL   UNL     1       5.947   6.954   2.896  0.00  0.00    -0.083 Cl
ATOM     33 CL   UNL     1       6.505  12.322   3.101  0.00  0.00    -0.083 Cl
ENDBRANCH  23  26
ENDBRANCH  21  22
BRANCH  21  35
ATOM     34  C   UNL     1       1.076   4.744  -1.316  0.00  0.00    +0.009 C 
ATOM     35  C   UNL     1       1.879   5.979  -0.905  0.00  0.00    +0.012 C 
ATOM     36  C   UNL     1       1.696   7.078  -1.954  0.00  0.00    +0.009 C 
ENDBRANCH  21  35
ENDBRANCH   1  21
TORSDOF 9
