REMARK  Name = ZINC50321726
REMARK  8 active torsions:
REMARK  status: ('A' for Active; 'I' for Inactive)
REMARK    1  A    between atoms: C_1  and  C_2
REMARK    2  A    between atoms: C_5  and  C_7
REMARK    3  A    between atoms: C_7  and  N_8
REMARK    4  A    between atoms: C_9  and  C_11
REMARK    5  A    between atoms: C_12  and  N_20
REMARK    6  A    between atoms: C_13  and  C_17
REMARK    7  A    between atoms: C_17  and  C_18
REMARK    8  A    between atoms: C_17  and  C_19
REMARK                            x       y       z     vdW  Elec       q    Type
REMARK                         _______ _______ _______ _____ _____    ______ ____
ROOT
ATOM      1  C   UNL     1       1.848  -6.198  -3.061  0.00  0.00    +0.168 A 
ATOM      2  C   UNL     1       2.323  -7.466  -3.486  0.00  0.00    +0.078 A 
ATOM      3  C   UNL     1       2.306  -7.422  -4.844  0.00  0.00    +0.060 A 
ATOM      4  N   UNL     1       1.845  -6.194  -5.198  0.00  0.00    -0.279 N 
ATOM      5  H   UNL     1       1.729  -5.886  -6.110  0.00  0.00    +0.189 HD
ATOM      6  N   UNL     1       1.580  -5.501  -4.149  0.00  0.00    -0.167 NA
ENDROOT
BRANCH   1   8
ATOM      7  N   UNL     1       1.210  -4.510  -1.412  0.00  0.00    -0.305 N 
ATOM      8  C   UNL     1       1.680  -5.747  -1.667  0.00  0.00    +0.266 C 
ATOM      9  O   UNL     1       1.965  -6.491  -0.749  0.00  0.00    -0.268 OA
ATOM     10  H   UNL     1       0.983  -3.917  -2.144  0.00  0.00    +0.149 HD
BRANCH   7  11
ATOM     11  C   UNL     1       1.043  -4.062  -0.027  0.00  0.00    +0.147 C 
BRANCH  11  16
ATOM     12  C   UNL     1      -0.018   1.503   0.010  0.00  0.00    +0.051 C 
ATOM     13  C   UNL     1       0.002  -0.004   0.002  0.00  0.00    -0.013 A 
ATOM     14  C   UNL     1      -1.039  -0.872   0.002  0.00  0.00    +0.011 A 
ATOM     15  C   UNL     1      -0.780  -2.230  -0.007  0.00  0.00    +0.013 A 
ATOM     16  C   UNL     1       0.507  -2.653  -0.016  0.00  0.00    +0.007 A 
ATOM     17  S   UNL     1       1.404  -1.109  -0.018  0.00  0.00    -0.097 S 
ENDBRANCH  11  16
ENDBRANCH   7  11
ENDBRANCH   1   8
BRANCH   3  18
ATOM     18  C   UNL     1       2.720  -8.527  -5.781  0.00  0.00    +0.033 C 
ATOM     19  C   UNL     1       1.533  -8.921  -6.663  0.00  0.00    +0.014 C 
ATOM     20  C   UNL     1       3.872  -8.043  -6.664  0.00  0.00    +0.014 C 
ENDBRANCH   3  18
BRANCH   2  21
ATOM     21  N   UNL     1       2.725  -8.537  -2.675  0.00  0.00    -0.355 N 
ATOM     22  H   UNL     1       2.694  -8.453  -1.709  0.00  0.00    +0.142 HD
ATOM     23  H   UNL     1       3.035  -9.363  -3.080  0.00  0.00    +0.142 HD
ENDBRANCH   2  21
TORSDOF 5
