REMARK  Name = ZINC22924970
REMARK  10 active torsions:
REMARK  status: ('A' for Active; 'I' for Inactive)
REMARK    1  A    between atoms: C_1  and  C_2
REMARK    2  A    between atoms: C_2  and  C_3
REMARK    3  A    between atoms: C_3  and  C_4
REMARK    4  A    between atoms: C_3  and  C_5
REMARK    5  A    between atoms: C_3  and  N_6
REMARK    6  A    between atoms: C_7  and  C_11
REMARK    7  A    between atoms: C_11  and  C_13
REMARK    8  A    between atoms: C_11  and  N_28
REMARK    9  A    between atoms: N_31  and  C_34
REMARK   10  A    between atoms: C_34  and  C_35
REMARK                            x       y       z     vdW  Elec       q    Type
REMARK                         _______ _______ _______ _____ _____    ______ ____
ROOT
ATOM      1  C   UNL     1      -3.954  -2.194  -0.161  0.00  0.00    +0.162 C 
ENDROOT
BRANCH   1   2
ATOM      2  C   UNL     1      -4.252  -2.617  -1.576  0.00  0.00    +0.042 A 
ATOM      3  C   UNL     1      -3.365  -3.394  -2.249  0.00  0.00    +0.021 A 
ATOM      4  C   UNL     1      -3.683  -3.789  -3.621  0.00  0.00    +0.003 A 
ATOM      5  C   UNL     1      -2.805  -4.588  -4.364  0.00  0.00    +0.059 A 
ATOM      6  C   UNL     1      -3.131  -4.943  -5.655  0.00  0.00    +0.167 A 
ATOM      7  C   UNL     1      -4.335  -4.508  -6.224  0.00  0.00    +0.168 A 
ATOM      8  C   UNL     1      -5.207  -3.719  -5.497  0.00  0.00    +0.075 A 
ATOM      9  C   UNL     1      -4.893  -3.352  -4.195  0.00  0.00    +0.053 A 
ATOM     10  N   UNL     1      -5.751  -2.564  -3.455  0.00  0.00    -0.322 N 
ATOM     11  H   UNL     1      -6.585  -2.264  -3.850  0.00  0.00    +0.169 HD
ATOM     12  C   UNL     1      -5.452  -2.211  -2.193  0.00  0.00    +0.254 A 
ATOM     13  O   UNL     1      -6.236  -1.517  -1.568  0.00  0.00    -0.268 OA
ATOM     14  O   UNL     1      -4.412  -4.994  -7.496  0.00  0.00    -0.453 OA
ATOM     15  C   UNL     1      -3.070  -5.382  -7.843  0.00  0.00    +0.466 C 
ATOM     16  O   UNL     1      -2.463  -5.698  -6.577  0.00  0.00    -0.453 OA
ENDBRANCH   1   2
BRANCH   1  17
ATOM     17  N   UNL     1      -4.563  -3.149   0.775  0.00  0.00    -0.292 NA
ATOM     18  C   UNL     1      -4.207  -4.531   0.422  0.00  0.00    +0.067 C 
ATOM     19  C   UNL     1      -4.810  -5.488   1.453  0.00  0.00    -0.063 C 
ATOM     20  N   UNL     1      -6.270  -5.330   1.473  0.00  0.00    +0.381 N 
ATOM     21  C   UNL     1      -6.610  -3.951   1.851  0.00  0.00    -0.063 C 
ATOM     22  C   UNL     1      -6.022  -2.981   0.823  0.00  0.00    +0.067 C 
ATOM     23  H   UNL     1      -6.643  -5.529   0.556  0.00  0.00    -0.082 HD
BRANCH  20  24
ATOM     24  C   UNL     1      -6.850  -6.261   2.449  0.00  0.00    -0.082 C 
ATOM     25  C   UNL     1      -8.377  -6.186   2.382  0.00  0.00    -0.017 C 
ENDBRANCH  20  24
ENDBRANCH   1  17
BRANCH   1  27
ATOM     26  N   UNL     1      -1.688  -1.068   0.163  0.00  0.00    -0.222 N 
ATOM     27  C   UNL     1      -2.462  -2.164   0.052  0.00  0.00    +0.174 A 
ATOM     28  N   UNL     1      -1.667  -3.199   0.165  0.00  0.00    -0.111 NA
ATOM     29  N   UNL     1      -0.467  -2.763   0.336  0.00  0.00    -0.023 NA
ATOM     30  N   UNL     1      -0.475  -1.476   0.330  0.00  0.00    -0.043 NA
BRANCH  26  31
ATOM     31  C   UNL     1      -2.137   0.325   0.100  0.00  0.00    +0.062 C 
ATOM     32  C   UNL     1      -3.065   0.616   1.281  0.00  0.00    +0.036 C 
ATOM     33  C   UNL     1      -2.892   0.558  -1.211  0.00  0.00    +0.036 C 
BRANCH  31  35
ATOM     34  C   UNL     1      -1.393   2.710   0.097  0.00  0.00    +0.006 C 
ATOM     35  C   UNL     1      -0.924   1.255   0.163  0.00  0.00    +0.026 C 
ENDBRANCH  31  35
ENDBRANCH  26  31
ENDBRANCH   1  27
TORSDOF 6
