REMARK  Name = ZINC38837325
REMARK  11 active torsions:
REMARK  status: ('A' for Active; 'I' for Inactive)
REMARK    1  A    between atoms: C_1  and  C_2
REMARK    2  A    between atoms: N_11  and  C_12
REMARK    3  A    between atoms: C_12  and  C_13
REMARK    4  A    between atoms: C_13  and  N_14
REMARK    5  A    between atoms: N_14  and  C_15
REMARK    6  A    between atoms: N_14  and  C_16
REMARK    7  A    between atoms: C_17  and  C_19
REMARK    8  A    between atoms: C_19  and  C_20
REMARK    9  A    between atoms: C_20  and  C_21
REMARK   10  A    between atoms: C_21  and  S_22
REMARK   11  A    between atoms: S_22  and  C_25
REMARK                            x       y       z     vdW  Elec       q    Type
REMARK                         _______ _______ _______ _____ _____    ______ ____
ROOT
ATOM      1  C   UNL     1      -0.018   1.503   0.010  0.00  0.00    +0.046 C 
ATOM      2  C   UNL     1       0.002  -0.004   0.002  0.00  0.00    -0.023 A 
ATOM      3  C   UNL     1       0.005  -0.675  -1.193  0.00  0.00    +0.025 A 
ATOM      4  C   UNL     1       0.024  -2.062  -1.246  0.00  0.00    +0.042 A 
ATOM      5  C   UNL     1       0.039  -2.785  -0.066  0.00  0.00    +0.037 A 
ATOM      6  C   UNL     1       0.036  -2.120   1.135  0.00  0.00    +0.042 A 
ATOM      7  C   UNL     1       0.023  -0.710   1.227  0.00  0.00    +0.083 A 
ATOM      8  N   UNL     1       0.028  -0.205   2.480  0.00  0.00    -0.224 NA
ATOM      9  C   UNL     1       0.048  -0.968   3.548  0.00  0.00    +0.168 A 
ATOM     10  S   UNL     1       0.051  -2.610   2.843  0.00  0.00    -0.052 S 
ATOM     11  N   UNL     1       0.056  -0.595   4.882  0.00  0.00    -0.252 N 
ATOM     12  C   UNL     1       0.041   0.711   5.217  0.00  0.00    +0.221 C 
ATOM     13  O   UNL     1       0.022   1.559   4.351  0.00  0.00    -0.275 OA
ATOM     14 CL   UNL     1       0.026  -2.882  -2.776  0.00  0.00    -0.083 Cl
ENDROOT
BRANCH  11  15
ATOM     15  C   UNL     1       0.079  -1.619   5.929  0.00  0.00    +0.097 C 
BRANCH  15  16
ATOM     16  C   UNL     1       1.529  -1.957   6.280  0.00  0.00    -0.060 C 
BRANCH  16  17
ATOM     17  N   UNL     1       1.553  -2.984   7.330  0.00  0.00    +0.377 N 
ATOM     18  C   UNL     1       0.979  -4.231   6.807  0.00  0.00    -0.097 C 
ATOM     19  C   UNL     1       2.940  -3.222   7.751  0.00  0.00    -0.097 C 
ATOM     20  H   UNL     1       1.010  -2.670   8.120  0.00  0.00    -0.083 HD
ENDBRANCH  16  17
ENDBRANCH  15  16
ENDBRANCH  11  15
BRANCH  12  21
ATOM     21  C   UNL     1       0.049   1.116   6.668  0.00  0.00    +0.098 C 
BRANCH  21  22
ATOM     22  C   UNL     1       0.030   2.643   6.771  0.00  0.00    +0.032 C 
BRANCH  22  23
ATOM     23  C   UNL     1       0.038   3.055   8.245  0.00  0.00    +0.172 C 
BRANCH  23  24
ATOM     24  S   UNL     1       0.015   4.864   8.367  0.00  0.00    -0.003 S 
ATOM     25  O   UNL     1       1.239   5.403   7.884  0.00  0.00    -0.169 OA
ATOM     26  O   UNL     1      -1.230   5.370   7.907  0.00  0.00    -0.169 OA
BRANCH  24  27
ATOM     27  C   UNL     1       0.027   5.202  10.097  0.00  0.00    +0.088 A 
ATOM     28  C   UNL     1      -1.165   5.312  10.787  0.00  0.00    +0.028 A 
ATOM     29  C   UNL     1      -1.157   5.577  12.143  0.00  0.00    +0.022 A 
ATOM     30  C   UNL     1       0.045   5.731  12.810  0.00  0.00    +0.041 A 
ATOM     31  C   UNL     1       1.239   5.620  12.119  0.00  0.00    +0.022 A 
ATOM     32  C   UNL     1       1.229   5.350  10.764  0.00  0.00    +0.028 A 
ATOM     33 CL   UNL     1       0.057   6.064  14.514  0.00  0.00    -0.084 Cl
ENDBRANCH  24  27
ENDBRANCH  23  24
ENDBRANCH  22  23
ENDBRANCH  21  22
ENDBRANCH  12  21
TORSDOF 8
