REMARK  Name = ZINC06858313
REMARK  9 active torsions:
REMARK  status: ('A' for Active; 'I' for Inactive)
REMARK    1  A    between atoms: C_1  and  O_2
REMARK    2  A    between atoms: O_2  and  C_3
REMARK    3  A    between atoms: C_5  and  C_13
REMARK    4  A    between atoms: C_7  and  O_11
REMARK    5  A    between atoms: C_8  and  O_9
REMARK    6  A    between atoms: O_9  and  C_10
REMARK    7  A    between atoms: O_11  and  C_12
REMARK    8  A    between atoms: C_15  and  C_32
REMARK    9  A    between atoms: C_16  and  N_31
REMARK                            x       y       z     vdW  Elec       q    Type
REMARK                         _______ _______ _______ _____ _____    ______ ____
ROOT
ATOM      1  C   UNL     1      -1.307  -0.750   0.028  0.00  0.00    +0.105 C 
ATOM      2  C   UNL     1      -1.079  -2.174   0.454  0.00  0.00    +0.098 C 
ATOM      3  C   UNL     1       0.162  -2.716   0.401  0.00  0.00    +0.198 C 
ATOM      4  O   UNL     1       1.219  -2.009  -0.032  0.00  0.00    -0.444 OA
ATOM      5  C   UNL     1       1.171  -0.664  -0.027  0.00  0.00    +0.129 C 
ATOM      6  C   UNL     1       0.002  -0.004   0.002  0.00  0.00    +0.088 C 
ATOM      7  C   UNL     1      -0.017   1.415   0.010  0.00  0.00    +0.340 C 
ATOM      8  O   UNL     1      -1.081   2.005   0.018  0.00  0.00    -0.245 OA
ATOM      9  O   UNL     1       1.137   2.112   0.003  0.00  0.00    -0.453 OA
ATOM     10  C   UNL     1       2.271   1.473   0.599  0.00  0.00    +0.214 C 
ATOM     11  C   UNL     1       2.469   0.107  -0.059  0.00  0.00    +0.123 C 
ATOM     12  C   UNL     1       2.911   0.289  -1.487  0.00  0.00    -0.012 C 
ATOM     13  C   UNL     1       3.711   1.300  -1.812  0.00  0.00    -0.004 C 
ATOM     14  C   UNL     1       4.169   2.231  -0.767  0.00  0.00    -0.001 C 
ATOM     15  C   UNL     1       3.494   2.324   0.373  0.00  0.00    +0.018 C 
ENDROOT
BRANCH   1  18
ATOM     16  C   UNL     1      -3.732  -0.140  -2.806  0.00  0.00    +0.165 A 
ATOM     17  C   UNL     1      -3.164  -0.160  -1.541  0.00  0.00    +0.054 A 
ATOM     18  C   UNL     1      -1.920  -0.732  -1.349  0.00  0.00    -0.027 A 
ATOM     19  C   UNL     1      -1.235  -1.282  -2.416  0.00  0.00    +0.054 A 
ATOM     20  C   UNL     1      -1.799  -1.272  -3.683  0.00  0.00    +0.165 A 
ATOM     21  C   UNL     1      -3.049  -0.697  -3.881  0.00  0.00    +0.204 A 
BRANCH  16  23
ATOM     22  C   UNL     1      -5.599   0.975  -1.845  0.00  0.00    +0.277 C 
ATOM     23  O   UNL     1      -4.955   0.423  -2.995  0.00  0.00    -0.491 OA
ENDBRANCH  16  23
BRANCH  21  24
ATOM     24  O   UNL     1      -3.603  -0.681  -5.124  0.00  0.00    -0.488 OA
ATOM     25  C   UNL     1      -3.314   0.451  -5.948  0.00  0.00    +0.277 C 
ENDBRANCH  21  24
BRANCH  20  26
ATOM     26  O   UNL     1      -1.127  -1.818  -4.731  0.00  0.00    -0.491 OA
ATOM     27  C   UNL     1       0.153  -2.391  -4.454  0.00  0.00    +0.277 C 
ENDBRANCH  20  26
ENDBRANCH   1  18
BRANCH   3  28
ATOM     28  N   UNL     1       0.344  -4.017   0.799  0.00  0.00    -0.328 N 
ATOM     29  H   UNL     1      -0.411  -4.537   1.114  0.00  0.00    +0.145 HD
ATOM     30  H   UNL     1       1.228  -4.415   0.766  0.00  0.00    +0.145 HD
ENDBRANCH   3  28
BRANCH   2  31
ATOM     31  C   UNL     1      -2.180  -2.963   0.917  0.00  0.00    +0.101 C 
ATOM     32  N   UNL     1      -3.054  -3.589   1.285  0.00  0.00    -0.191 NA
ENDBRANCH   2  31
TORSDOF 6
