REMARK  Name = ZINC38595917
REMARK  9 active torsions:
REMARK  status: ('A' for Active; 'I' for Inactive)
REMARK    1  A    between atoms: C_1  and  C_2
REMARK    2  A    between atoms: C_2  and  C_4
REMARK    3  A    between atoms: C_2  and  N_24
REMARK    4  A    between atoms: C_4  and  C_6
REMARK    5  A    between atoms: C_4  and  N_11
REMARK    6  A    between atoms: N_14  and  C_17
REMARK    7  A    between atoms: C_17  and  C_18
REMARK    8  A    between atoms: C_25  and  C_27
REMARK    9  A    between atoms: C_27  and  C_32
REMARK                            x       y       z     vdW  Elec       q    Type
REMARK                         _______ _______ _______ _____ _____    ______ ____
ROOT
ATOM      1  C   UNL     1       0.713  -0.402   1.297  0.00  0.00    +0.113 C 
ENDROOT
BRANCH   1   2
ATOM      2  N   UNL     1       2.048   0.211   1.331  0.00  0.00    -0.297 NA
ATOM      3  C   UNL     1       1.955   1.678   1.306  0.00  0.00    +0.066 C 
ATOM      4  C   UNL     1       3.364   2.275   1.282  0.00  0.00    -0.063 C 
ATOM      5  N   UNL     1       4.103   1.834   2.472  0.00  0.00    +0.384 N 
ATOM      6  C   UNL     1       4.208   0.369   2.471  0.00  0.00    -0.063 C 
ATOM      7  C   UNL     1       2.807  -0.244   2.505  0.00  0.00    +0.066 C 
ATOM      8  H   UNL     1       3.613   2.135   3.302  0.00  0.00    -0.081 HD
BRANCH   5   9
ATOM      9  C   UNL     1       5.449   2.422   2.458  0.00  0.00    -0.043 C 
BRANCH   9  10
ATOM     10  C   UNL     1       6.164   2.071   3.737  0.00  0.00    -0.064 A 
ATOM     11  C   UNL     1       6.058   2.901   4.838  0.00  0.00    +0.002 A 
ATOM     12  C   UNL     1       6.714   2.579   6.012  0.00  0.00    +0.000 A 
ATOM     13  C   UNL     1       7.475   1.427   6.085  0.00  0.00    +0.000 A 
ATOM     14  C   UNL     1       7.580   0.597   4.984  0.00  0.00    +0.000 A 
ATOM     15  C   UNL     1       6.920   0.917   3.812  0.00  0.00    +0.002 A 
ENDBRANCH   9  10
ENDBRANCH   5   9
ENDBRANCH   1   2
BRANCH   1  16
ATOM     16  C   UNL     1       0.850  -1.903   1.294  0.00  0.00    +0.009 A 
ATOM     17  C   UNL     1       0.104  -2.829   1.946  0.00  0.00    +0.013 A 
ATOM     18  C   UNL     1       0.415  -4.167   1.793  0.00  0.00    +0.008 A 
ATOM     19  C   UNL     1       1.455  -4.514   0.997  0.00  0.00    +0.045 A 
ATOM     20  S   UNL     1       2.030  -2.923   0.426  0.00  0.00    -0.100 S 
ENDBRANCH   1  16
BRANCH   1  22
ATOM     21  C   UNL     1      -1.393  -0.631  -0.028  0.00  0.00    +0.030 C 
ATOM     22  C   UNL     1      -0.022   0.046   0.032  0.00  0.00    +0.092 C 
BRANCH  22  23
ATOM     23  N   UNL     1       0.761  -0.332  -1.147  0.00  0.00    -0.310 N 
ATOM     24  C   UNL     1       0.618   0.353  -2.299  0.00  0.00    +0.224 C 
ATOM     25  O   UNL     1      -0.160   1.282  -2.360  0.00  0.00    -0.275 OA
ATOM     26  H   UNL     1       1.383  -1.075  -1.099  0.00  0.00    +0.149 HD
BRANCH  24  27
ATOM     27  C   UNL     1       1.423  -0.036  -3.512  0.00  0.00    +0.078 C 
ATOM     28  C   UNL     1       2.924   0.149  -3.229  0.00  0.00    +0.021 C 
ATOM     29  C   UNL     1       3.441   1.185  -4.250  0.00  0.00    +0.001 C 
ATOM     30  C   UNL     1       2.177   1.986  -4.651  0.00  0.00    +0.001 C 
ATOM     31  C   UNL     1       1.079   0.894  -4.694  0.00  0.00    +0.021 C 
BRANCH  27  32
ATOM     32  C   UNL     1       1.139  -1.469  -3.883  0.00  0.00    +0.005 A 
ATOM     33  C   UNL     1       1.307  -2.591  -3.142  0.00  0.00    +0.012 A 
ATOM     34  C   UNL     1       0.975  -3.814  -3.693  0.00  0.00    +0.008 A 
ATOM     35  C   UNL     1       0.491  -3.855  -4.959  0.00  0.00    +0.045 A 
ATOM     36  S   UNL     1       0.487  -2.127  -5.409  0.00  0.00    -0.101 S 
ENDBRANCH  27  32
ENDBRANCH  24  27
ENDBRANCH  22  23
ENDBRANCH   1  22
TORSDOF 8
