REMARK  Name = ZINC09105373
REMARK  7 active torsions:
REMARK  status: ('A' for Active; 'I' for Inactive)
REMARK    1  A    between atoms: C_6  and  S_11
REMARK    2  A    between atoms: S_11  and  N_14
REMARK    3  A    between atoms: N_14  and  C_15
REMARK    4  A    between atoms: C_15  and  C_16
REMARK    5  A    between atoms: C_16  and  C_18
REMARK    6  A    between atoms: C_16  and  S_23
REMARK    7  A    between atoms: S_23  and  C_26
REMARK                            x       y       z     vdW  Elec       q    Type
REMARK                         _______ _______ _______ _____ _____    ______ ____
ROOT
ATOM      1  C   UNL     1       0.918   5.160   0.021  0.00  0.00    +0.188 C 
ENDROOT
BRANCH   1   2
ATOM      2  C   UNL     1       0.421   3.738   0.017  0.00  0.00    +0.015 A 
ATOM      3  C   UNL     1      -0.855   3.279   0.027  0.00  0.00    +0.013 A 
ATOM      4  C   UNL     1      -1.077   1.915   0.017  0.00  0.00    +0.008 A 
ATOM      5  C   UNL     1      -0.013   1.076   0.008  0.00  0.00    +0.045 A 
ATOM      6  S   UNL     1       1.359   2.219   0.001  0.00  0.00    -0.100 S 
ENDBRANCH   1   2
BRANCH   1   7
ATOM      7  S   UNL     1       1.911   5.457  -1.468  0.00  0.00    +0.006 S 
ATOM      8  O   UNL     1       2.238   6.836  -1.572  0.00  0.00    -0.169 OA
ATOM      9  O   UNL     1       2.918   4.462  -1.591  0.00  0.00    -0.169 OA
BRANCH   7  10
ATOM     10  C   UNL     1       0.813   5.153  -2.813  0.00  0.00    +0.093 A 
ATOM     11  C   UNL     1       0.053   6.186  -3.330  0.00  0.00    +0.031 A 
ATOM     12  C   UNL     1      -0.810   5.951  -4.383  0.00  0.00    +0.051 A 
ATOM     13  C   UNL     1      -0.916   4.679  -4.925  0.00  0.00    +0.162 A 
ATOM     14  C   UNL     1      -0.150   3.641  -4.407  0.00  0.00    +0.164 A 
ATOM     15  C   UNL     1       0.717   3.884  -3.352  0.00  0.00    +0.076 A 
ATOM     16  O   UNL     1      -0.234   2.386  -4.926  0.00  0.00    -0.485 OA
ATOM     17  C   UNL     1      -1.381   2.100  -5.734  0.00  0.00    +0.270 C 
ATOM     18  C   UNL     1      -1.578   3.263  -6.717  0.00  0.00    +0.270 C 
ATOM     19  O   UNL     1      -1.773   4.462  -5.960  0.00  0.00    -0.485 OA
ENDBRANCH   7  10
ENDBRANCH   1   7
BRANCH   1  20
ATOM     20  C   UNL     1       1.779   5.397   1.263  0.00  0.00    +0.137 C 
BRANCH  20  21
ATOM     21  N   UNL     1       2.262   6.780   1.266  0.00  0.00    -0.188 NA
ATOM     22  H   UNL     1       2.209   7.314   0.458  0.00  0.00    +0.148 HD
BRANCH  21  23
ATOM     23  S   UNL     1       2.899   7.432   2.649  0.00  0.00    +0.058 S 
ATOM     24  O   UNL     1       3.296   8.758   2.327  0.00  0.00    -0.153 OA
ATOM     25  O   UNL     1       1.980   7.144   3.694  0.00  0.00    -0.153 OA
BRANCH  23  31
ATOM     26  C   UNL     1       9.035   4.823   3.397  0.00  0.00    +0.001 A 
ATOM     27  C   UNL     1       9.102   5.957   2.588  0.00  0.00    +0.001 A 
ATOM     28  C   UNL     1       7.982   6.668   2.286  0.00  0.00    +0.008 A 
ATOM     29  C   UNL     1       6.738   6.257   2.794  0.00  0.00    -0.016 A 
ATOM     30  C   UNL     1       5.560   6.967   2.504  0.00  0.00    +0.037 A 
ATOM     31  C   UNL     1       4.373   6.539   3.015  0.00  0.00    +0.106 A 
ATOM     32  C   UNL     1       4.307   5.408   3.827  0.00  0.00    +0.029 A 
ATOM     33  C   UNL     1       5.426   4.693   4.125  0.00  0.00    +0.010 A 
ATOM     34  C   UNL     1       6.670   5.105   3.616  0.00  0.00    -0.018 A 
ATOM     35  C   UNL     1       7.848   4.396   3.907  0.00  0.00    +0.008 A 
ENDBRANCH  23  31
ENDBRANCH  21  23
ENDBRANCH  20  21
ENDBRANCH   1  20
TORSDOF 7
