REMARK  Name = ZINC08984843
REMARK  9 active torsions:
REMARK  status: ('A' for Active; 'I' for Inactive)
REMARK    1  A    between atoms: C_1  and  C_2
REMARK    2  A    between atoms: C_2  and  C_29
REMARK    3  A    between atoms: N_9  and  C_28
REMARK    4  A    between atoms: C_11  and  C_12
REMARK    5  A    between atoms: C_12  and  C_14
REMARK    6  A    between atoms: C_14  and  S_15
REMARK    7  A    between atoms: S_15  and  C_16
REMARK    8  A    between atoms: C_19  and  C_22
REMARK    9  A    between atoms: N_20  and  N_21
REMARK                            x       y       z     vdW  Elec       q    Type
REMARK                         _______ _______ _______ _____ _____    ______ ____
ROOT
ATOM      1  C   UNL     1       7.006   2.199   2.113  0.00  0.00    +0.156 C 
ENDROOT
BRANCH   1   2
ATOM      2  C   UNL     1       7.625   2.834   0.894  0.00  0.00    +0.168 C 
ATOM      3  O   UNL     1       7.431   2.354  -0.205  0.00  0.00    -0.292 OA
BRANCH   2  14
ATOM      4  C   UNL     1      10.017   6.255  -0.448  0.00  0.00    +0.022 C 
ATOM      5  C   UNL     1      10.617   5.175   0.454  0.00  0.00    +0.030 C 
ATOM      6  C   UNL     1      11.882   4.615  -0.156  0.00  0.00    -0.015 A 
ATOM      7  C   UNL     1      13.089   5.187  -0.489  0.00  0.00    +0.006 A 
ATOM      8  C   UNL     1      14.088   4.413  -1.053  0.00  0.00    +0.000 A 
ATOM      9  C   UNL     1      13.870   3.067  -1.281  0.00  0.00    +0.002 A 
ATOM     10  C   UNL     1      12.661   2.491  -0.949  0.00  0.00    +0.024 A 
ATOM     11  C   UNL     1      11.650   3.264  -0.380  0.00  0.00    +0.038 A 
ATOM     12  N   UNL     1      10.365   2.917   0.034  0.00  0.00    -0.305 N 
ATOM     13  C   UNL     1       9.689   3.982   0.542  0.00  0.00    +0.024 C 
ATOM     14  C   UNL     1       8.423   3.978   1.028  0.00  0.00    +0.067 C 
ATOM     15  C   UNL     1       9.809   1.565  -0.065  0.00  0.00    +0.135 C 
ATOM     16  C   UNL     1      10.901   5.737   1.848  0.00  0.00    +0.022 C 
ENDBRANCH   2  14
ENDBRANCH   1   2
BRANCH   1  17
ATOM     17  S   UNL     1       6.040   0.752   1.615  0.00  0.00    -0.077 S 
BRANCH  17  18
ATOM     18  C   UNL     1       5.449   0.222   3.189  0.00  0.00    +0.209 A 
ATOM     19  N   UNL     1       5.697   0.789   4.347  0.00  0.00    -0.121 NA
ATOM     20  N   UNL     1       5.102   0.143   5.285  0.00  0.00    -0.132 NA
ATOM     21  C   UNL     1       4.453  -0.871   4.788  0.00  0.00    +0.154 A 
ATOM     22  N   UNL     1       4.647  -0.855   3.434  0.00  0.00    -0.228 N 
BRANCH  21  23
ATOM     23  C   UNL     1       3.633  -1.872   5.561  0.00  0.00    +0.059 C 
ATOM     24  C   UNL     1       4.528  -2.590   6.573  0.00  0.00    +0.011 C 
ATOM     25  C   UNL     1       3.696  -3.607   7.358  0.00  0.00    +0.001 C 
ATOM     26  C   UNL     1       2.569  -2.882   8.097  0.00  0.00    +0.000 C 
ATOM     27  C   UNL     1       1.675  -2.164   7.084  0.00  0.00    +0.001 C 
ATOM     28  C   UNL     1       2.506  -1.147   6.300  0.00  0.00    +0.011 C 
ENDBRANCH  21  23
BRANCH  22  29
ATOM     29  N   UNL     1       4.143  -1.734   2.518  0.00  0.00    -0.295 N 
ATOM     30  H   UNL     1       3.248  -1.422   2.173  0.00  0.00    +0.163 HD
ATOM     31  H   UNL     1       4.793  -1.878   1.760  0.00  0.00    +0.163 HD
ENDBRANCH  22  29
ENDBRANCH  17  18
ENDBRANCH   1  17
TORSDOF 6
