REMARK  Name = ZINC20083157
REMARK  14 active torsions:
REMARK  status: ('A' for Active; 'I' for Inactive)
REMARK    1  A    between atoms: C_1  and  C_2
REMARK    2  A    between atoms: C_2  and  C_3
REMARK    3  A    between atoms: C_3  and  C_4
REMARK    4  A    between atoms: C_3  and  C_5
REMARK    5  A    between atoms: C_3  and  N_6
REMARK    6  A    between atoms: C_7  and  C_11
REMARK    7  A    between atoms: C_11  and  C_13
REMARK    8  A    between atoms: C_11  and  N_27
REMARK    9  A    between atoms: C_17  and  C_26
REMARK   10  A    between atoms: C_19  and  C_25
REMARK   11  A    between atoms: N_27  and  C_28
REMARK   12  A    between atoms: N_27  and  C_35
REMARK   13  A    between atoms: C_28  and  C_29
REMARK   14  A    between atoms: C_35  and  C_36
REMARK                            x       y       z     vdW  Elec       q    Type
REMARK                         _______ _______ _______ _____ _____    ______ ____
ROOT
ATOM      1  C   UNL     1       0.772   2.203   0.972  0.00  0.00    +0.163 C 
ENDROOT
BRANCH   1   2
ATOM      2  C   UNL     1       0.449   2.946   2.242  0.00  0.00    +0.042 A 
ATOM      3  C   UNL     1      -0.441   2.424   3.122  0.00  0.00    +0.021 A 
ATOM      4  C   UNL     1      -0.733   3.170   4.348  0.00  0.00    -0.001 A 
ATOM      5  C   UNL     1      -1.642   2.682   5.293  0.00  0.00    +0.013 A 
ATOM      6  C   UNL     1      -1.892   3.402   6.426  0.00  0.00    -0.050 A 
ATOM      7  C   UNL     1      -1.253   4.614   6.648  0.00  0.00    +0.008 A 
ATOM      8  C   UNL     1      -0.354   5.114   5.731  0.00  0.00    -0.026 A 
ATOM      9  C   UNL     1      -0.084   4.399   4.569  0.00  0.00    +0.052 A 
ATOM     10  N   UNL     1       0.811   4.875   3.635  0.00  0.00    -0.322 N 
ATOM     11  H   UNL     1       1.319   5.836   3.800  0.00  0.00    +0.169 HD
ATOM     12  C   UNL     1       1.077   4.180   2.515  0.00  0.00    +0.254 A 
ATOM     13  O   UNL     1       1.878   4.629   1.713  0.00  0.00    -0.268 OA
ATOM     14  C   UNL     1       0.332   6.432   5.985  0.00  0.00    +0.046 C 
ATOM     15  C   UNL     1      -2.871   2.876   7.444  0.00  0.00    +0.044 C 
ENDBRANCH   1   2
BRANCH   1  17
ATOM     16  N   UNL     1      -0.704   2.835  -1.010  0.00  0.00    -0.222 N 
ATOM     17  C   UNL     1       0.363   3.037  -0.215  0.00  0.00    +0.174 A 
ATOM     18  N   UNL     1       0.981   4.096  -0.678  0.00  0.00    -0.111 NA
ATOM     19  N   UNL     1       0.325   4.526  -1.700  0.00  0.00    -0.023 NA
ATOM     20  N   UNL     1      -0.696   3.768  -1.901  0.00  0.00    -0.043 NA
BRANCH  16  21
ATOM     21  C   UNL     1      -1.692   1.760  -0.884  0.00  0.00    +0.062 C 
ATOM     22  C   UNL     1      -1.012   0.412  -1.130  0.00  0.00    +0.036 C 
ATOM     23  C   UNL     1      -2.291   1.780   0.523  0.00  0.00    +0.036 C 
BRANCH  21  25
ATOM     24  C   UNL     1      -3.835   0.843  -1.784  0.00  0.00    +0.006 C 
ATOM     25  C   UNL     1      -2.804   1.966  -1.915  0.00  0.00    +0.026 C 
ENDBRANCH  21  25
ENDBRANCH  16  21
ENDBRANCH   1  17
BRANCH   1  26
ATOM     26  N   UNL     1       2.216   1.941   0.911  0.00  0.00    -0.280 NA
BRANCH  26  27
ATOM     27  C   UNL     1       2.555   1.129  -0.265  0.00  0.00    +0.121 C 
BRANCH  27  28
ATOM     28  C   UNL     1       2.737   2.027  -1.460  0.00  0.00    -0.033 A 
ATOM     29  C   UNL     1       1.702   2.198  -2.361  0.00  0.00    +0.005 A 
ATOM     30  C   UNL     1       1.866   3.026  -3.455  0.00  0.00    +0.000 A 
ATOM     31  C   UNL     1       3.070   3.676  -3.655  0.00  0.00    +0.000 A 
ATOM     32  C   UNL     1       4.107   3.501  -2.758  0.00  0.00    +0.000 A 
ATOM     33  C   UNL     1       3.940   2.677  -1.660  0.00  0.00    +0.005 A 
ENDBRANCH  27  28
ENDBRANCH  26  27
BRANCH  26  34
ATOM     34  C   UNL     1       2.687   1.301   2.147  0.00  0.00    +0.122 C 
BRANCH  34  35
ATOM     35  C   UNL     1       4.191   1.363   2.204  0.00  0.00    -0.015 A 
ATOM     36  C   UNL     1       4.955   0.280   1.793  0.00  0.00    +0.008 A 
ATOM     37  C   UNL     1       6.335   0.384   1.858  0.00  0.00    +0.020 A 
ATOM     38  C   UNL     1       6.901   1.551   2.336  0.00  0.00    +0.111 A 
ATOM     39  N   UNL     1       6.144   2.559   2.723  0.00  0.00    -0.263 NA
ATOM     40  C   UNL     1       4.828   2.497   2.671  0.00  0.00    +0.115 A 
ENDBRANCH  34  35
ENDBRANCH  26  34
ENDBRANCH   1  26
TORSDOF 9
