REMARK  Name = ZINC12700428
REMARK  14 active torsions:
REMARK  status: ('A' for Active; 'I' for Inactive)
REMARK    1  A    between atoms: C_1  and  C_2
REMARK    2  A    between atoms: C_2  and  C_3
REMARK    3  A    between atoms: C_3  and  C_4
REMARK    4  A    between atoms: C_4  and  N_5
REMARK    5  A    between atoms: C_6  and  N_36
REMARK    6  A    between atoms: C_7  and  N_14
REMARK    7  A    between atoms: N_14  and  C_15
REMARK    8  A    between atoms: C_15  and  C_16
REMARK    9  A    between atoms: C_17  and  C_19
REMARK   10  A    between atoms: C_19  and  N_71
REMARK   11  A    between atoms: N_23  and  S_26
REMARK   12  A    between atoms: S_26  and  C_29
REMARK   13  A    between atoms: C_30  and  C_35
REMARK   14  A    between atoms: C_33  and  C_34
REMARK                            x       y       z     vdW  Elec       q    Type
REMARK                         _______ _______ _______ _____ _____    ______ ____
ROOT
ATOM      1  N   UNL     1       0.161  -2.901  -2.315  0.00  0.00    -0.266 N 
ATOM      2  C   UNL     1       0.075  -2.293  -3.517  0.00  0.00    +0.203 C 
ATOM      3  O   UNL     1      -0.183  -1.109  -3.580  0.00  0.00    -0.277 OA
ENDROOT
BRANCH   1   6
ATOM      4  N   UNL     1       0.995  -1.264   0.867  0.00  0.00    -0.280 N 
ATOM      5  C   UNL     1       1.133  -2.007  -0.283  0.00  0.00    +0.127 A 
ATOM      6  C   UNL     1       0.053  -2.142  -1.131  0.00  0.00    +0.140 A 
ATOM      7  C   UNL     1      -1.157  -1.505  -0.797  0.00  0.00    +0.277 A 
ATOM      8  O   UNL     1      -2.126  -1.605  -1.530  0.00  0.00    -0.266 OA
ATOM      9  N   UNL     1      -1.238  -0.785   0.339  0.00  0.00    -0.273 N 
ATOM     10  H   UNL     1      -2.097  -0.333   0.578  0.00  0.00    +0.173 HD
ATOM     11  C   UNL     1      -0.176  -0.668   1.156  0.00  0.00    +0.331 A 
ATOM     12  O   UNL     1      -0.276  -0.013   2.175  0.00  0.00    -0.246 OA
BRANCH   5  13
ATOM     13  N   UNL     1       2.331  -2.611  -0.581  0.00  0.00    -0.343 N 
ATOM     14  H   UNL     1       3.053  -2.602   0.067  0.00  0.00    +0.144 HD
ATOM     15  H   UNL     1       2.454  -3.046  -1.439  0.00  0.00    +0.144 HD
ENDBRANCH   5  13
BRANCH   4  16
ATOM     16  C   UNL     1       2.132  -1.116   1.779  0.00  0.00    +0.128 C 
BRANCH  16  17
ATOM     17  C   UNL     1       2.106  -2.242   2.814  0.00  0.00    +0.021 C 
BRANCH  17  19
ATOM     18  C   UNL     1       3.268  -3.214   4.801  0.00  0.00    +0.004 C 
ATOM     19  C   UNL     1       3.294  -2.088   3.766  0.00  0.00    -0.002 C 
ENDBRANCH  17  19
ENDBRANCH  16  17
ENDBRANCH   4  16
ENDBRANCH   1   6
BRANCH   1  20
ATOM     20  C   UNL     1       0.367  -4.350  -2.240  0.00  0.00    +0.110 C 
ATOM     21  C   UNL     1      -0.987  -5.061  -2.297  0.00  0.00    +0.025 C 
ENDBRANCH   1  20
BRANCH   2  22
ATOM     22  C   UNL     1       0.299  -3.084  -4.779  0.00  0.00    +0.019 C 
BRANCH  22  29
ATOM     23  C   UNL     1       1.209  -1.191  -5.973  0.00  0.00    -0.077 C 
ATOM     24  C   UNL     1       1.609  -0.768  -7.329  0.00  0.00    -0.001 C 
ATOM     25  C   UNL     1       0.404  -0.111  -8.049  0.00  0.00    +0.107 C 
ATOM     26  N   UNL     1      -0.590  -1.120  -8.345  0.00  0.00    -0.178 NA
ATOM     27  C   UNL     1      -1.671  -1.482  -7.404  0.00  0.00    +0.091 C 
ATOM     28  C   UNL     1      -1.154  -1.574  -5.956  0.00  0.00    -0.061 C 
ATOM     29  N   UNL     1       0.152  -2.217  -5.965  0.00  0.00    +0.386 N 
ATOM     30  H   UNL     1       0.236  -2.792  -6.811  0.00  0.00    -0.081 HD
BRANCH  26  31
ATOM     31  S   UNL     1      -0.515  -1.902  -9.803  0.00  0.00    +0.066 S 
ATOM     32  O   UNL     1      -1.826  -2.376 -10.078  0.00  0.00    -0.153 OA
ATOM     33  O   UNL     1       0.185  -1.040 -10.690  0.00  0.00    -0.153 OA
BRANCH  31  34
ATOM     34  C   UNL     1       0.499  -3.325  -9.578  0.00  0.00    +0.170 A 
ATOM     35  C   UNL     1       0.101  -4.626  -9.194  0.00  0.00    +0.107 A 
ATOM     36  N   UNL     1       1.184  -5.347  -9.158  0.00  0.00    -0.081 NA
ATOM     37  O   UNL     1       2.160  -4.698  -9.456  0.00  0.00    -0.358 OA
ATOM     38  C   UNL     1       1.840  -3.428  -9.740  0.00  0.00    +0.161 A 
ATOM     39  C   UNL     1       2.785  -2.330 -10.156  0.00  0.00    +0.091 C 
ATOM     40  C   UNL     1      -1.300  -5.087  -8.885  0.00  0.00    +0.071 C 
ENDBRANCH  31  34
ENDBRANCH  26  31
ENDBRANCH  22  29
ENDBRANCH   2  22
TORSDOF 10
