REMARK  Name = ZINC15349774
REMARK  9 active torsions:
REMARK  status: ('A' for Active; 'I' for Inactive)
REMARK    1  A    between atoms: C_1  and  C_2
REMARK    2  A    between atoms: C_2  and  C_3
REMARK    3  A    between atoms: C_3  and  C_4
REMARK    4  A    between atoms: C_4  and  C_5
REMARK    5  A    between atoms: C_5  and  C_6
REMARK    6  A    between atoms: C_6  and  N_7
REMARK    7  A    between atoms: C_16  and  S_17
REMARK    8  A    between atoms: S_17  and  C_18
REMARK    9  A    between atoms: C_18  and  C_19
REMARK                            x       y       z     vdW  Elec       q    Type
REMARK                         _______ _______ _______ _____ _____    ______ ____
ROOT
ATOM      1  N   UNL     1       2.406  -4.069  -0.749  0.00  0.00    -0.287 N 
ATOM      2  C   UNL     1       2.484  -2.725  -0.774  0.00  0.00    +0.263 A 
ATOM      3  O   UNL     1       3.520  -2.170  -1.097  0.00  0.00    -0.267 OA
ATOM      4  C   UNL     1       1.331  -1.958  -0.414  0.00  0.00    +0.076 A 
ATOM      5  C   UNL     1       1.195  -0.493  -0.373  0.00  0.00    -0.023 A 
ATOM      6  C   UNL     1       0.002  -0.004   0.002  0.00  0.00    -0.004 A 
ATOM      7  S   UNL     1      -1.004  -1.436   0.316  0.00  0.00    -0.073 S 
ATOM      8  C   UNL     1       0.191  -2.692  -0.057  0.00  0.00    +0.117 A 
ATOM      9  N   UNL     1       0.178  -4.020  -0.053  0.00  0.00    -0.216 NA
ATOM     10  C   UNL     1       1.253  -4.704  -0.389  0.00  0.00    +0.173 A 
ATOM     11  C   UNL     1      -0.018   1.501   0.010  0.00  0.00    +0.043 C 
ATOM     12  C   UNL     1       1.471   1.909  -0.002  0.00  0.00    +0.010 C 
ATOM     13  C   UNL     1       2.125   0.686  -0.673  0.00  0.00    +0.037 C 
ENDROOT
BRANCH   1  14
ATOM     14  C   UNL     1       3.581  -4.863  -1.115  0.00  0.00    +0.127 C 
BRANCH  14  15
ATOM     15  C   UNL     1       4.420  -5.139   0.134  0.00  0.00    +0.022 C 
BRANCH  15  16
ATOM     16  C   UNL     1       5.647  -5.969  -0.248  0.00  0.00    +0.002 C 
BRANCH  16  17
ATOM     17  C   UNL     1       6.486  -6.245   1.001  0.00  0.00    -0.000 C 
BRANCH  17  19
ATOM     18  C   UNL     1       8.552  -7.351   1.868  0.00  0.00    +0.004 C 
ATOM     19  C   UNL     1       7.713  -7.075   0.618  0.00  0.00    -0.003 C 
ENDBRANCH  17  19
ENDBRANCH  16  17
ENDBRANCH  15  16
ENDBRANCH  14  15
ENDBRANCH   1  14
BRANCH  10  20
ATOM     20  S   UNL     1       1.202  -6.466  -0.374  0.00  0.00    -0.081 S 
BRANCH  20  21
ATOM     21  C   UNL     1      -0.508  -6.725   0.160  0.00  0.00    +0.133 C 
BRANCH  21  22
ATOM     22  C   UNL     1      -0.788  -8.204   0.247  0.00  0.00    +0.059 A 
ATOM     23  C   UNL     1      -0.856  -8.821   1.481  0.00  0.00    +0.094 A 
ATOM     24  C   UNL     1      -1.124 -10.194   1.536  0.00  0.00    +0.259 A 
ATOM     25  O   UNL     1      -1.196 -10.769   2.611  0.00  0.00    -0.267 OA
ATOM     26  N   UNL     1      -1.295 -10.874   0.382  0.00  0.00    -0.268 N 
ATOM     27  C   UNL     1      -1.550 -12.211   0.419  0.00  0.00    +0.096 A 
ATOM     28  C   UNL     1      -1.725 -12.913  -0.723  0.00  0.00    +0.018 A 
ATOM     29  C   UNL     1      -1.646 -12.269  -1.965  0.00  0.00    +0.005 A 
ATOM     30  C   UNL     1      -1.392 -10.931  -2.013  0.00  0.00    +0.047 A 
ATOM     31  C   UNL     1      -1.212 -10.217  -0.814  0.00  0.00    +0.140 A 
ATOM     32  N   UNL     1      -0.963  -8.910  -0.859  0.00  0.00    -0.233 NA
ENDBRANCH  21  22
ENDBRANCH  20  21
ENDBRANCH  10  20
TORSDOF 8
