REMARK  Name = ZINC00875253
REMARK  10 active torsions:
REMARK  status: ('A' for Active; 'I' for Inactive)
REMARK    1  A    between atoms: C_1  and  C_2
REMARK    2  A    between atoms: C_4  and  C_36
REMARK    3  A    between atoms: C_7  and  C_14
REMARK    4  A    between atoms: C_14  and  N_15
REMARK    5  A    between atoms: N_15  and  C_16
REMARK    6  A    between atoms: N_15  and  C_26
REMARK    7  A    between atoms: C_16  and  C_17
REMARK    8  A    between atoms: C_26  and  N_28
REMARK    9  A    between atoms: N_28  and  C_29
REMARK   10  A    between atoms: C_29  and  C_30
REMARK                            x       y       z     vdW  Elec       q    Type
REMARK                         _______ _______ _______ _____ _____    ______ ____
ROOT
ATOM      1  N   UNL     1      -2.835   0.557   1.299  0.00  0.00    -0.304 N 
ENDROOT
BRANCH   1   2
ATOM      2  C   UNL     1      -3.570   1.527   1.879  0.00  0.00    +0.134 C 
ATOM      3  S   UNL     1      -3.856   1.491   3.566  0.00  0.00    -0.019 S 
BRANCH   2   4
ATOM      4  N   UNL     1      -4.080   2.524   1.130  0.00  0.00    -0.324 N 
ATOM      5  H   UNL     1      -3.918   2.545   0.173  0.00  0.00    +0.148 HD
BRANCH   4   6
ATOM      6  C   UNL     1      -4.880   3.578   1.760  0.00  0.00    +0.134 C 
BRANCH   6   7
ATOM      7  C   UNL     1      -5.334   4.579   0.695  0.00  0.00    +0.135 C 
ATOM      8  C   UNL     1      -6.072   5.766   1.353  0.00  0.00    +0.035 C 
ATOM      9  C   UNL     1      -7.204   6.103   0.357  0.00  0.00    +0.031 C 
ATOM     10  C   UNL     1      -7.015   5.080  -0.785  0.00  0.00    +0.160 C 
ATOM     11  O   UNL     1      -6.312   3.974  -0.178  0.00  0.00    -0.375 OA
ENDBRANCH   6   7
ENDBRANCH   4   6
ENDBRANCH   2   4
ENDBRANCH   1   2
BRANCH   1  12
ATOM     12  C   UNL     1      -2.347  -0.569   2.099  0.00  0.00    +0.147 C 
BRANCH  12  19
ATOM     13  C   UNL     1      -6.779  -7.047   0.676  0.00  0.00    +0.044 C 
ATOM     14  C   UNL     1      -5.801  -5.904   0.776  0.00  0.00    -0.048 A 
ATOM     15  C   UNL     1      -4.689  -5.877  -0.054  0.00  0.00    +0.007 A 
ATOM     16  C   UNL     1      -3.791  -4.850   0.021  0.00  0.00    -0.041 A 
ATOM     17  C   UNL     1      -3.993  -3.818   0.943  0.00  0.00    +0.002 A 
ATOM     18  C   UNL     1      -3.050  -2.703   1.050  0.00  0.00    +0.020 A 
ATOM     19  C   UNL     1      -3.298  -1.731   1.962  0.00  0.00    +0.035 A 
ATOM     20  C   UNL     1      -4.439  -1.806   2.789  0.00  0.00    +0.254 A 
ATOM     21  O   UNL     1      -4.640  -0.924   3.606  0.00  0.00    -0.268 OA
ATOM     22  N   UNL     1      -5.314  -2.823   2.694  0.00  0.00    -0.322 N 
ATOM     23  H   UNL     1      -6.090  -2.842   3.275  0.00  0.00    +0.169 HD
ATOM     24  C   UNL     1      -5.119  -3.842   1.786  0.00  0.00    +0.050 A 
ATOM     25  C   UNL     1      -6.021  -4.898   1.692  0.00  0.00    +0.029 A 
ATOM     26  C   UNL     1      -2.587  -4.830  -0.886  0.00  0.00    +0.044 C 
ENDBRANCH  12  19
ENDBRANCH   1  12
BRANCH   1  27
ATOM     27  C   UNL     1      -2.524   0.630  -0.131  0.00  0.00    +0.142 C 
BRANCH  27  28
ATOM     28  C   UNL     1      -1.258   1.423  -0.330  0.00  0.00    -0.026 A 
ATOM     29  C   UNL     1      -1.327   2.779  -0.592  0.00  0.00    +0.009 A 
ATOM     30  C   UNL     1      -0.169   3.509  -0.782  0.00  0.00    +0.050 A 
ATOM     31  C   UNL     1       1.065   2.885  -0.702  0.00  0.00    +0.166 A 
ATOM     32  C   UNL     1       1.135   1.521  -0.430  0.00  0.00    +0.167 A 
ATOM     33  C   UNL     1      -0.029   0.795  -0.242  0.00  0.00    +0.054 A 
ATOM     34  O   UNL     1       2.448   1.149  -0.403  0.00  0.00    -0.453 OA
ATOM     35  C   UNL     1       3.163   2.211  -1.064  0.00  0.00    +0.466 C 
ATOM     36  O   UNL     1       2.334   3.368  -0.846  0.00  0.00    -0.453 OA
ENDBRANCH  27  28
ENDBRANCH   1  27
TORSDOF 8
