REMARK  Name = ZINC38595959
REMARK  9 active torsions:
REMARK  status: ('A' for Active; 'I' for Inactive)
REMARK    1  A    between atoms: C_1  and  C_2
REMARK    2  A    between atoms: C_2  and  C_4
REMARK    3  A    between atoms: C_2  and  N_24
REMARK    4  A    between atoms: C_4  and  C_6
REMARK    5  A    between atoms: C_4  and  N_11
REMARK    6  A    between atoms: N_14  and  C_17
REMARK    7  A    between atoms: C_17  and  C_18
REMARK    8  A    between atoms: C_25  and  C_27
REMARK    9  A    between atoms: C_27  and  N_28
REMARK                            x       y       z     vdW  Elec       q    Type
REMARK                         _______ _______ _______ _____ _____    ______ ____
ROOT
ATOM      1  C   UNL     1      -1.427  -0.534   0.139  0.00  0.00    +0.113 C 
ENDROOT
BRANCH   1   2
ATOM      2  N   UNL     1      -2.143   0.192   1.196  0.00  0.00    -0.297 NA
ATOM      3  C   UNL     1      -3.579  -0.117   1.167  0.00  0.00    +0.066 C 
ATOM      4  C   UNL     1      -4.296   0.703   2.242  0.00  0.00    -0.063 C 
ATOM      5  N   UNL     1      -3.735   0.380   3.560  0.00  0.00    +0.384 N 
ATOM      6  C   UNL     1      -2.305   0.716   3.581  0.00  0.00    -0.063 C 
ATOM      7  C   UNL     1      -1.572  -0.103   2.517  0.00  0.00    +0.066 C 
ATOM      8  H   UNL     1      -3.851  -0.606   3.742  0.00  0.00    -0.081 HD
BRANCH   5   9
ATOM      9  C   UNL     1      -4.435   1.154   4.594  0.00  0.00    -0.043 C 
BRANCH   9  10
ATOM     10  C   UNL     1      -3.945   0.732   5.955  0.00  0.00    -0.064 A 
ATOM     11  C   UNL     1      -4.571  -0.302   6.625  0.00  0.00    +0.002 A 
ATOM     12  C   UNL     1      -4.121  -0.688   7.874  0.00  0.00    +0.000 A 
ATOM     13  C   UNL     1      -3.046  -0.041   8.452  0.00  0.00    +0.000 A 
ATOM     14  C   UNL     1      -2.419   0.993   7.782  0.00  0.00    +0.000 A 
ATOM     15  C   UNL     1      -2.866   1.377   6.531  0.00  0.00    +0.002 A 
ENDBRANCH   9  10
ENDBRANCH   5   9
ENDBRANCH   1   2
BRANCH   1  16
ATOM     16  C   UNL     1      -2.058  -0.230  -1.196  0.00  0.00    +0.009 A 
ATOM     17  C   UNL     1      -2.359  -1.077  -2.211  0.00  0.00    +0.013 A 
ATOM     18  C   UNL     1      -2.942  -0.570  -3.356  0.00  0.00    +0.008 A 
ATOM     19  C   UNL     1      -3.196   0.760  -3.431  0.00  0.00    +0.045 A 
ATOM     20  S   UNL     1      -2.610   1.338  -1.847  0.00  0.00    -0.100 S 
ENDBRANCH   1  16
BRANCH   1  22
ATOM     21  C   UNL     1       0.115   1.424  -0.041  0.00  0.00    +0.030 C 
ATOM     22  C   UNL     1       0.039  -0.096   0.121  0.00  0.00    +0.092 C 
BRANCH  22  23
ATOM     23  N   UNL     1       0.729  -0.742  -0.998  0.00  0.00    -0.310 N 
ATOM     24  C   UNL     1       2.062  -0.932  -0.949  0.00  0.00    +0.231 C 
ATOM     25  O   UNL     1       2.691  -0.570   0.023  0.00  0.00    -0.274 OA
ATOM     26  H   UNL     1       0.226  -1.032  -1.775  0.00  0.00    +0.149 HD
BRANCH  24  27
ATOM     27  C   UNL     1       2.772  -1.597  -2.100  0.00  0.00    +0.212 C 
BRANCH  27  28
ATOM     28  N   UNL     1       4.204  -1.687  -1.805  0.00  0.00    -0.225 N 
ATOM     29  C   UNL     1       5.107  -0.740  -2.120  0.00  0.00    +0.254 C 
ATOM     30  O   UNL     1       4.867   0.308  -2.685  0.00  0.00    -0.270 OA
ATOM     31  C   UNL     1       6.439  -1.189  -1.662  0.00  0.00    +0.049 A 
ATOM     32  C   UNL     1       7.712  -0.645  -1.710  0.00  0.00    +0.014 A 
ATOM     33  C   UNL     1       8.780  -1.347  -1.172  0.00  0.00    +0.001 A 
ATOM     34  C   UNL     1       8.582  -2.585  -0.589  0.00  0.00    +0.001 A 
ATOM     35  C   UNL     1       7.313  -3.141  -0.533  0.00  0.00    +0.014 A 
ATOM     36  C   UNL     1       6.237  -2.451  -1.067  0.00  0.00    +0.049 A 
ATOM     37  C   UNL     1       4.788  -2.724  -1.179  0.00  0.00    +0.254 C 
ATOM     38  O   UNL     1       4.221  -3.719  -0.774  0.00  0.00    -0.270 OA
ENDBRANCH  27  28
ENDBRANCH  24  27
ENDBRANCH  22  23
ENDBRANCH   1  22
TORSDOF 8
