REMARK  Name = ZINC05087560
REMARK  9 active torsions:
REMARK  status: ('A' for Active; 'I' for Inactive)
REMARK    1  A    between atoms: C_1  and  N_53
REMARK    2  A    between atoms: C_2  and  N_53
REMARK    3  A    between atoms: C_3  and  C_4
REMARK    4  A    between atoms: C_3  and  N_53
REMARK    5  A    between atoms: C_4  and  N_5
REMARK    6  A    between atoms: C_18  and  C_20
REMARK    7  A    between atoms: C_23  and  N_26
REMARK    8  A    between atoms: N_26  and  C_27
REMARK    9  A    between atoms: N_26  and  C_28
REMARK                            x       y       z     vdW  Elec       q    Type
REMARK                         _______ _______ _______ _____ _____    ______ ____
ROOT
ATOM      1  N   UNL     1      -0.534   0.726  -0.530  0.00  0.00    -0.248 N 
ATOM      2  C   UNL     1      -1.635  -0.036  -0.175  0.00  0.00    +0.168 A 
ATOM      3  N   UNL     1      -1.907  -1.283  -0.482  0.00  0.00    -0.224 NA
ATOM      4  C   UNL     1      -3.029  -1.907  -0.058  0.00  0.00    +0.084 A 
ATOM      5  C   UNL     1      -3.433  -3.238  -0.312  0.00  0.00    +0.078 A 
ATOM      6  C   UNL     1      -4.617  -3.727   0.191  0.00  0.00    +0.168 A 
ATOM      7  C   UNL     1      -5.454  -2.920   0.967  0.00  0.00    +0.167 A 
ATOM      8  C   UNL     1      -5.084  -1.613   1.233  0.00  0.00    +0.066 A 
ATOM      9  C   UNL     1      -3.902  -1.126   0.731  0.00  0.00    +0.044 A 
ATOM     10  S   UNL     1      -3.051   0.431   0.811  0.00  0.00    -0.052 S 
ATOM     11  O   UNL     1      -6.551  -3.645   1.330  0.00  0.00    -0.453 OA
ATOM     12  C   UNL     1      -6.580  -4.771   0.434  0.00  0.00    +0.466 C 
ATOM     13  O   UNL     1      -5.199  -4.960   0.074  0.00  0.00    -0.453 OA
ATOM     14  C   UNL     1      -0.438   2.005  -0.117  0.00  0.00    +0.252 C 
ATOM     15  O   UNL     1      -1.346   2.509   0.516  0.00  0.00    -0.270 OA
ENDROOT
BRANCH  14  16
ATOM     16  C   UNL     1       0.764   2.795  -0.439  0.00  0.00    +0.037 A 
ATOM     17  C   UNL     1       1.999   2.159  -0.597  0.00  0.00    +0.015 A 
ATOM     18  C   UNL     1       3.119   2.899  -0.902  0.00  0.00    +0.024 A 
ATOM     19  C   UNL     1       3.025   4.281  -1.042  0.00  0.00    +0.029 A 
ATOM     20  C   UNL     1       1.798   4.918  -0.880  0.00  0.00    +0.024 A 
ATOM     21  C   UNL     1       0.673   4.184  -0.580  0.00  0.00    +0.015 A 
BRANCH  19  22
ATOM     22  N   UNL     1       4.159   5.026  -1.344  0.00  0.00    -0.336 N 
ATOM     23  C   UNL     1       4.089   6.489  -1.369  0.00  0.00    +0.129 C 
ATOM     24  C   UNL     1       5.424   4.348  -1.637  0.00  0.00    +0.129 C 
ENDBRANCH  19  22
ENDBRANCH  14  16
BRANCH   1  25
ATOM     25  C   UNL     1       0.526   0.141  -1.355  0.00  0.00    +0.097 C 
BRANCH  25  26
ATOM     26  C   UNL     1       1.310  -0.880  -0.528  0.00  0.00    -0.060 C 
BRANCH  26  29
ATOM     27  C   UNL     1       3.406  -0.631  -1.715  0.00  0.00    -0.097 C 
ATOM     28  C   UNL     1       2.807  -2.770  -0.752  0.00  0.00    -0.097 C 
ATOM     29  N   UNL     1       2.290  -1.551  -1.408  0.00  0.00    +0.377 N 
ATOM     30  H   UNL     1       1.825  -1.815  -2.285  0.00  0.00    -0.083 HD
ENDBRANCH  26  29
ENDBRANCH  25  26
ENDBRANCH   1  25
TORSDOF 5
