REMARK  Name = ZINC10052117
REMARK  8 active torsions:
REMARK  status: ('A' for Active; 'I' for Inactive)
REMARK    1  A    between atoms: C_1  and  C_2
REMARK    2  A    between atoms: C_2  and  C_3
REMARK    3  A    between atoms: C_3  and  C_4
REMARK    4  A    between atoms: C_4  and  N_5
REMARK    5  A    between atoms: C_18  and  S_19
REMARK    6  A    between atoms: S_19  and  C_20
REMARK    7  A    between atoms: C_20  and  C_21
REMARK    8  A    between atoms: C_28  and  C_32
REMARK                            x       y       z     vdW  Elec       q    Type
REMARK                         _______ _______ _______ _____ _____    ______ ____
ROOT
ATOM      1  N   UNL     1      -0.675   1.545   3.712  0.00  0.00    -0.277 N 
ATOM      2  C   UNL     1      -0.317   2.724   4.260  0.00  0.00    +0.263 A 
ATOM      3  O   UNL     1       0.568   3.395   3.762  0.00  0.00    -0.267 OA
ATOM      4  C   UNL     1      -1.020   3.189   5.469  0.00  0.00    +0.064 A 
ATOM      5  C   UNL     1      -0.696   4.402   6.074  0.00  0.00    +0.015 A 
ATOM      6  C   UNL     1      -1.373   4.801   7.207  0.00  0.00    +0.001 A 
ATOM      7  C   UNL     1      -2.371   4.002   7.745  0.00  0.00    +0.002 A 
ATOM      8  C   UNL     1      -2.701   2.798   7.154  0.00  0.00    +0.027 A 
ATOM      9  C   UNL     1      -2.030   2.382   6.014  0.00  0.00    +0.064 A 
ATOM     10  N   UNL     1      -2.344   1.172   5.399  0.00  0.00    -0.256 N 
ATOM     11  C   UNL     1      -1.677   0.770   4.274  0.00  0.00    +0.240 A 
ATOM     12  N   UNL     1      -2.170  -0.393   3.910  0.00  0.00    -0.109 NA
ATOM     13  N   UNL     1      -3.174  -0.745   4.820  0.00  0.00    -0.120 NA
ATOM     14  C   UNL     1      -3.266   0.210   5.712  0.00  0.00    +0.198 A 
ENDROOT
BRANCH   1  15
ATOM     15  C   UNL     1       0.011   1.072   2.506  0.00  0.00    +0.128 C 
BRANCH  15  16
ATOM     16  C   UNL     1      -0.729   1.579   1.267  0.00  0.00    +0.021 C 
BRANCH  16  18
ATOM     17  C   UNL     1      -0.753   1.593  -1.232  0.00  0.00    +0.004 C 
ATOM     18  C   UNL     1      -0.013   1.086   0.008  0.00  0.00    -0.002 C 
ENDBRANCH  16  18
ENDBRANCH  15  16
ENDBRANCH   1  15
BRANCH  14  19
ATOM     19  S   UNL     1      -4.381   0.249   7.076  0.00  0.00    -0.079 S 
BRANCH  19  20
ATOM     20  C   UNL     1      -5.315  -1.299   6.923  0.00  0.00    +0.133 C 
BRANCH  20  21
ATOM     21  C   UNL     1      -6.318  -1.393   8.044  0.00  0.00    +0.059 A 
ATOM     22  C   UNL     1      -7.657  -1.166   7.793  0.00  0.00    +0.094 A 
ATOM     23  C   UNL     1      -8.570  -1.264   8.849  0.00  0.00    +0.259 A 
ATOM     24  O   UNL     1      -9.761  -1.075   8.659  0.00  0.00    -0.267 OA
ATOM     25  N   UNL     1      -8.113  -1.568  10.083  0.00  0.00    -0.268 N 
ATOM     26  C   UNL     1      -8.988  -1.663  11.122  0.00  0.00    +0.096 A 
ATOM     27  C   UNL     1      -8.554  -1.966  12.366  0.00  0.00    +0.021 A 
ATOM     28  C   UNL     1      -7.190  -2.187  12.601  0.00  0.00    -0.046 A 
ATOM     29  C   UNL     1      -6.306  -2.094  11.568  0.00  0.00    +0.050 A 
ATOM     30  C   UNL     1      -6.777  -1.778  10.281  0.00  0.00    +0.141 A 
ATOM     31  N   UNL     1      -5.914  -1.688   9.270  0.00  0.00    -0.233 NA
ATOM     32  C   UNL     1      -6.704  -2.524  13.987  0.00  0.00    +0.044 C 
ENDBRANCH  20  21
ENDBRANCH  19  20
ENDBRANCH  14  19
TORSDOF 6
