REMARK  Name = ZINC09692263
REMARK  11 active torsions:
REMARK  status: ('A' for Active; 'I' for Inactive)
REMARK    1  A    between atoms: C_1  and  C_2
REMARK    2  A    between atoms: C_2  and  C_3
REMARK    3  A    between atoms: C_12  and  S_14
REMARK    4  A    between atoms: S_14  and  N_17
REMARK    5  A    between atoms: N_17  and  C_18
REMARK    6  A    between atoms: C_18  and  C_20
REMARK    7  A    between atoms: C_18  and  C_27
REMARK    8  A    between atoms: C_20  and  C_21
REMARK    9  A    between atoms: N_29  and  C_30
REMARK   10  A    between atoms: C_33  and  C_37
REMARK   11  A    between atoms: C_35  and  C_36
REMARK                            x       y       z     vdW  Elec       q    Type
REMARK                         _______ _______ _______ _____ _____    ______ ____
ROOT
ATOM      1  C   UNL     1      -2.798   0.819   1.506  0.00  0.00    +0.167 C 
ENDROOT
BRANCH   1   2
ATOM      2  C   UNL     1      -3.957  -0.141   1.429  0.00  0.00    +0.236 C 
ATOM      3  O   UNL     1      -4.931   0.025   2.133  0.00  0.00    -0.274 OA
ATOM      4  N   UNL     1      -3.911  -1.185   0.578  0.00  0.00    -0.284 N 
ATOM      5  H   UNL     1      -3.171  -1.273  -0.043  0.00  0.00    +0.155 HD
BRANCH   4   6
ATOM      6  C   UNL     1      -4.931  -2.143   0.591  0.00  0.00    +0.036 A 
ATOM      7  C   UNL     1      -5.751  -2.272   1.704  0.00  0.00    +0.024 A 
ATOM      8  C   UNL     1      -6.757  -3.218   1.713  0.00  0.00    +0.005 A 
ATOM      9  C   UNL     1      -6.948  -4.038   0.615  0.00  0.00    -0.050 A 
ATOM     10  C   UNL     1      -6.133  -3.912  -0.494  0.00  0.00    +0.008 A 
ATOM     11  C   UNL     1      -5.129  -2.964  -0.512  0.00  0.00    -0.029 A 
ATOM     12  C   UNL     1      -4.245  -2.823  -1.725  0.00  0.00    +0.045 C 
ATOM     13  C   UNL     1      -8.046  -5.069   0.629  0.00  0.00    +0.044 C 
ENDBRANCH   4   6
ENDBRANCH   1   2
BRANCH   1  14
ATOM     14  N   UNL     1      -3.090   1.858   2.497  0.00  0.00    -0.178 NA
ATOM     15  H   UNL     1      -3.608   2.638   2.244  0.00  0.00    +0.149 HD
BRANCH  14  16
ATOM     16  S   UNL     1      -2.535   1.701   4.049  0.00  0.00    +0.059 S 
ATOM     17  O   UNL     1      -2.935   2.874   4.745  0.00  0.00    -0.153 OA
ATOM     18  O   UNL     1      -2.902   0.397   4.481  0.00  0.00    -0.153 OA
BRANCH  16  28
ATOM     19  C   UNL     1       4.307   2.561   3.906  0.00  0.00    +0.220 C 
ATOM     20  O   UNL     1       3.958   3.704   4.117  0.00  0.00    -0.275 OA
ATOM     21  N   UNL     1       3.383   1.588   3.777  0.00  0.00    -0.271 N 
ATOM     22  C   UNL     1       3.681   0.176   3.521  0.00  0.00    +0.118 C 
ATOM     23  C   UNL     1       2.312  -0.520   3.459  0.00  0.00    +0.056 C 
ATOM     24  C   UNL     1       1.310   0.588   3.693  0.00  0.00    -0.023 A 
ATOM     25  C   UNL     1       2.001   1.777   3.869  0.00  0.00    +0.040 A 
ATOM     26  C   UNL     1       1.282   2.950   4.102  0.00  0.00    +0.026 A 
ATOM     27  C   UNL     1      -0.096   2.923   4.156  0.00  0.00    +0.030 A 
ATOM     28  C   UNL     1      -0.775   1.732   3.979  0.00  0.00    +0.106 A 
ATOM     29  C   UNL     1      -0.070   0.565   3.753  0.00  0.00    +0.034 A 
BRANCH  19  31
ATOM     30  C   UNL     1       6.599   3.505   3.971  0.00  0.00    +0.013 C 
ATOM     31  C   UNL     1       5.772   2.231   3.787  0.00  0.00    +0.093 C 
ENDBRANCH  19  31
ENDBRANCH  16  28
ENDBRANCH  14  16
ENDBRANCH   1  14
BRANCH   1  32
ATOM     32  C   UNL     1      -2.581   1.467   0.137  0.00  0.00    +0.065 C 
BRANCH  32  33
ATOM     33  C   UNL     1      -1.351   2.336   0.182  0.00  0.00    -0.045 A 
ATOM     34  C   UNL     1      -0.103   1.778  -0.025  0.00  0.00    +0.004 A 
ATOM     35  C   UNL     1       1.026   2.576   0.011  0.00  0.00    +0.000 A 
ATOM     36  C   UNL     1       0.906   3.931   0.259  0.00  0.00    +0.000 A 
ATOM     37  C   UNL     1      -0.341   4.488   0.471  0.00  0.00    +0.000 A 
ATOM     38  C   UNL     1      -1.469   3.690   0.436  0.00  0.00    +0.004 A 
ENDBRANCH  32  33
ENDBRANCH   1  32
TORSDOF 8
