REMARK  Name = ZINC38906267
REMARK  5 active torsions:
REMARK  status: ('A' for Active; 'I' for Inactive)
REMARK    1  A    between atoms: C_6  and  C_7
REMARK    2  A    between atoms: N_13  and  N_14
REMARK    3  A    between atoms: C_15  and  C_16
REMARK    4  A    between atoms: C_19  and  O_23
REMARK    5  A    between atoms: C_20  and  O_22
REMARK                            x       y       z     vdW  Elec       q    Type
REMARK                         _______ _______ _______ _____ _____    ______ ____
ROOT
ATOM      1  C   UNL     1      -1.461  -0.878  -0.100  0.00  0.00    +0.264 C 
ATOM      2  N   UNL     1      -2.407  -0.111   0.725  0.00  0.00    -0.189 NA
ATOM      3  N   UNL     1      -2.574  -0.719   1.784  0.00  0.00    -0.219 N 
ATOM      4  C   UNL     1      -1.857  -1.873   1.863  0.00  0.00    +0.174 C 
ATOM      5  S   UNL     1      -1.867  -2.944   3.199  0.00  0.00    -0.015 S 
ATOM      6  N   UNL     1      -1.135  -2.052   0.732  0.00  0.00    -0.172 N 
ATOM      7  H   UNL     1      -3.158  -0.406   2.492  0.00  0.00    +0.176 HD
ENDROOT
BRANCH   1  13
ATOM      8  C   UNL     1      -0.312   1.305  -0.521  0.00  0.00    +0.009 A 
ATOM      9  C   UNL     1       0.825   2.050  -0.775  0.00  0.00    +0.020 A 
ATOM     10  C   UNL     1       2.053   1.422  -0.885  0.00  0.00    +0.041 A 
ATOM     11  C   UNL     1       2.142   0.049  -0.741  0.00  0.00    +0.020 A 
ATOM     12  C   UNL     1       1.005  -0.695  -0.487  0.00  0.00    +0.009 A 
ATOM     13  C   UNL     1      -0.221  -0.067  -0.377  0.00  0.00    -0.002 A 
ATOM     14 CL   UNL     1       3.480   2.357  -1.204  0.00  0.00    -0.084 Cl
ENDBRANCH   1  13
BRANCH   6  15
ATOM     15  N   UNL     1      -0.274  -3.112   0.419  0.00  0.00    -0.183 NA
ATOM     16  C   UNL     1      -0.182  -4.132   1.219  0.00  0.00    +0.138 C 
BRANCH  16  17
ATOM     17  C   UNL     1       0.799  -5.197   0.945  0.00  0.00    -0.002 A 
ATOM     18  C   UNL     1       1.635  -5.109  -0.171  0.00  0.00    +0.013 A 
ATOM     19  C   UNL     1       2.553  -6.106  -0.425  0.00  0.00    +0.050 A 
ATOM     20  C   UNL     1       2.648  -7.198   0.425  0.00  0.00    +0.158 A 
ATOM     21  C   UNL     1       1.818  -7.293   1.540  0.00  0.00    +0.159 A 
ATOM     22  C   UNL     1       0.899  -6.294   1.804  0.00  0.00    +0.058 A 
BRANCH  21  23
ATOM     23  O   UNL     1       1.914  -8.366   2.370  0.00  0.00    -0.503 OA
ATOM     24  H   UNL     1       2.543  -8.247   3.095  0.00  0.00    +0.292 HD
ENDBRANCH  21  23
BRANCH  20  25
ATOM     25  O   UNL     1       3.554  -8.179   0.169  0.00  0.00    -0.503 OA
ATOM     26  H   UNL     1       4.418  -8.034   0.580  0.00  0.00    +0.292 HD
ENDBRANCH  20  25
ENDBRANCH  16  17
ENDBRANCH   6  15
TORSDOF 5
