REMARK  Name = ZINC22758416
REMARK  9 active torsions:
REMARK  status: ('A' for Active; 'I' for Inactive)
REMARK    1  A    between atoms: C_1  and  C_2
REMARK    2  A    between atoms: C_2  and  C_3
REMARK    3  A    between atoms: C_2  and  C_4
REMARK    4  A    between atoms: C_4  and  C_5
REMARK    5  A    between atoms: C_5  and  N_6
REMARK    6  A    between atoms: N_18  and  C_21
REMARK    7  A    between atoms: C_21  and  N_22
REMARK    8  A    between atoms: N_22  and  C_23
REMARK    9  A    between atoms: N_22  and  C_24
REMARK                            x       y       z     vdW  Elec       q    Type
REMARK                         _______ _______ _______ _____ _____    ______ ____
ROOT
ATOM      1  N   UNL     1       1.115   0.652   2.736  0.00  0.00    -0.277 N 
ATOM      2  C   UNL     1       2.281   1.115   3.229  0.00  0.00    +0.263 A 
ATOM      3  O   UNL     1       2.772   2.139   2.794  0.00  0.00    -0.267 OA
ATOM      4  C   UNL     1       2.951   0.361   4.305  0.00  0.00    +0.064 A 
ATOM      5  C   UNL     1       4.157   0.797   4.849  0.00  0.00    +0.015 A 
ATOM      6  C   UNL     1       4.755   0.066   5.855  0.00  0.00    +0.001 A 
ATOM      7  C   UNL     1       4.162  -1.095   6.324  0.00  0.00    +0.002 A 
ATOM      8  C   UNL     1       2.967  -1.538   5.792  0.00  0.00    +0.027 A 
ATOM      9  C   UNL     1       2.352  -0.815   4.781  0.00  0.00    +0.064 A 
ATOM     10  N   UNL     1       1.145  -1.240   4.229  0.00  0.00    -0.257 N 
ATOM     11  C   UNL     1       0.540  -0.512   3.228  0.00  0.00    +0.238 A 
ATOM     12  N   UNL     1      -0.569  -1.115   2.894  0.00  0.00    -0.133 NA
ATOM     13  N   UNL     1      -0.702  -2.259   3.691  0.00  0.00    -0.255 N 
ATOM     14  C   UNL     1       0.375  -2.314   4.500  0.00  0.00    +0.182 A 
ATOM     15  S   UNL     1       0.698  -3.521   5.671  0.00  0.00    -0.011 S 
ENDROOT
BRANCH   1  16
ATOM     16  C   UNL     1       0.439   1.393   1.668  0.00  0.00    +0.128 C 
BRANCH  16  17
ATOM     17  C   UNL     1       0.925   0.885   0.309  0.00  0.00    +0.025 C 
BRANCH  17  19
ATOM     18  C   UNL     1       0.796   1.239  -2.161  0.00  0.00    +0.007 C 
ATOM     19  C   UNL     1       0.220   1.658  -0.807  0.00  0.00    -0.016 C 
ATOM     20  C   UNL     1      -1.278   1.351  -0.772  0.00  0.00    +0.007 C 
ENDBRANCH  17  19
ENDBRANCH  16  17
ENDBRANCH   1  16
BRANCH  13  21
ATOM     21  C   UNL     1      -1.803  -3.224   3.645  0.00  0.00    +0.072 C 
BRANCH  21  22
ATOM     22  N   UNL     1      -1.483  -4.286   2.682  0.00  0.00    +0.395 N 
ATOM     23  C   UNL     1      -1.426  -3.756   1.313  0.00  0.00    -0.093 C 
ATOM     24  H   UNL     1      -0.488  -4.682   2.933  0.00  0.00    -0.079 HD
BRANCH  22  25
ATOM     25  C   UNL     1      -2.446  -5.391   2.778  0.00  0.00    -0.035 C 
ATOM     26  C   UNL     1      -2.325  -6.089   4.149  0.00  0.00    -0.006 C 
ATOM     27  C   UNL     1      -1.321  -7.226   3.853  0.00  0.00    +0.034 C 
ATOM     28  C   UNL     1      -1.475  -7.516   2.375  0.00  0.00    -0.046 A 
ATOM     29  C   UNL     1      -2.122  -6.461   1.757  0.00  0.00    -0.058 A 
ATOM     30  C   UNL     1      -2.372  -6.508   0.396  0.00  0.00    +0.002 A 
ATOM     31  C   UNL     1      -1.978  -7.605  -0.346  0.00  0.00    +0.000 A 
ATOM     32  C   UNL     1      -1.332  -8.659   0.272  0.00  0.00    +0.000 A 
ATOM     33  C   UNL     1      -1.081  -8.614   1.630  0.00  0.00    +0.004 A 
ENDBRANCH  22  25
ENDBRANCH  21  22
ENDBRANCH  13  21
TORSDOF 6
