REMARK  Name = ZINC04004434
REMARK  5 active torsions:
REMARK  status: ('A' for Active; 'I' for Inactive)
REMARK    1  A    between atoms: C_1  and  C_2
REMARK    2  A    between atoms: C_7  and  N_8
REMARK    3  A    between atoms: C_12  and  N_17
REMARK    4  A    between atoms: N_17  and  C_18
REMARK    5  A    between atoms: C_18  and  C_19
REMARK                            x       y       z     vdW  Elec       q    Type
REMARK                         _______ _______ _______ _____ _____    ______ ____
ROOT
ATOM      1  N   UNL     1       0.026  -0.013   2.418  0.00  0.00    -0.229 N 
ATOM      2  C   UNL     1      -1.143   0.296   3.013  0.00  0.00    +0.263 A 
ATOM      3  O   UNL     1      -2.199  -0.024   2.495  0.00  0.00    -0.267 OA
ATOM      4  C   UNL     1      -1.138   0.989   4.234  0.00  0.00    +0.112 A 
ATOM      5  C   UNL     1       0.060   1.337   4.795  0.00  0.00    +0.105 A 
ATOM      6  N   UNL     1       1.228   1.001   4.154  0.00  0.00    -0.295 N 
ATOM      7  H   UNL     1       2.080   1.245   4.547  0.00  0.00    +0.172 HD
ATOM      8  C   UNL     1       1.195   0.331   2.987  0.00  0.00    +0.335 A 
ATOM      9  O   UNL     1       2.239   0.038   2.436  0.00  0.00    -0.246 OA
ENDROOT
BRANCH   1  16
ATOM     10  C   UNL     1      -0.018   1.503   0.010  0.00  0.00    +0.046 C 
ATOM     11  C   UNL     1       0.002  -0.004   0.002  0.00  0.00    -0.026 A 
ATOM     12  C   UNL     1       0.006  -0.689  -1.198  0.00  0.00    +0.005 A 
ATOM     13  C   UNL     1       0.024  -2.071  -1.206  0.00  0.00    +0.000 A 
ATOM     14  C   UNL     1       0.039  -2.773  -0.014  0.00  0.00    +0.002 A 
ATOM     15  C   UNL     1       0.036  -2.094   1.188  0.00  0.00    +0.026 A 
ATOM     16  C   UNL     1       0.023  -0.705   1.200  0.00  0.00    +0.057 A 
ENDBRANCH   1  16
BRANCH   5  17
ATOM     17  N   UNL     1       0.095   2.015   5.987  0.00  0.00    -0.326 N 
ATOM     18  H   UNL     1      -0.733   2.250   6.435  0.00  0.00    +0.148 HD
BRANCH  17  19
ATOM     19  C   UNL     1       1.381   2.384   6.582  0.00  0.00    +0.138 C 
BRANCH  19  20
ATOM     20  C   UNL     1       1.144   3.115   7.878  0.00  0.00    -0.027 A 
ATOM     21  C   UNL     1       1.004   4.490   7.879  0.00  0.00    +0.009 A 
ATOM     22  C   UNL     1       0.786   5.165   9.065  0.00  0.00    +0.050 A 
ATOM     23  C   UNL     1       0.706   4.464  10.258  0.00  0.00    +0.166 A 
ATOM     24  C   UNL     1       0.847   3.078  10.257  0.00  0.00    +0.167 A 
ATOM     25  C   UNL     1       1.060   2.408   9.063  0.00  0.00    +0.054 A 
ATOM     26  O   UNL     1       0.731   2.627  11.540  0.00  0.00    -0.453 OA
ATOM     27  C   UNL     1       0.926   3.785  12.373  0.00  0.00    +0.466 C 
ATOM     28  O   UNL     1       0.502   4.881  11.541  0.00  0.00    -0.453 OA
ENDBRANCH  19  20
ENDBRANCH  17  19
ENDBRANCH   5  17
TORSDOF 4
