REMARK  Name = ZINC10993183
REMARK  8 active torsions:
REMARK  status: ('A' for Active; 'I' for Inactive)
REMARK    1  A    between atoms: C_1  and  C_2
REMARK    2  A    between atoms: C_4  and  N_7
REMARK    3  A    between atoms: C_8  and  C_10
REMARK    4  A    between atoms: C_10  and  C_12
REMARK    5  A    between atoms: C_10  and  O_13
REMARK    6  A    between atoms: O_13  and  C_14
REMARK    7  A    between atoms: C_14  and  C_16
REMARK    8  A    between atoms: C_29  and  C_30
REMARK                            x       y       z     vdW  Elec       q    Type
REMARK                         _______ _______ _______ _____ _____    ______ ____
ROOT
ATOM      1  C   UNL     1      -0.768  -9.183  -0.895  0.00  0.00    +0.073 A 
ATOM      2  C   UNL     1      -1.942  -9.437  -0.059  0.00  0.00    +0.015 A 
ATOM      3  C   UNL     1      -2.980  -8.508   0.050  0.00  0.00    +0.011 A 
ATOM      4  C   UNL     1      -4.055  -8.787   0.841  0.00  0.00    +0.001 A 
ATOM      5  C   UNL     1      -4.131  -9.988   1.542  0.00  0.00    +0.002 A 
ATOM      6  C   UNL     1      -3.138 -10.915   1.459  0.00  0.00    +0.028 A 
ATOM      7  C   UNL     1      -2.012 -10.662   0.652  0.00  0.00    +0.072 A 
ATOM      8  N   UNL     1      -1.025 -11.550   0.550  0.00  0.00    -0.247 NA
ATOM      9  C   UNL     1       0.054 -11.348  -0.201  0.00  0.00    +0.072 A 
ATOM     10  C   UNL     1       0.210 -10.165  -0.945  0.00  0.00    -0.007 A 
ATOM     11  C   UNL     1       1.513 -10.209  -1.704  0.00  0.00    +0.043 C 
ATOM     12  C   UNL     1       2.165 -11.555  -1.361  0.00  0.00    +0.042 C 
ATOM     13  C   UNL     1       1.214 -12.233  -0.407  0.00  0.00    -0.018 C 
ATOM     14  C   UNL     1       1.389 -13.449   0.153  0.00  0.00    +0.052 C 
ENDROOT
BRANCH  14  15
ATOM     15  C   UNL     1       2.596 -14.222  -0.140  0.00  0.00    +0.128 A 
ATOM     16  C   UNL     1       2.896 -15.461   0.352  0.00  0.00    +0.049 A 
ATOM     17  C   UNL     1       4.142 -15.820  -0.188  0.00  0.00    +0.042 A 
ATOM     18  C   UNL     1       4.543 -14.800  -0.976  0.00  0.00    +0.195 A 
ATOM     19  O   UNL     1       3.605 -13.840  -0.949  0.00  0.00    -0.464 OA
ENDBRANCH  14  15
BRANCH   1  20
ATOM     20  C   UNL     1      -0.631  -7.927  -1.662  0.00  0.00    +0.341 C 
ATOM     21  O   UNL     1      -1.066  -7.857  -2.794  0.00  0.00    -0.245 OA
BRANCH  20  22
ATOM     22  O   UNL     1      -0.025  -6.860  -1.106  0.00  0.00    -0.449 OA
BRANCH  22  23
ATOM     23  C   UNL     1       0.071  -5.679  -1.905  0.00  0.00    +0.259 C 
ATOM     24  C   UNL     1       1.375  -5.710  -2.705  0.00  0.00    +0.062 C 
BRANCH  23  26
ATOM     25  N   UNL     1       0.039  -3.231  -1.552  0.00  0.00    -0.251 N 
ATOM     26  C   UNL     1       0.059  -4.466  -1.011  0.00  0.00    +0.260 C 
ATOM     27  O   UNL     1       0.068  -4.600   0.194  0.00  0.00    -0.271 OA
ATOM     28  H   UNL     1       0.033  -3.124  -2.516  0.00  0.00    +0.158 HD
BRANCH  25  32
ATOM     29  C   UNL     1      -0.018   1.503   0.010  0.00  0.00    +0.069 C 
ATOM     30  C   UNL     1       0.002  -0.004   0.002  0.00  0.00    +0.082 A 
ATOM     31  C   UNL     1       0.008  -0.820  -1.138  0.00  0.00    +0.092 A 
ATOM     32  C   UNL     1       0.028  -2.114  -0.729  0.00  0.00    +0.224 A 
ATOM     33  O   UNL     1       0.035  -2.120   0.615  0.00  0.00    -0.339 OA
ATOM     34  N   UNL     1       0.023  -0.774   1.055  0.00  0.00    -0.081 NA
ENDBRANCH  25  32
ENDBRANCH  23  26
ENDBRANCH  22  23
ENDBRANCH  20  22
ENDBRANCH   1  20
TORSDOF 6
