REMARK  Name = ZINC50784377
REMARK  5 active torsions:
REMARK  status: ('A' for Active; 'I' for Inactive)
REMARK    1  A    between atoms: C_4  and  C_7
REMARK    2  A    between atoms: C_7  and  N_8
REMARK    3  A    between atoms: N_11  and  C_14
REMARK    4  A    between atoms: N_19  and  C_22
REMARK    5  A    between atoms: C_26  and  N_28
REMARK                            x       y       z     vdW  Elec       q    Type
REMARK                         _______ _______ _______ _____ _____    ______ ____
ROOT
ATOM      1  C   UNL     1       5.502  -2.918   4.673  0.00  0.00    +0.153 C 
ATOM      2  C   UNL     1       6.782  -3.736   4.936  0.00  0.00    +0.125 C 
ATOM      3  C   UNL     1       7.636  -2.803   5.766  0.00  0.00    +0.228 C 
ATOM      4  O   UNL     1       8.742  -3.056   6.193  0.00  0.00    -0.275 OA
ATOM      5  N   UNL     1       6.977  -1.653   5.953  0.00  0.00    -0.209 N 
ATOM      6  C   UNL     1       5.763  -1.607   5.383  0.00  0.00    +0.244 C 
ATOM      7  O   UNL     1       4.998  -0.668   5.427  0.00  0.00    -0.273 OA
ENDROOT
BRANCH   1  11
ATOM      8  N   UNL     1       5.016  -1.079   0.898  0.00  0.00    +0.384 N 
ATOM      9  C   UNL     1       3.877  -1.819   1.457  0.00  0.00    -0.063 C 
ATOM     10  C   UNL     1       4.063  -1.976   2.968  0.00  0.00    +0.066 C 
ATOM     11  N   UNL     1       5.316  -2.697   3.232  0.00  0.00    -0.295 NA
ATOM     12  C   UNL     1       6.462  -1.980   2.657  0.00  0.00    +0.066 C 
ATOM     13  C   UNL     1       6.257  -1.823   1.149  0.00  0.00    -0.063 C 
ATOM     14  H   UNL     1       5.074  -0.172   1.335  0.00  0.00    -0.081 HD
BRANCH   8  15
ATOM     15  C   UNL     1       4.829  -0.913  -0.550  0.00  0.00    -0.043 C 
BRANCH  15  19
ATOM     16  C   UNL     1       1.412   1.546  -1.273  0.00  0.00    +0.000 A 
ATOM     17  C   UNL     1       2.661   2.122  -1.133  0.00  0.00    +0.000 A 
ATOM     18  C   UNL     1       3.767   1.326  -0.899  0.00  0.00    +0.002 A 
ATOM     19  C   UNL     1       3.623  -0.045  -0.804  0.00  0.00    -0.064 A 
ATOM     20  C   UNL     1       2.374  -0.621  -0.943  0.00  0.00    +0.002 A 
ATOM     21  C   UNL     1       1.269   0.175  -1.178  0.00  0.00    +0.000 A 
ENDBRANCH  15  19
ENDBRANCH   8  15
ENDBRANCH   1  11
BRANCH   5  22
ATOM     22  C   UNL     1       7.510  -0.584   6.687  0.00  0.00    +0.046 A 
ATOM     23  C   UNL     1       6.941  -0.220   7.900  0.00  0.00    +0.024 A 
ATOM     24  C   UNL     1       7.468   0.833   8.621  0.00  0.00    +0.004 A 
ATOM     25  C   UNL     1       8.562   1.526   8.135  0.00  0.00    +0.033 A 
ATOM     26  C   UNL     1       9.131   1.166   6.928  0.00  0.00    +0.128 A 
ATOM     27  C   UNL     1       8.612   0.110   6.205  0.00  0.00    +0.056 A 
BRANCH  26  28
ATOM     28  N   UNL     1      10.302   1.911   6.411  0.00  0.00    +0.056 N 
ATOM     29  O   UNL     1      10.760   2.832   7.045  0.00  0.00    -0.126 OA
ATOM     30  O   UNL     1      10.800   1.597   5.355  0.00  0.00    -0.126 OA
ENDBRANCH  26  28
ENDBRANCH   5  22
TORSDOF 5
