REMARK  Name = ZINC64637785
REMARK  12 active torsions:
REMARK  status: ('A' for Active; 'I' for Inactive)
REMARK    1  A    between atoms: C_1  and  C_2
REMARK    2  A    between atoms: N_8  and  C_9
REMARK    3  A    between atoms: C_9  and  C_10
REMARK    4  A    between atoms: C_10  and  N_11
REMARK    5  A    between atoms: C_12  and  C_14
REMARK    6  A    between atoms: C_14  and  C_15
REMARK    7  A    between atoms: C_21  and  C_23
REMARK    8  A    between atoms: C_25  and  C_34
REMARK    9  A    between atoms: C_26  and  C_30
REMARK   10  A    between atoms: C_27  and  C_29
REMARK   11  A    between atoms: C_30  and  O_32
REMARK   12  A    between atoms: O_32  and  C_33
REMARK                            x       y       z     vdW  Elec       q    Type
REMARK                         _______ _______ _______ _____ _____    ______ ____
ROOT
ATOM      1  C   UNL     1       6.856   0.942   4.826  0.00  0.00    +0.001 C 
ATOM      2  C   UNL     1       6.177   1.277   6.156  0.00  0.00    +0.023 C 
ATOM      3  C   UNL     1       6.926   0.580   7.296  0.00  0.00    +0.108 C 
ATOM      4  N   UNL     1       8.344   0.958   7.232  0.00  0.00    -0.297 N 
ATOM      5  C   UNL     1       9.070   0.763   5.969  0.00  0.00    +0.108 C 
ATOM      6  C   UNL     1       8.297   1.457   4.843  0.00  0.00    +0.023 C 
ATOM      7  C   UNL     1       8.967   1.475   8.309  0.00  0.00    +0.261 C 
ATOM      8  O   UNL     1       8.330   1.743   9.309  0.00  0.00    -0.269 OA
ENDROOT
BRANCH   7   9
ATOM      9  C   UNL     1      10.425   1.715   8.275  0.00  0.00    +0.111 C 
ATOM     10  N   UNL     1      11.251   1.366   7.333  0.00  0.00    -0.250 NA
ATOM     11  C   UNL     1      12.518   1.715   7.571  0.00  0.00    +0.049 C 
ATOM     12  C   UNL     1      12.656   2.361   8.752  0.00  0.00    +0.066 C 
ATOM     13  C   UNL     1      11.254   2.424   9.330  0.00  0.00    +0.078 C 
ATOM     14  C   UNL     1      11.185   1.678  10.664  0.00  0.00    +0.019 C 
ATOM     15  C   UNL     1      13.660   1.423   6.632  0.00  0.00    +0.066 C 
BRANCH  12  16
ATOM     16  C   UNL     1      13.890   2.889   9.342  0.00  0.00    +0.337 C 
ATOM     17  O   UNL     1      14.946   2.766   8.754  0.00  0.00    -0.245 OA
BRANCH  16  18
ATOM     18  O   UNL     1      13.853   3.511  10.539  0.00  0.00    -0.465 OA
ATOM     19  C   UNL     1      15.092   4.001  11.054  0.00  0.00    +0.280 C 
ENDBRANCH  16  18
ENDBRANCH  12  16
ENDBRANCH   7   9
BRANCH   1  20
ATOM     20  C   UNL     1       6.091   1.608   3.681  0.00  0.00    +0.099 C 
BRANCH  20  22
ATOM     21  N   UNL     1       3.851   1.447   2.643  0.00  0.00    -0.317 N 
ATOM     22  C   UNL     1       4.710   1.012   3.586  0.00  0.00    +0.213 C 
ATOM     23  O   UNL     1       4.372   0.140   4.358  0.00  0.00    -0.276 OA
ATOM     24  H   UNL     1       4.122   2.144   2.025  0.00  0.00    +0.149 HD
BRANCH  21  25
ATOM     25  C   UNL     1       2.509   0.868   2.550  0.00  0.00    +0.085 C 
BRANCH  25  26
ATOM     26  C   UNL     1       1.744   1.534   1.405  0.00  0.00    -0.059 C 
BRANCH  26  33
ATOM     27  C   UNL     1      -0.412   3.163   0.641  0.00  0.00    -0.013 C 
ATOM     28  C   UNL     1      -0.376   1.673   0.294  0.00  0.00    -0.072 C 
ATOM     29  C   UNL     1      -1.804   1.125   0.251  0.00  0.00    -0.016 C 
ATOM     30  C   UNL     1      -1.762  -0.366  -0.097  0.00  0.00    -0.003 C 
ATOM     31  C   UNL     1      -0.891  -1.096   0.930  0.00  0.00    -0.019 C 
ATOM     32  C   UNL     1       0.503  -0.465   0.948  0.00  0.00    -0.078 C 
ATOM     33  N   UNL     1       0.398   0.953   1.313  0.00  0.00    +0.382 N 
ATOM     34  H   UNL     1      -0.065   1.036   2.206  0.00  0.00    -0.081 HD
ENDBRANCH  26  33
ENDBRANCH  25  26
ENDBRANCH  21  25
ENDBRANCH  20  22
ENDBRANCH   1  20
TORSDOF 8
