REMARK  Name = ZINC15355720
REMARK  4 active torsions:
REMARK  status: ('A' for Active; 'I' for Inactive)
REMARK    1  A    between atoms: C_3  and  S_17
REMARK    2  A    between atoms: C_6  and  N_7
REMARK    3  A    between atoms: C_8  and  C_10
REMARK    4  A    between atoms: S_17  and  N_20
REMARK                            x       y       z     vdW  Elec       q    Type
REMARK                         _______ _______ _______ _____ _____    ______ ____
ROOT
ATOM      1  C   UNL     1      -0.013   1.374   0.194  0.00  0.00    +0.025 A 
ATOM      2  C   UNL     1       1.173   2.082   0.191  0.00  0.00    +0.031 A 
ATOM      3  C   UNL     1       2.374   1.421   0.003  0.00  0.00    +0.113 A 
ATOM      4  C   UNL     1       2.391   0.051  -0.183  0.00  0.00    +0.031 A 
ATOM      5  C   UNL     1       1.208  -0.662  -0.182  0.00  0.00    +0.025 A 
ATOM      6  C   UNL     1       0.001  -0.002   0.007  0.00  0.00    +0.034 A 
ENDROOT
BRANCH   6   7
ATOM      7  N   UNL     1      -1.198  -0.721   0.010  0.00  0.00    -0.281 N 
ATOM      8  C   UNL     1      -2.324  -0.156  -0.469  0.00  0.00    +0.250 C 
ATOM      9  O   UNL     1      -2.279   0.941  -0.991  0.00  0.00    -0.270 OA
ATOM     10  H   UNL     1      -1.220  -1.627   0.357  0.00  0.00    +0.155 HD
BRANCH   8  11
ATOM     11  C   UNL     1      -3.614  -0.870  -0.360  0.00  0.00    +0.056 A 
ATOM     12  C   UNL     1      -4.790  -0.296  -0.859  0.00  0.00    +0.031 A 
ATOM     13  C   UNL     1      -5.971  -1.006  -0.732  0.00  0.00    +0.037 A 
ATOM     14  C   UNL     1      -5.952  -2.249  -0.121  0.00  0.00    +0.126 A 
ATOM     15  N   UNL     1      -4.829  -2.764   0.340  0.00  0.00    -0.261 NA
ATOM     16  C   UNL     1      -3.679  -2.130   0.237  0.00  0.00    +0.123 A 
ATOM     17 BR   UNL     1      -7.594  -0.287  -1.384  0.00  0.00    -0.049 Br
ENDBRANCH   8  11
ENDBRANCH   6   7
BRANCH   3  18
ATOM     18  S   UNL     1       3.885   2.328  -0.001  0.00  0.00    +0.100 S 
ATOM     19  O   UNL     1       4.820   1.554  -0.740  0.00  0.00    -0.146 OA
ATOM     20  O   UNL     1       3.556   3.665  -0.351  0.00  0.00    -0.146 OA
BRANCH  18  21
ATOM     21  N   UNL     1       4.434   2.369   1.561  0.00  0.00    -0.118 NA
ATOM     22  C   UNL     1       5.539   2.980   1.842  0.00  0.00    +0.117 C 
ATOM     23  C   UNL     1       6.335   3.668   0.736  0.00  0.00    +0.073 C 
ATOM     24  C   UNL     1       6.229   5.160   0.968  0.00  0.00    +0.008 C 
ATOM     25  C   UNL     1       7.312   5.711   1.897  0.00  0.00    +0.002 C 
ATOM     26  C   UNL     1       7.566   4.822   3.115  0.00  0.00    +0.019 C 
ATOM     27  C   UNL     1       6.295   4.297   3.746  0.00  0.00    +0.102 C 
ATOM     28  N   UNL     1       5.978   3.014   3.085  0.00  0.00    -0.331 N 
ATOM     29  H   UNL     1       6.096   2.185   3.574  0.00  0.00    +0.147 HD
ENDBRANCH  18  21
ENDBRANCH   3  18
TORSDOF 4
