REMARK  Name = ZINC13671818
REMARK  14 active torsions:
REMARK  status: ('A' for Active; 'I' for Inactive)
REMARK    1  A    between atoms: C_1  and  C_2
REMARK    2  A    between atoms: C_5  and  S_8
REMARK    3  A    between atoms: S_8  and  N_11
REMARK    4  A    between atoms: N_11  and  C_12
REMARK    5  A    between atoms: N_11  and  C_29
REMARK    6  A    between atoms: C_12  and  C_13
REMARK    7  A    between atoms: N_15  and  C_16
REMARK    8  A    between atoms: C_16  and  C_18
REMARK    9  A    between atoms: C_16  and  C_19
REMARK   10  A    between atoms: C_22  and  C_25
REMARK   11  A    between atoms: C_25  and  C_26
REMARK   12  A    between atoms: C_25  and  C_27
REMARK   13  A    between atoms: C_25  and  C_28
REMARK   14  A    between atoms: C_34  and  C_35
REMARK                            x       y       z     vdW  Elec       q    Type
REMARK                         _______ _______ _______ _____ _____    ______ ____
ROOT
ATOM      1  N   UNL     1      -1.974   2.469   1.607  0.00  0.00    -0.194 N 
ENDROOT
BRANCH   1   2
ATOM      2  C   UNL     1      -1.561   3.622   2.278  0.00  0.00    +0.056 A 
ATOM      3  C   UNL     1      -0.403   3.603   3.046  0.00  0.00    +0.045 A 
ATOM      4  C   UNL     1       0.003   4.745   3.709  0.00  0.00    +0.043 A 
ATOM      5  C   UNL     1      -0.742   5.907   3.607  0.00  0.00    +0.020 A 
ATOM      6  C   UNL     1      -1.894   5.928   2.844  0.00  0.00    +0.006 A 
ATOM      7  C   UNL     1      -2.303   4.791   2.175  0.00  0.00    -0.028 A 
ATOM      8  C   UNL     1      -3.556   4.817   1.339  0.00  0.00    +0.046 C 
ATOM      9 CL   UNL     1       1.450   4.723   4.668  0.00  0.00    -0.083 Cl
ENDBRANCH   1   2
BRANCH   1  10
ATOM     10  S   UNL     1      -1.554   2.238   0.022  0.00  0.00    +0.075 S 
ATOM     11  O   UNL     1      -1.304   3.526  -0.523  0.00  0.00    -0.150 OA
ATOM     12  O   UNL     1      -2.519   1.353  -0.529  0.00  0.00    -0.150 OA
BRANCH  10  17
ATOM     13  C   UNL     1       3.711  -0.707  -0.038  0.00  0.00    +0.044 C 
ATOM     14  C   UNL     1       2.396   0.029  -0.022  0.00  0.00    -0.050 A 
ATOM     15  C   UNL     1       1.208  -0.679  -0.013  0.00  0.00    +0.005 A 
ATOM     16  C   UNL     1       0.002  -0.004   0.002  0.00  0.00    +0.029 A 
ATOM     17  C   UNL     1      -0.017   1.378   0.010  0.00  0.00    +0.109 A 
ATOM     18  C   UNL     1       1.171   2.086   0.002  0.00  0.00    +0.029 A 
ATOM     19  C   UNL     1       2.377   1.411  -0.015  0.00  0.00    +0.005 A 
ENDBRANCH  10  17
ENDBRANCH   1  10
BRANCH   1  20
ATOM     20  C   UNL     1      -2.779   1.463   2.305  0.00  0.00    +0.227 C 
BRANCH  20  21
ATOM     21  C   UNL     1      -1.870   0.525   3.056  0.00  0.00    +0.233 C 
ATOM     22  O   UNL     1      -0.668   0.681   3.013  0.00  0.00    -0.274 OA
ATOM     23  N   UNL     1      -2.393  -0.487   3.777  0.00  0.00    -0.307 N 
ATOM     24  H   UNL     1      -3.354  -0.612   3.811  0.00  0.00    +0.149 HD
BRANCH  23  25
ATOM     25  C   UNL     1      -1.509  -1.399   4.507  0.00  0.00    +0.100 C 
ATOM     26  C   UNL     1      -1.171  -0.797   5.872  0.00  0.00    +0.033 C 
BRANCH  25  27
ATOM     27  C   UNL     1      -2.203  -2.723   4.700  0.00  0.00    -0.027 A 
ATOM     28  C   UNL     1      -3.548  -2.759   5.017  0.00  0.00    +0.006 A 
ATOM     29  C   UNL     1      -4.185  -3.974   5.189  0.00  0.00    +0.004 A 
ATOM     30  C   UNL     1      -3.474  -5.152   5.055  0.00  0.00    -0.042 A 
ATOM     31  C   UNL     1      -2.128  -5.116   4.743  0.00  0.00    +0.004 A 
ATOM     32  C   UNL     1      -1.492  -3.901   4.566  0.00  0.00    +0.006 A 
BRANCH  30  33
ATOM     33  C   UNL     1      -4.167  -6.476   5.248  0.00  0.00    -0.013 C 
ATOM     34  C   UNL     1      -3.501  -7.237   6.397  0.00  0.00    +0.015 C 
ATOM     35  C   UNL     1      -5.641  -6.237   5.582  0.00  0.00    +0.015 C 
ATOM     36  C   UNL     1      -4.063  -7.300   3.963  0.00  0.00    +0.015 C 
ENDBRANCH  30  33
ENDBRANCH  25  27
ENDBRANCH  23  25
ENDBRANCH  20  21
ENDBRANCH   1  20
TORSDOF 8
