REMARK  Name = ZINC21539144
REMARK  9 active torsions:
REMARK  status: ('A' for Active; 'I' for Inactive)
REMARK    1  A    between atoms: C_1  and  C_2
REMARK    2  A    between atoms: C_2  and  O_3
REMARK    3  A    between atoms: O_3  and  C_4
REMARK    4  A    between atoms: C_4  and  C_6
REMARK    5  A    between atoms: C_10  and  C_15
REMARK    6  A    between atoms: N_16  and  C_17
REMARK    7  A    between atoms: C_17  and  C_18
REMARK    8  A    between atoms: N_21  and  C_24
REMARK    9  A    between atoms: C_24  and  C_25
REMARK                            x       y       z     vdW  Elec       q    Type
REMARK                         _______ _______ _______ _____ _____    ______ ____
ROOT
ATOM      1  C   UNL     1      -3.534   5.504   7.573  0.00  0.00    +0.202 A 
ATOM      2  C   UNL     1      -2.155   5.898   7.884  0.00  0.00    +0.115 A 
ATOM      3  C   UNL     1      -0.943   6.038   7.205  0.00  0.00    +0.136 A 
ATOM      4  N   UNL     1       0.123   6.435   7.899  0.00  0.00    -0.217 NA
ATOM      5  C   UNL     1       0.032   6.697   9.190  0.00  0.00    +0.132 A 
ATOM      6  N   UNL     1      -1.093   6.577   9.866  0.00  0.00    -0.195 NA
ATOM      7  C   UNL     1      -2.206   6.183   9.263  0.00  0.00    +0.264 A 
ATOM      8  O   UNL     1      -3.478   5.961   9.626  0.00  0.00    -0.334 OA
ATOM      9  N   UNL     1      -4.179   5.597   8.710  0.00  0.00    -0.068 NA
ATOM     10  C   UNL     1       1.269   7.148   9.923  0.00  0.00    +0.088 C 
ATOM     11  N   UNL     1      -0.850   5.768   5.854  0.00  0.00    -0.328 N 
ATOM     12  H   UNL     1      -1.715   5.353   5.315  0.00  0.00    +0.147 HD
ENDROOT
BRANCH   1  13
ATOM     13  C   UNL     1      -4.080   5.091   6.259  0.00  0.00    +0.362 C 
ATOM     14  O   UNL     1      -3.336   4.955   5.309  0.00  0.00    -0.243 OA
BRANCH  13  15
ATOM     15  O   UNL     1      -5.400   4.866   6.118  0.00  0.00    -0.460 OA
BRANCH  15  17
ATOM     16  C   UNL     1      -7.379   4.256   4.837  0.00  0.00    +0.048 C 
ATOM     17  C   UNL     1      -5.864   4.464   4.802  0.00  0.00    +0.229 C 
ENDBRANCH  15  17
ENDBRANCH  13  15
ENDBRANCH   1  13
BRANCH  11  18
ATOM     18  C   UNL     1       0.400   6.035   5.138  0.00  0.00    +0.106 C 
BRANCH  18  19
ATOM     19  C   UNL     1       0.236   5.650   3.666  0.00  0.00    +0.003 C 
ATOM     20  C   UNL     1       1.497   6.043   2.891  0.00  0.00    -0.014 C 
ATOM     21  C   UNL     1       1.353   5.601   1.433  0.00  0.00    -0.078 C 
ATOM     22  N   UNL     1       1.156   4.147   1.378  0.00  0.00    +0.382 N 
ATOM     23  C   UNL     1      -0.074   3.751   2.075  0.00  0.00    -0.078 C 
ATOM     24  C   UNL     1       0.028   4.137   3.553  0.00  0.00    -0.014 C 
ATOM     25  H   UNL     1       2.003   3.674   1.898  0.00  0.00    -0.081 HD
BRANCH  22  26
ATOM     26  C   UNL     1       1.152   3.668  -0.011  0.00  0.00    -0.043 C 
BRANCH  26  27
ATOM     27  C   UNL     1       1.195   2.162  -0.023  0.00  0.00    -0.064 A 
ATOM     28  C   UNL     1       0.018   1.436  -0.013  0.00  0.00    +0.003 A 
ATOM     29  C   UNL     1       0.058   0.055  -0.025  0.00  0.00    +0.020 A 
ATOM     30  C   UNL     1       1.275  -0.602  -0.047  0.00  0.00    +0.041 A 
ATOM     31  C   UNL     1       2.453   0.124  -0.057  0.00  0.00    +0.020 A 
ATOM     32  C   UNL     1       2.412   1.506  -0.045  0.00  0.00    +0.003 A 
ATOM     33 CL   UNL     1       1.325  -2.337  -0.061  0.00  0.00    -0.084 Cl
ENDBRANCH  26  27
ENDBRANCH  22  26
ENDBRANCH  18  19
ENDBRANCH  11  18
TORSDOF 7
