REMARK  Name = ZINC37538300
REMARK  9 active torsions:
REMARK  status: ('A' for Active; 'I' for Inactive)
REMARK    1  A    between atoms: C_1  and  C_2
REMARK    2  A    between atoms: C_7  and  C_32
REMARK    3  A    between atoms: C_8  and  C_10
REMARK    4  A    between atoms: C_10  and  C_11
REMARK    5  A    between atoms: C_12  and  O_25
REMARK    6  A    between atoms: C_14  and  O_24
REMARK    7  A    between atoms: C_18  and  O_23
REMARK    8  A    between atoms: C_29  and  C_30
REMARK    9  A    between atoms: C_29  and  C_31
REMARK                            x       y       z     vdW  Elec       q    Type
REMARK                         _______ _______ _______ _____ _____    ______ ____
ROOT
ATOM      1  C   UNL     1      -1.416  -1.395   3.487  0.00  0.00    +0.049 C 
ENDROOT
BRANCH   1   8
ATOM      2  C   UNL     1      -2.251  -0.409   0.940  0.00  0.00    +0.039 C 
ATOM      3  C   UNL     1      -1.092  -1.362   1.030  0.00  0.00    -0.073 C 
ATOM      4  C   UNL     1      -0.698  -1.974  -0.036  0.00  0.00    -0.027 C 
ATOM      5  C   UNL     1       0.423  -2.960  -0.085  0.00  0.00    +0.031 C 
ATOM      6  C   UNL     1       1.202  -3.098   1.232  0.00  0.00    +0.005 C 
ATOM      7  C   UNL     1       0.253  -2.938   2.417  0.00  0.00    -0.022 C 
ATOM      8  C   UNL     1      -0.414  -1.558   2.348  0.00  0.00    +0.023 C 
ATOM      9  C   UNL     1      -0.785  -4.054   2.404  0.00  0.00    +0.007 C 
ATOM     10  C   UNL     1      -0.081  -5.411   2.486  0.00  0.00    +0.001 C 
ATOM     11  C   UNL     1       0.863  -5.598   1.307  0.00  0.00    +0.007 C 
ATOM     12  C   UNL     1       1.881  -4.469   1.187  0.00  0.00    -0.031 C 
ATOM     13  C   UNL     1       2.575  -4.622  -0.189  0.00  0.00    +0.011 C 
ATOM     14  C   UNL     1       2.985  -4.623   2.233  0.00  0.00    +0.011 C 
ATOM     15  C   UNL     1       0.996  -2.953   3.761  0.00  0.00    +0.012 C 
ENDBRANCH   1   8
BRANCH   1  16
ATOM     16  C   UNL     1      -1.234  -0.021   4.134  0.00  0.00    +0.128 C 
ATOM     17  C   UNL     1      -0.960   1.095   3.155  0.00  0.00    +0.182 C 
ATOM     18  C   UNL     1      -1.069   2.478   3.765  0.00  0.00    +0.174 C 
ATOM     19  C   UNL     1      -2.237   2.591   4.692  0.00  0.00    -0.015 C 
ATOM     20  C   UNL     1      -3.097   3.564   4.518  0.00  0.00    +0.013 C 
ATOM     21  C   UNL     1      -2.452   1.622   5.815  0.00  0.00    +0.174 C 
ATOM     22  C   UNL     1      -2.046   0.213   5.394  0.00  0.00    +0.186 C 
ATOM     23  O   UNL     1      -0.628  -0.031   5.415  0.00  0.00    -0.359 OA
BRANCH  21  24
ATOM     24  O   UNL     1      -1.665   2.022   6.939  0.00  0.00    -0.385 OA
ATOM     25  H   UNL     1      -1.879   2.903   7.275  0.00  0.00    +0.210 HD
ENDBRANCH  21  24
BRANCH  18  26
ATOM     26  O   UNL     1       0.129   2.760   4.492  0.00  0.00    -0.385 OA
ATOM     27  H   UNL     1       0.137   3.631   4.914  0.00  0.00    +0.210 HD
ENDBRANCH  18  26
BRANCH  17  28
ATOM     28  O   UNL     1       0.360   0.931   2.633  0.00  0.00    -0.386 OA
ATOM     29  H   UNL     1       0.641   1.643   2.042  0.00  0.00    +0.210 HD
ENDBRANCH  17  28
ENDBRANCH   1  16
TORSDOF 5
