REMARK  Name = ZINC36685659
REMARK  9 active torsions:
REMARK  status: ('A' for Active; 'I' for Inactive)
REMARK    1  A    between atoms: C_1  and  C_2
REMARK    2  A    between atoms: C_5  and  S_8
REMARK    3  A    between atoms: S_8  and  C_11
REMARK    4  A    between atoms: C_11  and  C_12
REMARK    5  A    between atoms: N_14  and  C_15
REMARK    6  A    between atoms: C_16  and  C_27
REMARK    7  A    between atoms: N_21  and  C_24
REMARK    8  A    between atoms: C_24  and  C_25
REMARK    9  A    between atoms: C_24  and  C_26
REMARK                            x       y       z     vdW  Elec       q    Type
REMARK                         _______ _______ _______ _____ _____    ______ ____
ROOT
ATOM      1  C   UNL     1       3.315  -8.421  -0.062  0.00  0.00    +0.082 A 
ATOM      2  C   UNL     1       4.471  -9.187  -0.067  0.00  0.00    +0.039 A 
ATOM      3  C   UNL     1       4.329 -10.629  -0.076  0.00  0.00    -0.023 A 
ATOM      4  C   UNL     1       3.061 -11.107  -0.079  0.00  0.00    +0.009 A 
ATOM      5  S   UNL     1       2.034  -9.665  -0.061  0.00  0.00    -0.076 S 
ATOM      6  C   UNL     1       2.650 -12.546  -0.091  0.00  0.00    +0.127 C 
ATOM      7  N   UNL     1       3.826 -13.358  -0.456  0.00  0.00    -0.295 NA
ATOM      8  C   UNL     1       4.991 -12.976   0.354  0.00  0.00    +0.089 C 
ATOM      9  C   UNL     1       5.505 -11.601  -0.080  0.00  0.00    +0.052 C 
ENDROOT
BRANCH   2  10
ATOM     10  C   UNL     1       5.801  -8.554  -0.064  0.00  0.00    +0.112 A 
ATOM     11  N   UNL     1       6.988  -9.126  -0.074  0.00  0.00    -0.239 NA
ATOM     12  C   UNL     1       8.133  -8.414  -0.070  0.00  0.00    +0.079 A 
ATOM     13  C   UNL     1       9.463  -8.899  -0.079  0.00  0.00    +0.029 A 
ATOM     14  C   UNL     1      10.524  -8.033  -0.072  0.00  0.00    +0.002 A 
ATOM     15  C   UNL     1      10.338  -6.658  -0.056  0.00  0.00    +0.001 A 
ATOM     16  C   UNL     1       9.052  -6.148  -0.047  0.00  0.00    +0.017 A 
ATOM     17  C   UNL     1       7.982  -7.008  -0.054  0.00  0.00    +0.040 A 
ATOM     18  S   UNL     1       6.216  -6.816  -0.053  0.00  0.00    -0.067 S 
ENDBRANCH   2  10
BRANCH   1  21
ATOM     19  C   UNL     1       1.961  -6.474  -0.044  0.00  0.00    +0.239 C 
ATOM     20  O   UNL     1       0.972  -7.176  -0.042  0.00  0.00    -0.274 OA
ATOM     21  N   UNL     1       3.186  -7.037  -0.054  0.00  0.00    -0.278 N 
ATOM     22  H   UNL     1       3.977  -6.476  -0.055  0.00  0.00    +0.155 HD
BRANCH  19  23
ATOM     23  C   UNL     1       1.822  -4.974  -0.035  0.00  0.00    +0.267 C 
BRANCH  23  24
ATOM     24  S   UNL     1       0.063  -4.530  -0.023  0.00  0.00    +0.005 S 
ATOM     25  O   UNL     1      -0.528  -4.907   1.213  0.00  0.00    -0.169 OA
ATOM     26  O   UNL     1      -0.542  -4.894  -1.256  0.00  0.00    -0.169 OA
BRANCH  24  31
ATOM     27  C   UNL     1      -0.018   1.503   0.010  0.00  0.00    +0.044 C 
ATOM     28  C   UNL     1       0.002  -0.004   0.002  0.00  0.00    -0.050 A 
ATOM     29  C   UNL     1       0.006  -0.689  -1.199  0.00  0.00    +0.005 A 
ATOM     30  C   UNL     1       0.025  -2.071  -1.206  0.00  0.00    +0.027 A 
ATOM     31  C   UNL     1       0.040  -2.768  -0.013  0.00  0.00    +0.089 A 
ATOM     32  C   UNL     1       0.037  -2.084   1.188  0.00  0.00    +0.027 A 
ATOM     33  C   UNL     1       0.023  -0.702   1.195  0.00  0.00    +0.005 A 
ENDBRANCH  24  31
ENDBRANCH  23  24
ENDBRANCH  19  23
ENDBRANCH   1  21
BRANCH   7  34
ATOM     34  C   UNL     1       3.538 -14.792  -0.319  0.00  0.00    +0.051 C 
ATOM     35  C   UNL     1       2.314 -15.149  -1.165  0.00  0.00    +0.024 C 
ATOM     36  C   UNL     1       4.743 -15.603  -0.798  0.00  0.00    +0.024 C 
ENDBRANCH   7  34
TORSDOF 6
