REMARK  Name = ZINC02654172
REMARK  7 active torsions:
REMARK  status: ('A' for Active; 'I' for Inactive)
REMARK    1  A    between atoms: C_1  and  N_2
REMARK    2  A    between atoms: C_6  and  S_7
REMARK    3  A    between atoms: S_7  and  C_8
REMARK    4  A    between atoms: C_11  and  C_17
REMARK    5  A    between atoms: C_13  and  N_14
REMARK    6  A    between atoms: C_20  and  C_31
REMARK    7  A    between atoms: C_25  and  C_27
REMARK                            x       y       z     vdW  Elec       q    Type
REMARK                         _______ _______ _______ _____ _____    ______ ____
ROOT
ATOM      1  C   UNL     1       0.269  -5.303   6.217  0.00  0.00    +0.147 C 
ATOM      2  C   UNL     1       1.579  -6.055   5.953  0.00  0.00    +0.087 C 
ATOM      3  C   UNL     1       1.513  -6.817   4.659  0.00  0.00    +0.055 C 
ATOM      4  N   UNL     1       0.410  -7.358   4.216  0.00  0.00    -0.215 NA
ATOM      5  C   UNL     1      -0.740  -7.163   4.915  0.00  0.00    +0.250 A 
ATOM      6  N   UNL     1      -0.841  -6.193   5.877  0.00  0.00    -0.221 N 
ATOM      7  N   UNL     1      -2.132  -6.269   6.387  0.00  0.00    -0.143 NA
ATOM      8  C   UNL     1      -2.744  -7.226   5.729  0.00  0.00    +0.256 A 
ATOM      9  N   UNL     1      -1.903  -7.759   4.837  0.00  0.00    -0.186 NA
ENDROOT
BRANCH   3  10
ATOM     10  C   UNL     1       2.740  -6.960   3.861  0.00  0.00    -0.003 A 
ATOM     11  C   UNL     1       3.940  -6.398   4.310  0.00  0.00    +0.012 A 
ATOM     12  C   UNL     1       5.086  -6.535   3.558  0.00  0.00    +0.039 A 
ATOM     13  C   UNL     1       5.051  -7.229   2.357  0.00  0.00    +0.123 A 
ATOM     14  C   UNL     1       3.865  -7.788   1.906  0.00  0.00    +0.039 A 
ATOM     15  C   UNL     1       2.713  -7.663   2.652  0.00  0.00    +0.012 A 
ATOM     16  F   UNL     1       6.178  -7.360   1.624  0.00  0.00    -0.205 F 
ENDBRANCH   3  10
BRANCH   1  20
ATOM     17  C   UNL     1       0.101  -1.793   3.783  0.00  0.00    +0.046 A 
ATOM     18  C   UNL     1       0.215  -3.046   3.192  0.00  0.00    +0.018 A 
ATOM     19  C   UNL     1       0.269  -4.177   3.981  0.00  0.00    +0.007 A 
ATOM     20  C   UNL     1       0.210  -4.065   5.358  0.00  0.00    -0.020 A 
ATOM     21  C   UNL     1       0.096  -2.820   5.950  0.00  0.00    +0.039 A 
ATOM     22  C   UNL     1       0.048  -1.684   5.167  0.00  0.00    +0.140 A 
BRANCH  22  23
ATOM     23  N   UNL     1      -0.067  -0.351   5.801  0.00  0.00    +0.058 N 
ATOM     24  O   UNL     1      -0.114  -0.257   7.005  0.00  0.00    -0.126 OA
ATOM     25  O   UNL     1      -0.115   0.643   5.114  0.00  0.00    -0.126 OA
ENDBRANCH  22  23
BRANCH  17  26
ATOM     26  S   UNL     1       0.033  -0.347   2.779  0.00  0.00    -0.048 S 
BRANCH  26  32
ATOM     27  C   UNL     1      -1.521   2.281   1.508  0.00  0.00    +0.152 C 
ATOM     28  N   UNL     1      -2.222   1.220   2.235  0.00  0.00    -0.311 N 
ATOM     29  C   UNL     1      -3.562   1.140   2.490  0.00  0.00    +0.225 A 
ATOM     30  N   UNL     1      -3.765   0.041   3.161  0.00  0.00    -0.137 NA
ATOM     31  N   UNL     1      -2.652  -0.575   3.345  0.00  0.00    -0.122 NA
ATOM     32  C   UNL     1      -1.671   0.102   2.793  0.00  0.00    +0.196 A 
ENDBRANCH  26  32
ENDBRANCH  17  26
ENDBRANCH   1  20
BRANCH   8  33
ATOM     33  C   UNL     1      -4.172  -7.657   5.946  0.00  0.00    +0.454 C 
ATOM     34  F   UNL     1      -4.968  -7.179   4.899  0.00  0.00    -0.163 F 
ATOM     35  F   UNL     1      -4.237  -9.054   5.982  0.00  0.00    -0.163 F 
ATOM     36  F   UNL     1      -4.636  -7.137   7.160  0.00  0.00    -0.163 F 
ENDBRANCH   8  33
TORSDOF 6
