REMARK  Name = ZINC39945678
REMARK  13 active torsions:
REMARK  status: ('A' for Active; 'I' for Inactive)
REMARK    1  A    between atoms: C_1  and  C_2
REMARK    2  A    between atoms: C_10  and  C_14
REMARK    3  A    between atoms: C_14  and  O_15
REMARK    4  A    between atoms: O_15  and  C_16
REMARK    5  A    between atoms: C_16  and  C_18
REMARK    6  A    between atoms: C_18  and  C_20
REMARK    7  A    between atoms: C_18  and  N_24
REMARK    8  A    between atoms: C_20  and  C_22
REMARK    9  A    between atoms: C_20  and  O_23
REMARK   10  A    between atoms: N_24  and  S_25
REMARK   11  A    between atoms: S_25  and  C_28
REMARK   12  A    between atoms: C_31  and  O_34
REMARK   13  A    between atoms: O_34  and  C_35
REMARK                            x       y       z     vdW  Elec       q    Type
REMARK                         _______ _______ _______ _____ _____    ______ ____
ROOT
ATOM      1  C   UNL     1      -3.515  -7.579   6.069  0.00  0.00    +0.329 C 
ATOM      2  O   UNL     1      -2.948  -7.906   7.085  0.00  0.00    -0.249 OA
ENDROOT
BRANCH   1   3
ATOM      3  O   UNL     1      -2.932  -6.717   5.222  0.00  0.00    -0.456 OA
BRANCH   3   4
ATOM      4  C   UNL     1      -1.640  -6.226   5.584  0.00  0.00    +0.305 C 
BRANCH   4  13
ATOM      5  C   UNL     1       1.028   1.399   0.865  0.00  0.00    +0.007 C 
ATOM      6  C   UNL     1       0.976  -0.129   0.811  0.00  0.00    -0.012 C 
ATOM      7  C   UNL     1      -0.475  -0.576   0.652  0.00  0.00    +0.008 C 
ATOM      8  C   UNL     1      -0.552  -2.103   0.514  0.00  0.00    +0.033 C 
ATOM      9  C   UNL     1       0.203  -2.688   1.705  0.00  0.00    -0.042 C 
ATOM     10  C   UNL     1      -0.301  -3.572   2.567  0.00  0.00    +0.071 C 
ATOM     11  C   UNL     1       0.490  -3.901   3.782  0.00  0.00    +0.112 C 
ATOM     12  N   UNL     1       0.052  -4.725   4.704  0.00  0.00    -0.224 NA
ATOM     13  C   UNL     1      -1.147  -5.278   4.521  0.00  0.00    +0.161 C 
ATOM     14  N   UNL     1      -1.930  -5.067   3.496  0.00  0.00    -0.158 NA
ATOM     15  C   UNL     1      -1.638  -4.247   2.469  0.00  0.00    +0.271 C 
ATOM     16  O   UNL     1      -2.399  -4.069   1.533  0.00  0.00    -0.268 OA
ATOM     17  S   UNL     1       1.984  -2.976   3.610  0.00  0.00    -0.097 S 
ATOM     18  C   UNL     1       1.635  -2.223   1.974  0.00  0.00    +0.080 C 
ATOM     19  C   UNL     1       1.587  -0.698   2.095  0.00  0.00    +0.022 C 
ENDBRANCH   4  13
ENDBRANCH   3   4
ENDBRANCH   1   3
BRANCH   1  20
ATOM     20  C   UNL     1      -4.878  -8.140   5.754  0.00  0.00    +0.213 C 
BRANCH  20  21
ATOM     21  C   UNL     1      -4.821  -8.905   4.430  0.00  0.00    +0.141 C 
ATOM     22  C   UNL     1      -6.170  -9.580   4.172  0.00  0.00    +0.040 C 
BRANCH  21  23
ATOM     23  O   UNL     1      -4.533  -7.995   3.366  0.00  0.00    -0.390 OA
ATOM     24  H   UNL     1      -5.189  -7.292   3.262  0.00  0.00    +0.210 HD
ENDBRANCH  21  23
ENDBRANCH  20  21
BRANCH  20  25
ATOM     25  N   UNL     1      -5.292  -9.049   6.825  0.00  0.00    -0.174 NA
ATOM     26  H   UNL     1      -4.998  -9.974   6.817  0.00  0.00    +0.149 HD
BRANCH  25  27
ATOM     27  S   UNL     1      -6.262  -8.499   8.050  0.00  0.00    +0.059 S 
ATOM     28  O   UNL     1      -6.499  -9.606   8.909  0.00  0.00    -0.153 OA
ATOM     29  O   UNL     1      -5.683  -7.286   8.512  0.00  0.00    -0.153 OA
BRANCH  27  30
ATOM     30  C   UNL     1      -7.815  -8.075   7.334  0.00  0.00    +0.105 A 
ATOM     31  C   UNL     1      -8.001  -6.822   6.779  0.00  0.00    +0.032 A 
ATOM     32  C   UNL     1      -9.218  -6.488   6.218  0.00  0.00    +0.047 A 
ATOM     33  C   UNL     1     -10.254  -7.410   6.211  0.00  0.00    +0.120 A 
ATOM     34  C   UNL     1     -10.065  -8.667   6.767  0.00  0.00    +0.047 A 
ATOM     35  C   UNL     1      -8.845  -8.998   7.323  0.00  0.00    +0.032 A 
BRANCH  33  36
ATOM     36  O   UNL     1     -11.453  -7.083   5.659  0.00  0.00    -0.495 OA
ATOM     37  C   UNL     1     -12.474  -8.083   5.687  0.00  0.00    +0.277 C 
ENDBRANCH  33  36
ENDBRANCH  27  30
ENDBRANCH  25  27
ENDBRANCH  20  25
ENDBRANCH   1  20
TORSDOF 10
