REMARK  Name = ZINC23483077
REMARK  10 active torsions:
REMARK  status: ('A' for Active; 'I' for Inactive)
REMARK    1  A    between atoms: C_1  and  C_2
REMARK    2  A    between atoms: C_6  and  C_13
REMARK    3  A    between atoms: C_13  and  S_14
REMARK    4  A    between atoms: S_14  and  C_15
REMARK    5  A    between atoms: C_18  and  C_27
REMARK    6  A    between atoms: N_19  and  C_20
REMARK    7  A    between atoms: C_27  and  C_29
REMARK    8  A    between atoms: C_27  and  N_30
REMARK    9  A    between atoms: N_30  and  C_31
REMARK   10  A    between atoms: N_30  and  C_32
REMARK                            x       y       z     vdW  Elec       q    Type
REMARK                         _______ _______ _______ _____ _____    ______ ____
ROOT
ATOM      1  C   UNL     1       2.660  -2.731  -1.452  0.00  0.00    +0.196 A 
ATOM      2  N   UNL     1       2.708  -3.332  -0.286  0.00  0.00    -0.122 NA
ATOM      3  N   UNL     1       2.766  -4.606  -0.452  0.00  0.00    -0.135 NA
ATOM      4  C   UNL     1       2.768  -4.893  -1.722  0.00  0.00    +0.125 A 
ATOM      5  N   UNL     1       2.700  -3.709  -2.408  0.00  0.00    -0.275 N 
ENDROOT
BRANCH   5   6
ATOM      6  C   UNL     1       2.678  -3.535  -3.800  0.00  0.00    +0.050 A 
ATOM      7  C   UNL     1       1.607  -4.013  -4.543  0.00  0.00    +0.029 A 
ATOM      8  C   UNL     1       1.584  -3.836  -5.912  0.00  0.00    +0.040 A 
ATOM      9  C   UNL     1       2.634  -3.193  -6.546  0.00  0.00    +0.124 A 
ATOM     10  C   UNL     1       3.705  -2.720  -5.807  0.00  0.00    +0.040 A 
ATOM     11  C   UNL     1       3.729  -2.890  -4.437  0.00  0.00    +0.029 A 
ATOM     12  F   UNL     1       2.612  -3.026  -7.886  0.00  0.00    -0.205 F 
ENDBRANCH   5   6
BRANCH   4  13
ATOM     13  C   UNL     1       2.832  -6.272  -2.326  0.00  0.00    -0.003 C 
ATOM     14  C   UNL     1       1.473  -6.959  -2.175  0.00  0.00    -0.005 C 
BRANCH  13  15
ATOM     15  N   UNL     1       3.859  -7.062  -1.635  0.00  0.00    +0.382 N 
ATOM     16  C   UNL     1       3.950  -8.416  -2.199  0.00  0.00    -0.096 C 
ATOM     17  C   UNL     1       5.162  -6.385  -1.680  0.00  0.00    -0.096 C 
ATOM     18  H   UNL     1       3.562  -7.154  -0.580  0.00  0.00    -0.082 HD
ENDBRANCH  13  15
ENDBRANCH   4  13
BRANCH   1  19
ATOM     19  S   UNL     1       2.570  -0.994  -1.733  0.00  0.00    -0.081 S 
BRANCH  19  20
ATOM     20  C   UNL     1       2.557  -0.400  -0.024  0.00  0.00    +0.113 C 
BRANCH  20  26
ATOM     21  C   UNL     1      -2.555   3.853   0.047  0.00  0.00    +0.044 C 
ATOM     22  C   UNL     1      -1.231   3.133   0.031  0.00  0.00    -0.047 A 
ATOM     23  C   UNL     1      -1.204   1.746   0.017  0.00  0.00    +0.004 A 
ATOM     24  C   UNL     1      -0.013   1.076   0.008  0.00  0.00    +0.012 A 
ATOM     25  C   UNL     1       1.187   1.794   0.000  0.00  0.00    +0.022 A 
ATOM     26  C   UNL     1       2.481   1.105  -0.016  0.00  0.00    -0.020 A 
ATOM     27  C   UNL     1       3.609   1.860  -0.024  0.00  0.00    +0.097 A 
ATOM     28  C   UNL     1       3.510   3.269  -0.016  0.00  0.00    +0.338 A 
ATOM     29  O   UNL     1       4.530   3.935  -0.023  0.00  0.00    -0.245 OA
ATOM     30  O   UNL     1       2.322   3.892  -0.001  0.00  0.00    -0.422 OA
ATOM     31  C   UNL     1       1.163   3.200   0.008  0.00  0.00    +0.140 A 
ATOM     32  C   UNL     1      -0.059   3.860   0.023  0.00  0.00    +0.050 A 
ENDBRANCH  20  26
ENDBRANCH  19  20
ENDBRANCH   1  19
TORSDOF 6
