REMARK  Name = ZINC12801316
REMARK  12 active torsions:
REMARK  status: ('A' for Active; 'I' for Inactive)
REMARK    1  A    between atoms: C_1  and  C_2
REMARK    2  A    between atoms: C_2  and  C_3
REMARK    3  A    between atoms: C_2  and  N_4
REMARK    4  A    between atoms: N_4  and  S_5
REMARK    5  A    between atoms: S_5  and  C_8
REMARK    6  A    between atoms: C_8  and  C_9
REMARK    7  A    between atoms: C_12  and  C_15
REMARK    8  A    between atoms: C_15  and  N_16
REMARK    9  A    between atoms: C_17  and  C_19
REMARK   10  A    between atoms: C_22  and  C_25
REMARK   11  A    between atoms: C_25  and  S_26
REMARK   12  A    between atoms: S_26  and  C_27
REMARK                            x       y       z     vdW  Elec       q    Type
REMARK                         _______ _______ _______ _____ _____    ______ ____
ROOT
ATOM      1  N   UNL     1      -6.080  13.322   1.306  0.00  0.00    -0.307 N 
ATOM      2  C   UNL     1      -5.830  12.708   0.132  0.00  0.00    +0.244 C 
ATOM      3  O   UNL     1      -6.077  13.274  -0.915  0.00  0.00    -0.270 OA
ATOM      4  H   UNL     1      -5.884  12.870   2.141  0.00  0.00    +0.149 HD
ENDROOT
BRANCH   2   5
ATOM      5  C   UNL     1      -5.256  11.346   0.119  0.00  0.00    +0.037 A 
ATOM      6  C   UNL     1      -4.995  10.707  -1.095  0.00  0.00    +0.013 A 
ATOM      7  C   UNL     1      -4.458   9.436  -1.100  0.00  0.00    +0.005 A 
ATOM      8  C   UNL     1      -4.179   8.795   0.093  0.00  0.00    -0.037 A 
ATOM      9  C   UNL     1      -4.439   9.420   1.300  0.00  0.00    +0.005 A 
ATOM     10  C   UNL     1      -4.971  10.693   1.319  0.00  0.00    +0.013 A 
BRANCH   8  11
ATOM     11  C   UNL     1      -3.593   7.406   0.080  0.00  0.00    +0.111 C 
BRANCH  11  12
ATOM     12  S   UNL     1      -1.786   7.513   0.062  0.00  0.00    -0.094 S 
BRANCH  12  13
ATOM     13  C   UNL     1      -1.378   5.799   0.048  0.00  0.00    +0.136 A 
ATOM     14  N   UNL     1      -0.191   5.235   0.033  0.00  0.00    -0.233 NA
ATOM     15  C   UNL     1      -0.027   3.894   0.023  0.00  0.00    +0.079 A 
ATOM     16  C   UNL     1       1.184   3.163   0.007  0.00  0.00    +0.029 A 
ATOM     17  C   UNL     1       1.175   1.793   0.001  0.00  0.00    +0.002 A 
ATOM     18  C   UNL     1      -0.013   1.076   0.008  0.00  0.00    +0.001 A 
ATOM     19  C   UNL     1      -1.216   1.758   0.017  0.00  0.00    +0.017 A 
ATOM     20  C   UNL     1      -1.216   3.130   0.031  0.00  0.00    +0.040 A 
ATOM     21  S   UNL     1      -2.473   4.386   0.051  0.00  0.00    -0.061 S 
ENDBRANCH  12  13
ENDBRANCH  11  12
ENDBRANCH   8  11
ENDBRANCH   2   5
BRANCH   1  22
ATOM     22  C   UNL     1      -6.650  14.672   1.319  0.00  0.00    +0.139 C 
BRANCH  22  26
ATOM     23  C   UNL     1      -7.164  15.960   5.359  0.00  0.00    -0.025 A 
ATOM     24  C   UNL     1      -5.978  16.217   4.698  0.00  0.00    +0.005 A 
ATOM     25  C   UNL     1      -5.811  15.800   3.390  0.00  0.00    +0.005 A 
ATOM     26  C   UNL     1      -6.831  15.126   2.744  0.00  0.00    -0.030 A 
ATOM     27  C   UNL     1      -8.019  14.874   3.404  0.00  0.00    +0.005 A 
ATOM     28  C   UNL     1      -8.184  15.288   4.713  0.00  0.00    +0.005 A 
BRANCH  23  29
ATOM     29  C   UNL     1      -7.345  16.414   6.785  0.00  0.00    +0.220 C 
BRANCH  29  30
ATOM     30  S   UNL     1      -8.048  18.086   6.803  0.00  0.00    +0.034 S 
ATOM     31  O   UNL     1      -7.105  19.019   6.294  0.00  0.00    -0.158 OA
ATOM     32  O   UNL     1      -9.381  18.061   6.310  0.00  0.00    -0.158 OA
BRANCH  30  33
ATOM     33  N   UNL     1      -8.198  18.468   8.407  0.00  0.00    -0.192 NA
ATOM     34  H   UNL     1      -9.077  18.601   8.794  0.00  0.00    +0.148 HD
BRANCH  33  36
ATOM     35  C   UNL     1      -6.590  20.076   9.306  0.00  0.00    +0.025 C 
ATOM     36  C   UNL     1      -7.002  18.604   9.242  0.00  0.00    +0.070 C 
ATOM     37  C   UNL     1      -7.305  18.098  10.654  0.00  0.00    +0.025 C 
ENDBRANCH  33  36
ENDBRANCH  30  33
ENDBRANCH  29  30
ENDBRANCH  23  29
ENDBRANCH  22  26
ENDBRANCH   1  22
TORSDOF 10
