REMARK  Name = ZINC09714302
REMARK  8 active torsions:
REMARK  status: ('A' for Active; 'I' for Inactive)
REMARK    1  A    between atoms: C_1  and  C_2
REMARK    2  A    between atoms: C_5  and  C_36
REMARK    3  A    between atoms: C_6  and  C_8
REMARK    4  A    between atoms: C_8  and  N_9
REMARK    5  A    between atoms: N_17  and  C_35
REMARK    6  A    between atoms: C_26  and  C_27
REMARK    7  A    between atoms: C_26  and  N_68
REMARK    8  A    between atoms: C_28  and  C_29
REMARK                            x       y       z     vdW  Elec       q    Type
REMARK                         _______ _______ _______ _____ _____    ______ ____
ROOT
ATOM      1  N   UNL     1      -5.012   2.124  -5.502  0.00  0.00    -0.302 N 
ATOM      2  C   UNL     1      -5.577   2.779  -6.588  0.00  0.00    +0.153 A 
ATOM      3  C   UNL     1      -6.862   2.811  -7.159  0.00  0.00    +0.280 A 
ATOM      4  O   UNL     1      -7.767   2.154  -6.675  0.00  0.00    -0.265 OA
ATOM      5  N   UNL     1      -7.082   3.576  -8.248  0.00  0.00    -0.273 N 
ATOM      6  H   UNL     1      -7.994   3.601  -8.656  0.00  0.00    +0.173 HD
ATOM      7  C   UNL     1      -6.093   4.306  -8.792  0.00  0.00    +0.331 A 
ATOM      8  O   UNL     1      -6.327   4.984  -9.774  0.00  0.00    -0.246 OA
ATOM      9  N   UNL     1      -4.848   4.303  -8.278  0.00  0.00    -0.280 N 
ATOM     10  C   UNL     1      -4.561   3.537  -7.160  0.00  0.00    +0.170 A 
ATOM     11  N   UNL     1      -3.457   3.339  -6.439  0.00  0.00    -0.196 NA
ATOM     12  C   UNL     1      -3.707   2.499  -5.454  0.00  0.00    +0.201 A 
ATOM     13  N   UNL     1      -2.790   2.073  -4.521  0.00  0.00    -0.304 N 
ATOM     14  C   UNL     1      -1.419   2.194  -5.035  0.00  0.00    +0.089 C 
ATOM     15  C   UNL     1      -0.438   1.637  -4.001  0.00  0.00    -0.059 C 
ATOM     16  C   UNL     1      -1.962   2.253  -2.224  0.00  0.00    -0.059 C 
ATOM     17  C   UNL     1      -2.943   2.809  -3.258  0.00  0.00    +0.089 C 
ATOM     18  C   UNL     1      -3.797   5.112  -8.901  0.00  0.00    +0.155 C 
ATOM     19  N   UNL     1      -0.587   2.401  -2.744  0.00  0.00    +0.384 N 
ATOM     20  H   UNL     1      -0.406   3.394  -2.933  0.00  0.00    -0.081 HD
ENDROOT
BRANCH   1  21
ATOM     21  C   UNL     1      -5.692   1.206  -4.584  0.00  0.00    +0.160 C 
BRANCH  21  27
ATOM     22  C   UNL     1      -7.651  -2.250  -7.628  0.00  0.00    +0.044 C 
ATOM     23  C   UNL     1      -6.611  -1.839  -6.617  0.00  0.00    -0.050 A 
ATOM     24  C   UNL     1      -5.640  -2.739  -6.220  0.00  0.00    +0.003 A 
ATOM     25  C   UNL     1      -4.686  -2.363  -5.294  0.00  0.00    +0.004 A 
ATOM     26  C   UNL     1      -4.700  -1.084  -4.768  0.00  0.00    -0.046 A 
ATOM     27  C   UNL     1      -5.674  -0.186  -5.161  0.00  0.00    -0.025 A 
ATOM     28  C   UNL     1      -6.628  -0.563  -6.088  0.00  0.00    +0.009 A 
ATOM     29  C   UNL     1      -3.656  -0.671  -3.763  0.00  0.00    +0.044 C 
ENDBRANCH  21  27
ENDBRANCH   1  21
BRANCH  19  30
ATOM     30  C   UNL     1       0.388   1.919  -1.741  0.00  0.00    -0.051 C 
BRANCH  30  31
ATOM     31  C   UNL     1       0.368   2.850  -0.557  0.00  0.00    -0.045 C 
ATOM     32  C   UNL     1       0.210   2.365   0.666  0.00  0.00    +0.002 C 
BRANCH  32  33
ATOM     33  C   UNL     1       0.228   0.904   0.889  0.00  0.00    -0.025 A 
ATOM     34  C   UNL     1      -0.638   0.326   1.818  0.00  0.00    +0.008 A 
ATOM     35  C   UNL     1      -0.620  -1.039   2.018  0.00  0.00    +0.001 A 
ATOM     36  C   UNL     1       0.263  -1.833   1.307  0.00  0.00    +0.000 A 
ATOM     37  C   UNL     1       1.127  -1.266   0.389  0.00  0.00    +0.001 A 
ATOM     38  C   UNL     1       1.115   0.097   0.176  0.00  0.00    +0.008 A 
ENDBRANCH  32  33
ENDBRANCH  30  31
ENDBRANCH  19  30
TORSDOF 5
