REMARK  Name = ZINC38847412
REMARK  9 active torsions:
REMARK  status: ('A' for Active; 'I' for Inactive)
REMARK    1  A    between atoms: C_1  and  C_2
REMARK    2  A    between atoms: C_5  and  S_8
REMARK    3  A    between atoms: S_8  and  N_11
REMARK    4  A    between atoms: C_14  and  C_17
REMARK    5  A    between atoms: N_19  and  C_20
REMARK    6  A    between atoms: C_20  and  C_21
REMARK    7  A    between atoms: C_21  and  N_22
REMARK    8  A    between atoms: N_22  and  C_23
REMARK    9  A    between atoms: N_22  and  C_24
REMARK                            x       y       z     vdW  Elec       q    Type
REMARK                         _______ _______ _______ _____ _____    ______ ____
ROOT
ATOM      1  C   UNL     1       4.678  -8.046  -0.191  0.00  0.00    +0.224 C 
ATOM      2  O   UNL     1       4.386  -8.827  -1.072  0.00  0.00    -0.275 OA
ATOM      3  N   UNL     1       5.367  -8.473   0.886  0.00  0.00    -0.252 N 
ATOM      4  C   UNL     1       5.566  -7.623   1.962  0.00  0.00    +0.168 A 
ATOM      5  N   UNL     1       6.296  -7.812   3.036  0.00  0.00    -0.223 NA
ATOM      6  C   UNL     1       6.401  -6.887   4.015  0.00  0.00    +0.099 A 
ATOM      7  C   UNL     1       5.672  -5.694   3.810  0.00  0.00    +0.042 A 
ATOM      8  S   UNL     1       4.902  -5.987   2.236  0.00  0.00    -0.052 S 
ATOM      9  C   UNL     1       5.676  -4.660   4.712  0.00  0.00    +0.017 A 
ATOM     10  C   UNL     1       6.417  -4.769   5.874  0.00  0.00    +0.003 A 
ATOM     11  C   UNL     1       7.146  -5.926   6.109  0.00  0.00    +0.022 A 
ATOM     12  C   UNL     1       7.148  -6.965   5.213  0.00  0.00    +0.067 A 
ATOM     13 CL   UNL     1       8.077  -8.391   5.556  0.00  0.00    -0.081 Cl
ENDROOT
BRANCH   1  17
ATOM     14  N   UNL     1       2.552  -4.500  -1.101  0.00  0.00    -0.177 NA
ATOM     15  C   UNL     1       3.773  -4.733  -1.885  0.00  0.00    +0.110 C 
ATOM     16  C   UNL     1       4.153  -6.213  -1.777  0.00  0.00    +0.030 C 
ATOM     17  C   UNL     1       4.271  -6.600  -0.301  0.00  0.00    +0.078 C 
ATOM     18  C   UNL     1       2.921  -6.396   0.391  0.00  0.00    +0.030 C 
ATOM     19  C   UNL     1       2.529  -4.913   0.309  0.00  0.00    +0.110 C 
BRANCH  14  20
ATOM     20  S   UNL     1       1.230  -3.780  -1.791  0.00  0.00    +0.061 S 
ATOM     21  O   UNL     1       0.102  -4.184  -1.027  0.00  0.00    -0.153 OA
ATOM     22  O   UNL     1       1.326  -4.012  -3.190  0.00  0.00    -0.153 OA
BRANCH  20  27
ATOM     23  C   UNL     1       1.815   2.171  -0.988  0.00  0.00    +0.044 C 
ATOM     24  C   UNL     1       1.669   0.685  -1.189  0.00  0.00    -0.050 A 
ATOM     25  C   UNL     1       2.191   0.085  -2.320  0.00  0.00    +0.005 A 
ATOM     26  C   UNL     1       2.057  -1.278  -2.503  0.00  0.00    +0.029 A 
ATOM     27  C   UNL     1       1.402  -2.042  -1.556  0.00  0.00    +0.105 A 
ATOM     28  C   UNL     1       0.881  -1.443  -0.425  0.00  0.00    +0.029 A 
ATOM     29  C   UNL     1       1.018  -0.080  -0.239  0.00  0.00    +0.005 A 
ENDBRANCH  20  27
ENDBRANCH  14  20
ENDBRANCH   1  17
BRANCH   3  30
ATOM     30  C   UNL     1       5.904  -9.835   0.919  0.00  0.00    +0.097 C 
BRANCH  30  31
ATOM     31  C   UNL     1       7.356  -9.823   0.437  0.00  0.00    -0.060 C 
BRANCH  31  32
ATOM     32  N   UNL     1       7.858 -11.201   0.358  0.00  0.00    +0.377 N 
ATOM     33  C   UNL     1       9.210 -11.198  -0.217  0.00  0.00    -0.097 C 
ATOM     34  C   UNL     1       7.902 -11.784   1.706  0.00  0.00    -0.097 C 
ATOM     35  H   UNL     1       7.245 -11.750  -0.226  0.00  0.00    -0.083 HD
ENDBRANCH  31  32
ENDBRANCH  30  31
ENDBRANCH   3  30
TORSDOF 6
