REMARK  Name = ZINC65074786
REMARK  4 active torsions:
REMARK  status: ('A' for Active; 'I' for Inactive)
REMARK    1  A    between atoms: C_5  and  C_7
REMARK    2  A    between atoms: C_7  and  N_8
REMARK    3  A    between atoms: N_17  and  S_20
REMARK    4  A    between atoms: S_20  and  C_23
REMARK                            x       y       z     vdW  Elec       q    Type
REMARK                         _______ _______ _______ _____ _____    ______ ____
ROOT
ATOM      1  N   UNL     1       1.488  -2.679   1.333  0.00  0.00    -0.329 N 
ATOM      2  C   UNL     1       1.552  -4.027   1.571  0.00  0.00    +0.089 C 
ATOM      3  N   UNL     1       1.385  -4.824   0.585  0.00  0.00    -0.374 N 
ATOM      4  C   UNL     1       1.417  -6.278   0.702  0.00  0.00    +0.129 C 
ATOM      5  C   UNL     1       2.079  -6.684   2.021  0.00  0.00    +0.102 C 
ATOM      6  N   UNL     1       1.461  -5.909   3.111  0.00  0.00    -0.303 NA
ATOM      7  C   UNL     1       1.820  -4.488   2.976  0.00  0.00    +0.075 C 
ATOM      8  C   UNL     1       0.981  -3.663   3.956  0.00  0.00    +0.047 C 
ATOM      9  C   UNL     1       1.230  -4.166   5.382  0.00  0.00    +0.112 C 
ATOM     10  N   UNL     1       2.674  -4.133   5.650  0.00  0.00    -0.176 NA
ATOM     11  C   UNL     1       3.581  -4.816   4.717  0.00  0.00    +0.112 C 
ATOM     12  C   UNL     1       3.306  -4.306   3.299  0.00  0.00    +0.047 C 
ATOM     13  H   UNL     1       1.614  -2.051   2.062  0.00  0.00    +0.147 HD
ATOM     14  H   UNL     1       0.460  -6.033   3.121  0.00  0.00    +0.123 HD
ATOM     15  H   UNL     1       1.227  -4.440  -0.292  0.00  0.00    +0.161 HD
ENDROOT
BRANCH  10  16
ATOM     16  S   UNL     1       3.268  -3.343   6.978  0.00  0.00    +0.067 S 
ATOM     17  O   UNL     1       4.617  -3.006   6.681  0.00  0.00    -0.152 OA
ATOM     18  O   UNL     1       2.301  -2.365   7.335  0.00  0.00    -0.152 OA
BRANCH  16  19
ATOM     19  C   UNL     1       3.319  -4.508   8.299  0.00  0.00    +0.144 A 
ATOM     20  C   UNL     1       4.325  -5.339   8.665  0.00  0.00    +0.038 A 
ATOM     21  C   UNL     1       4.140  -6.179   9.748  0.00  0.00    +0.030 A 
ATOM     22  C   UNL     1       2.958  -6.145  10.411  0.00  0.00    +0.080 A 
ATOM     23  S   UNL     1       2.062  -4.894   9.506  0.00  0.00    -0.057 S 
ATOM     24 CL   UNL     1       2.450  -7.072  11.788  0.00  0.00    -0.076 Cl
ENDBRANCH  16  19
ENDBRANCH  10  16
BRANCH   1  25
ATOM     25  C   UNL     1       1.228  -2.186  -0.022  0.00  0.00    +0.140 C 
BRANCH  25  30
ATOM     26  C   UNL     1      -0.017   1.378   0.010  0.00  0.00    +0.000 A 
ATOM     27  C   UNL     1       1.171   2.087   0.002  0.00  0.00    +0.003 A 
ATOM     28  C   UNL     1       2.377   1.414  -0.013  0.00  0.00    +0.038 A 
ATOM     29  C   UNL     1       2.397   0.029  -0.021  0.00  0.00    +0.128 A 
ATOM     30  C   UNL     1       1.208  -0.679  -0.013  0.00  0.00    +0.005 A 
ATOM     31  C   UNL     1       0.002  -0.004   0.002  0.00  0.00    +0.008 A 
ATOM     32  F   UNL     1       3.577  -0.630  -0.036  0.00  0.00    -0.205 F 
ENDBRANCH  25  30
ENDBRANCH   1  25
TORSDOF 4
