REMARK  Name = ZINC04571681
REMARK  6 active torsions:
REMARK  status: ('A' for Active; 'I' for Inactive)
REMARK    1  A    between atoms: C_1  and  C_2
REMARK    2  A    between atoms: C_11  and  O_26
REMARK    3  A    between atoms: C_13  and  C_16
REMARK    4  A    between atoms: C_18  and  O_24
REMARK    5  A    between atoms: C_19  and  O_23
REMARK    6  A    between atoms: O_24  and  C_25
REMARK                            x       y       z     vdW  Elec       q    Type
REMARK                         _______ _______ _______ _____ _____    ______ ____
ROOT
ATOM      1  C   UNL     1      -0.019   1.526   0.010  0.00  0.00    +0.008 C 
ATOM      2  C   UNL     1       0.002  -0.004   0.002  0.00  0.00    -0.009 C 
ATOM      3  C   UNL     1       0.724  -0.500  -1.254  0.00  0.00    +0.008 C 
ATOM      4  C   UNL     1       0.537  -2.012  -1.399  0.00  0.00    +0.037 C 
ATOM      5  C   UNL     1       0.940  -2.682  -0.093  0.00  0.00    -0.023 A 
ATOM      6  C   UNL     1       1.023  -1.976   1.058  0.00  0.00    -0.004 A 
ATOM      7  S   UNL     1       1.517  -3.160   2.280  0.00  0.00    -0.078 S 
ATOM      8  C   UNL     1       1.614  -4.514   1.327  0.00  0.00    +0.080 A 
ATOM      9  C   UNL     1       1.261  -4.091   0.040  0.00  0.00    +0.068 A 
ATOM     10  C   UNL     1       1.246  -5.114  -1.037  0.00  0.00    +0.220 C 
ATOM     11  N   UNL     1       1.795  -6.271  -0.782  0.00  0.00    -0.223 NA
ATOM     12  C   UNL     1       2.478  -6.605   0.462  0.00  0.00    +0.224 C 
ATOM     13  N   UNL     1       1.956  -5.820   1.596  0.00  0.00    -0.313 N 
ATOM     14  C   UNL     1       0.750  -0.515   1.242  0.00  0.00    +0.046 C 
ATOM     15  H   UNL     1       1.859  -6.202   2.482  0.00  0.00    +0.149 HD
ENDROOT
BRANCH  12  16
ATOM     16  C   UNL     1       3.950  -6.322   0.307  0.00  0.00    -0.000 A 
ATOM     17  C   UNL     1       4.545  -6.428  -0.937  0.00  0.00    +0.056 A 
ATOM     18  C   UNL     1       5.898  -6.170  -1.082  0.00  0.00    +0.163 A 
ATOM     19  C   UNL     1       6.656  -5.803   0.026  0.00  0.00    +0.177 A 
ATOM     20  C   UNL     1       6.054  -5.699   1.270  0.00  0.00    +0.086 A 
ATOM     21  C   UNL     1       4.701  -5.953   1.407  0.00  0.00    +0.031 A 
ATOM     22 CL   UNL     1       6.996  -5.242   2.655  0.00  0.00    -0.080 Cl
BRANCH  19  23
ATOM     23  O   UNL     1       7.986  -5.549  -0.112  0.00  0.00    -0.502 OA
ATOM     24  H   UNL     1       8.191  -4.625  -0.310  0.00  0.00    +0.292 HD
ENDBRANCH  19  23
BRANCH  18  25
ATOM     25  O   UNL     1       6.485  -6.275  -2.304  0.00  0.00    -0.491 OA
ATOM     26  C   UNL     1       5.645  -6.656  -3.396  0.00  0.00    +0.277 C 
ENDBRANCH  18  25
ENDBRANCH  12  16
BRANCH  10  27
ATOM     27  O   UNL     1       0.683  -4.857  -2.240  0.00  0.00    -0.492 OA
ATOM     28  H   UNL     1       0.731  -5.595  -2.863  0.00  0.00    +0.294 HD
ENDBRANCH  10  27
TORSDOF 4
