REMARK  Name = ZINC41084210
REMARK  7 active torsions:
REMARK  status: ('A' for Active; 'I' for Inactive)
REMARK    1  A    between atoms: C_1  and  C_2
REMARK    2  A    between atoms: C_7  and  O_8
REMARK    3  A    between atoms: O_8  and  C_9
REMARK    4  A    between atoms: C_9  and  C_10
REMARK    5  A    between atoms: C_10  and  N_11
REMARK    6  A    between atoms: C_13  and  C_20
REMARK    7  A    between atoms: C_30  and  C_32
REMARK                            x       y       z     vdW  Elec       q    Type
REMARK                         _______ _______ _______ _____ _____    ______ ____
ROOT
ATOM      1  N   UNL     1      -0.360  -1.180   5.591  0.00  0.00    -0.343 N 
ATOM      2  C   UNL     1      -1.344  -1.454   6.470  0.00  0.00    +0.095 A 
ATOM      3  C   UNL     1      -0.797  -1.970   7.630  0.00  0.00    +0.001 A 
ATOM      4  C   UNL     1       0.663  -2.005   7.415  0.00  0.00    +0.007 A 
ATOM      5  C   UNL     1       0.873  -1.504   6.121  0.00  0.00    +0.050 A 
ATOM      6  C   UNL     1       2.170  -1.419   5.625  0.00  0.00    +0.026 A 
ATOM      7  C   UNL     1       3.232  -1.828   6.403  0.00  0.00    +0.002 A 
ATOM      8  C   UNL     1       3.022  -2.326   7.680  0.00  0.00    +0.001 A 
ATOM      9  C   UNL     1       1.744  -2.410   8.192  0.00  0.00    +0.010 A 
ENDROOT
BRANCH   3  10
ATOM     10  C   UNL     1      -1.495  -2.381   8.788  0.00  0.00    +0.026 C 
ATOM     11  C   UNL     1      -2.639  -1.710   9.181  0.00  0.00    +0.081 C 
ATOM     12  C   UNL     1      -3.500  -2.211  10.286  0.00  0.00    +0.153 C 
ATOM     13  N   UNL     1      -3.033  -2.849  11.328  0.00  0.00    -0.283 NA
ATOM     14  N   UNL     1      -4.870  -1.927  10.102  0.00  0.00    -0.152 N 
ATOM     15  C   UNL     1      -5.196  -0.869   9.280  0.00  0.00    +0.181 C 
ATOM     16  N   UNL     1      -4.382  -0.138   8.561  0.00  0.00    -0.152 NA
ATOM     17  C   UNL     1      -3.069  -0.452   8.527  0.00  0.00    +0.273 C 
ATOM     18  O   UNL     1      -2.260   0.275   7.972  0.00  0.00    -0.268 OA
ATOM     19  S   UNL     1      -6.960  -0.793   9.446  0.00  0.00    -0.033 S 
ATOM     20  C   UNL     1      -7.158  -2.220  10.505  0.00  0.00    +0.131 C 
ATOM     21  N   UNL     1      -5.919  -2.610  10.681  0.00  0.00    -0.164 NA
ATOM     22  H   UNL     1      -3.639  -3.155  12.021  0.00  0.00    +0.188 HD
BRANCH  20  23
ATOM     23  C   UNL     1      -8.403  -2.809  11.046  0.00  0.00    +0.027 A 
ATOM     24  C   UNL     1      -9.648  -2.248  10.739  0.00  0.00    +0.013 A 
ATOM     25  C   UNL     1     -10.782  -2.837  11.270  0.00  0.00    +0.020 A 
ATOM     26  C   UNL     1     -10.650  -3.951  12.080  0.00  0.00    +0.111 A 
ATOM     27  N   UNL     1      -9.463  -4.458  12.352  0.00  0.00    -0.263 NA
ATOM     28  C   UNL     1      -8.356  -3.937  11.866  0.00  0.00    +0.121 A 
ENDBRANCH  20  23
ENDBRANCH   3  10
BRANCH   1  29
ATOM     29  C   UNL     1      -0.571  -0.620   4.254  0.00  0.00    +0.163 C 
BRANCH  29  30
ATOM     30  C   UNL     1      -0.639  -1.756   3.231  0.00  0.00    +0.250 C 
BRANCH  30  31
ATOM     31  O   UNL     1      -0.845  -1.210   1.926  0.00  0.00    -0.490 OA
BRANCH  31  38
ATOM     32  C   UNL     1      -1.252  -0.150  -0.661  0.00  0.00    +0.047 C 
ATOM     33  C   UNL     1      -1.128  -1.629  -0.398  0.00  0.00    -0.009 A 
ATOM     34  C   UNL     1      -1.207  -2.526  -1.446  0.00  0.00    +0.007 A 
ATOM     35  C   UNL     1      -1.094  -3.883  -1.206  0.00  0.00    +0.000 A 
ATOM     36  C   UNL     1      -0.902  -4.346   0.083  0.00  0.00    +0.004 A 
ATOM     37  C   UNL     1      -0.821  -3.453   1.134  0.00  0.00    +0.046 A 
ATOM     38  C   UNL     1      -0.929  -2.090   0.895  0.00  0.00    +0.123 A 
ENDBRANCH  31  38
ENDBRANCH  30  31
ENDBRANCH  29  30
ENDBRANCH   1  29
TORSDOF 6
