REMARK  Name = ZINC09611483
REMARK  12 active torsions:
REMARK  status: ('A' for Active; 'I' for Inactive)
REMARK    1  A    between atoms: C_1  and  N_69
REMARK    2  A    between atoms: C_2  and  C_3
REMARK    3  A    between atoms: C_2  and  N_69
REMARK    4  A    between atoms: C_3  and  N_4
REMARK    5  A    between atoms: C_5  and  C_7
REMARK    6  A    between atoms: C_7  and  C_9
REMARK    7  A    between atoms: C_7  and  N_16
REMARK    8  A    between atoms: C_9  and  C_10
REMARK    9  A    between atoms: N_16  and  S_17
REMARK   10  A    between atoms: S_17  and  C_20
REMARK   11  A    between atoms: C_31  and  C_32
REMARK   12  A    between atoms: C_31  and  N_69
REMARK                            x       y       z     vdW  Elec       q    Type
REMARK                         _______ _______ _______ _____ _____    ______ ____
ROOT
ATOM      1  C   UNL     1       2.535   5.656   0.008  0.00  0.00    +0.166 C 
ENDROOT
BRANCH   1   3
ATOM      2  N   UNL     1       1.398   3.459   0.007  0.00  0.00    -0.316 N 
ATOM      3  C   UNL     1       2.556   4.149  -0.000  0.00  0.00    +0.232 C 
ATOM      4  O   UNL     1       3.614   3.557  -0.013  0.00  0.00    -0.274 OA
ATOM      5  H   UNL     1       0.551   3.933   0.018  0.00  0.00    +0.149 HD
BRANCH   2   6
ATOM      6  C   UNL     1       1.417   1.994  -0.001  0.00  0.00    +0.086 C 
BRANCH   6   7
ATOM      7  C   UNL     1      -0.018   1.465   0.010  0.00  0.00    -0.060 C 
BRANCH   7   9
ATOM      8  C   UNL     1       0.578  -0.530   1.247  0.00  0.00    -0.096 C 
ATOM      9  N   UNL     1       0.019  -0.013  -0.020  0.00  0.00    +0.382 N 
ATOM     10  H   UNL     1       0.618  -0.316  -0.797  0.00  0.00    -0.082 HD
BRANCH   9  11
ATOM     11  C   UNL     1      -1.343  -0.548  -0.226  0.00  0.00    -0.043 C 
BRANCH  11  12
ATOM     12  C   UNL     1      -1.251  -2.031  -0.472  0.00  0.00    -0.064 A 
ATOM     13  C   UNL     1      -1.096  -2.510  -1.760  0.00  0.00    +0.002 A 
ATOM     14  C   UNL     1      -1.006  -3.871  -1.985  0.00  0.00    +0.000 A 
ATOM     15  C   UNL     1      -1.081  -4.754  -0.924  0.00  0.00    +0.000 A 
ATOM     16  C   UNL     1      -1.241  -4.275   0.363  0.00  0.00    +0.000 A 
ATOM     17  C   UNL     1      -1.326  -2.914   0.589  0.00  0.00    +0.002 A 
ENDBRANCH  11  12
ENDBRANCH   9  11
ENDBRANCH   7   9
ENDBRANCH   6   7
ENDBRANCH   2   6
ENDBRANCH   1   3
BRANCH   1  18
ATOM     18  N   UNL     1       3.909   6.163  -0.002  0.00  0.00    -0.178 NA
ATOM     19  H   UNL     1       4.598   5.688  -0.493  0.00  0.00    +0.149 HD
BRANCH  18  20
ATOM     20  S   UNL     1       4.288   7.547   0.824  0.00  0.00    +0.059 S 
ATOM     21  O   UNL     1       5.681   7.759   0.646  0.00  0.00    -0.153 OA
ATOM     22  O   UNL     1       3.316   8.517   0.457  0.00  0.00    -0.153 OA
BRANCH  20  23
ATOM     23  C   UNL     1       4.045   7.214   2.537  0.00  0.00    +0.106 A 
ATOM     24  C   UNL     1       5.087   6.719   3.299  0.00  0.00    +0.030 A 
ATOM     25  C   UNL     1       4.901   6.457   4.642  0.00  0.00    +0.025 A 
ATOM     26  C   UNL     1       3.664   6.692   5.227  0.00  0.00    +0.037 A 
ATOM     27  C   UNL     1       2.619   7.189   4.460  0.00  0.00    -0.024 A 
ATOM     28  C   UNL     1       2.813   7.454   3.119  0.00  0.00    +0.034 A 
ATOM     29  C   UNL     1       1.277   7.445   5.096  0.00  0.00    +0.046 C 
ATOM     30  C   UNL     1       1.021   6.403   6.186  0.00  0.00    +0.101 C 
ATOM     31  C   UNL     1       2.224   6.294   7.083  0.00  0.00    +0.218 C 
ATOM     32  O   UNL     1       2.072   6.082   8.267  0.00  0.00    -0.275 OA
ATOM     33  N   UNL     1       3.468   6.429   6.587  0.00  0.00    -0.285 N 
ATOM     34  H   UNL     1       4.234   6.344   7.176  0.00  0.00    +0.155 HD
ENDBRANCH  20  23
ENDBRANCH  18  20
ENDBRANCH   1  18
BRANCH   1  35
ATOM     35  C   UNL     1       1.795   6.163  -1.231  0.00  0.00    +0.065 C 
BRANCH  35  36
ATOM     36  C   UNL     1       1.667   7.662  -1.162  0.00  0.00    -0.045 A 
ATOM     37  C   UNL     1       0.562   8.235  -0.559  0.00  0.00    +0.004 A 
ATOM     38  C   UNL     1       0.448   9.611  -0.491  0.00  0.00    +0.000 A 
ATOM     39  C   UNL     1       1.432  10.414  -1.035  0.00  0.00    +0.000 A 
ATOM     40  C   UNL     1       2.534   9.842  -1.642  0.00  0.00    +0.000 A 
ATOM     41  C   UNL     1       2.652   8.466  -1.705  0.00  0.00    +0.004 A 
ENDBRANCH  35  36
ENDBRANCH   1  35
TORSDOF 11
