REMARK  Name = ZINC38827129
REMARK  13 active torsions:
REMARK  status: ('A' for Active; 'I' for Inactive)
REMARK    1  A    between atoms: C_1  and  C_2
REMARK    2  A    between atoms: C_2  and  O_3
REMARK    3  A    between atoms: O_3  and  C_4
REMARK    4  A    between atoms: C_4  and  C_6
REMARK    5  A    between atoms: C_7  and  C_39
REMARK    6  A    between atoms: C_10  and  C_20
REMARK    7  A    between atoms: C_11  and  C_12
REMARK    8  A    between atoms: C_15  and  O_18
REMARK    9  A    between atoms: O_18  and  C_19
REMARK   10  A    between atoms: C_20  and  C_22
REMARK   11  A    between atoms: N_27  and  C_30
REMARK   12  A    between atoms: C_33  and  C_36
REMARK   13  A    between atoms: C_36  and  C_38
REMARK                            x       y       z     vdW  Elec       q    Type
REMARK                         _______ _______ _______ _____ _____    ______ ____
ROOT
ATOM      1  C   UNL     1       1.534  -2.066  -2.659  0.00  0.00    +0.088 A 
ATOM      2  C   UNL     1       2.895  -2.064  -2.903  0.00  0.00    +0.028 A 
ATOM      3  N   UNL     1       3.134  -2.674  -4.074  0.00  0.00    -0.354 N 
ATOM      4  H   UNL     1       4.010  -2.802  -4.470  0.00  0.00    +0.166 HD
ATOM      5  C   UNL     1       1.941  -3.092  -4.628  0.00  0.00    +0.101 A 
ATOM      6  C   UNL     1       0.914  -2.727  -3.754  0.00  0.00    +0.025 A 
ATOM      7  C   UNL     1       3.944  -1.470  -1.998  0.00  0.00    +0.064 C 
ENDROOT
BRANCH   6   8
ATOM      8  C   UNL     1      -0.531  -2.976  -3.933  0.00  0.00    -0.015 A 
ATOM      9  C   UNL     1      -1.213  -3.815  -3.048  0.00  0.00    +0.012 A 
ATOM     10  C   UNL     1      -2.560  -4.044  -3.219  0.00  0.00    +0.046 A 
ATOM     11  C   UNL     1      -3.242  -3.442  -4.270  0.00  0.00    +0.120 A 
ATOM     12  C   UNL     1      -2.567  -2.607  -5.153  0.00  0.00    +0.046 A 
ATOM     13  C   UNL     1      -1.221  -2.368  -4.986  0.00  0.00    +0.012 A 
BRANCH  11  14
ATOM     14  O   UNL     1      -4.570  -3.671  -4.435  0.00  0.00    -0.495 OA
ATOM     15  C   UNL     1      -5.208  -3.021  -5.536  0.00  0.00    +0.277 C 
ENDBRANCH  11  14
ENDBRANCH   6   8
BRANCH   1  16
ATOM     16  C   UNL     1       0.856  -1.497  -1.485  0.00  0.00    +0.342 C 
ATOM     17  O   UNL     1       0.672  -2.182  -0.498  0.00  0.00    -0.245 OA
BRANCH  16  18
ATOM     18  O   UNL     1       0.439  -0.215  -1.502  0.00  0.00    -0.461 OA
BRANCH  18  20
ATOM     19  C   UNL     1      -0.611   1.734  -0.533  0.00  0.00    +0.048 C 
ATOM     20  C   UNL     1      -0.212   0.271  -0.327  0.00  0.00    +0.229 C 
ENDBRANCH  18  20
ENDBRANCH  16  18
ENDBRANCH   1  16
BRANCH   5  21
ATOM     21  C   UNL     1       1.787  -3.772  -5.855  0.00  0.00    +0.264 C 
ATOM     22  O   UNL     1       0.677  -4.089  -6.240  0.00  0.00    -0.280 OA
BRANCH  21  23
ATOM     23  C   UNL     1       2.983  -4.101  -6.680  0.00  0.00    +0.289 C 
ATOM     24  O   UNL     1       4.097  -3.907  -6.238  0.00  0.00    -0.266 OA
ATOM     25  N   UNL     1       2.829  -4.613  -7.917  0.00  0.00    -0.292 N 
ATOM     26  C   UNL     1       1.501  -4.662  -8.546  0.00  0.00    +0.127 C 
ATOM     27  C   UNL     1       1.574  -3.946  -9.900  0.00  0.00    +0.124 C 
ATOM     28  N   UNL     1       2.730  -4.466 -10.644  0.00  0.00    -0.327 N 
ATOM     29  C   UNL     1       4.058  -4.418 -10.015  0.00  0.00    +0.124 C 
ATOM     30  C   UNL     1       3.985  -5.128  -8.663  0.00  0.00    +0.127 C 
BRANCH  28  31
ATOM     31  C   UNL     1       2.571  -4.994 -11.919  0.00  0.00    +0.030 A 
ATOM     32  C   UNL     1       1.351  -4.863 -12.578  0.00  0.00    +0.024 A 
ATOM     33  C   UNL     1       1.190  -5.381 -13.831  0.00  0.00    +0.013 A 
ATOM     34  C   UNL     1       2.254  -6.045 -14.454  0.00  0.00    +0.017 A 
ATOM     35  C   UNL     1       3.480  -6.175 -13.788  0.00  0.00    +0.013 A 
ATOM     36  C   UNL     1       3.634  -5.649 -12.537  0.00  0.00    +0.024 A 
BRANCH  34  37
ATOM     37  C   UNL     1       2.086  -6.604 -15.800  0.00  0.00    +0.160 C 
ATOM     38  O   UNL     1       1.023  -6.492 -16.375  0.00  0.00    -0.292 OA
ATOM     39  C   UNL     1       3.232  -7.319 -16.469  0.00  0.00    +0.091 C 
ENDBRANCH  34  37
ENDBRANCH  28  31
ENDBRANCH  21  23
ENDBRANCH   5  21
TORSDOF 9
