REMARK  Name = ZINC35646406
REMARK  9 active torsions:
REMARK  status: ('A' for Active; 'I' for Inactive)
REMARK    1  A    between atoms: C_1  and  C_2
REMARK    2  A    between atoms: C_2  and  O_3
REMARK    3  A    between atoms: O_3  and  C_4
REMARK    4  A    between atoms: C_4  and  C_6
REMARK    5  A    between atoms: C_7  and  C_23
REMARK    6  A    between atoms: N_8  and  C_22
REMARK    7  A    between atoms: C_12  and  C_14
REMARK    8  A    between atoms: C_23  and  N_24
REMARK    9  A    between atoms: C_30  and  C_32
REMARK                            x       y       z     vdW  Elec       q    Type
REMARK                         _______ _______ _______ _____ _____    ______ ____
ROOT
ATOM      1  C   UNL     1       1.891  -2.621  -2.109  0.00  0.00    +0.080 C 
ATOM      2  C   UNL     1       2.143  -3.908  -2.432  0.00  0.00    +0.041 C 
ATOM      3  N   UNL     1       2.708  -4.236  -3.631  0.00  0.00    -0.260 N 
ATOM      4  C   UNL     1       3.052  -3.336  -4.561  0.00  0.00    +0.307 C 
ATOM      5  O   UNL     1       3.551  -3.725  -5.599  0.00  0.00    -0.252 OA
ATOM      6  N   UNL     1       2.864  -2.014  -4.383  0.00  0.00    -0.288 N 
ATOM      7  C   UNL     1       2.253  -1.555  -3.124  0.00  0.00    +0.145 C 
ATOM      8  C   UNL     1       2.953  -5.652  -3.915  0.00  0.00    +0.139 C 
ATOM      9  H   UNL     1       3.121  -1.379  -5.070  0.00  0.00    +0.151 HD
ENDROOT
BRANCH   7  10
ATOM     10  C   UNL     1       3.215  -0.597  -2.469  0.00  0.00    -0.003 A 
ATOM     11  C   UNL     1       4.577  -0.764  -2.634  0.00  0.00    +0.007 A 
ATOM     12  C   UNL     1       5.459   0.114  -2.034  0.00  0.00    +0.002 A 
ATOM     13  C   UNL     1       4.980   1.160  -1.267  0.00  0.00    +0.021 A 
ATOM     14  C   UNL     1       3.618   1.329  -1.101  0.00  0.00    +0.060 A 
ATOM     15  C   UNL     1       2.734   0.452  -1.707  0.00  0.00    +0.064 A 
ATOM     16 CL   UNL     1       1.023   0.667  -1.506  0.00  0.00    -0.082 Cl
ATOM     17 CL   UNL     1       3.016   2.642  -0.138  0.00  0.00    -0.082 Cl
ENDBRANCH   7  10
BRANCH   1  18
ATOM     18  C   UNL     1       1.305  -2.279  -0.868  0.00  0.00    +0.339 C 
ATOM     19  O   UNL     1       0.126  -1.983  -0.813  0.00  0.00    -0.245 OA
BRANCH  18  20
ATOM     20  O   UNL     1       2.053  -2.282   0.255  0.00  0.00    -0.462 OA
BRANCH  20  22
ATOM     21  C   UNL     1       2.394  -1.955   2.625  0.00  0.00    +0.048 C 
ATOM     22  C   UNL     1       1.374  -2.036   1.488  0.00  0.00    +0.229 C 
ENDBRANCH  20  22
ENDBRANCH  18  20
ENDBRANCH   1  18
BRANCH   2  23
ATOM     23  C   UNL     1       1.793  -4.999  -1.454  0.00  0.00    +0.136 C 
BRANCH  23  24
ATOM     24  N   UNL     1       3.026  -5.633  -0.966  0.00  0.00    -0.294 NA
ATOM     25  C   UNL     1       3.765  -4.730  -0.074  0.00  0.00    +0.104 C 
ATOM     26  C   UNL     1       5.123  -5.352   0.266  0.00  0.00    +0.123 C 
ATOM     27  N   UNL     1       4.898  -6.704   0.798  0.00  0.00    -0.293 N 
ATOM     28  C   UNL     1       4.051  -7.625   0.024  0.00  0.00    +0.123 C 
ATOM     29  C   UNL     1       2.735  -6.913  -0.306  0.00  0.00    +0.104 C 
ATOM     30  C   UNL     1       5.453  -7.090   1.964  0.00  0.00    +0.282 C 
ATOM     31  O   UNL     1       6.064  -6.286   2.643  0.00  0.00    -0.267 OA
BRANCH  30  32
ATOM     32  C   UNL     1       5.321  -8.480   2.414  0.00  0.00    +0.189 A 
ATOM     33  C   UNL     1       5.718  -8.972   3.624  0.00  0.00    +0.054 A 
ATOM     34  C   UNL     1       5.401 -10.339   3.628  0.00  0.00    +0.042 A 
ATOM     35  C   UNL     1       4.831 -10.618   2.435  0.00  0.00    +0.196 A 
ATOM     36  O   UNL     1       4.779  -9.494   1.708  0.00  0.00    -0.458 OA
ENDBRANCH  30  32
ENDBRANCH  23  24
ENDBRANCH   2  23
TORSDOF 7
