REMARK  Name = ZINC02333818
REMARK  8 active torsions:
REMARK  status: ('A' for Active; 'I' for Inactive)
REMARK    1  A    between atoms: C_1  and  C_2
REMARK    2  A    between atoms: C_2  and  C_3
REMARK    3  A    between atoms: C_2  and  C_4
REMARK    4  A    between atoms: C_4  and  C_5
REMARK    5  A    between atoms: C_11  and  C_26
REMARK    6  A    between atoms: C_29  and  O_34
REMARK    7  A    between atoms: C_30  and  O_32
REMARK    8  A    between atoms: O_32  and  C_33
REMARK                            x       y       z     vdW  Elec       q    Type
REMARK                         _______ _______ _______ _____ _____    ______ ____
ROOT
ATOM      1  C   UNL     1      -7.498   3.400   0.058  0.00  0.00    +0.104 A 
ATOM      2  N   UNL     1      -7.040   2.164   0.050  0.00  0.00    -0.145 NA
ATOM      3  N   UNL     1      -5.805   1.906   0.042  0.00  0.00    -0.125 NA
ATOM      4  C   UNL     1      -4.890   2.865   0.042  0.00  0.00    +0.191 A 
ATOM      5  S   UNL     1      -5.954   4.306   0.062  0.00  0.00    -0.035 S 
ATOM      6  N   UNL     1      -3.504   2.779   0.034  0.00  0.00    -0.230 N 
ATOM      7  C   UNL     1      -2.717   1.540   0.024  0.00  0.00    +0.152 C 
ATOM      8  C   UNL     1      -1.272   1.966   0.018  0.00  0.00    +0.072 A 
ATOM      9  C   UNL     1      -0.014   1.214   0.009  0.00  0.00    +0.199 A 
ATOM     10  O   UNL     1       0.002  -0.004   0.002  0.00  0.00    -0.287 OA
ATOM     11  C   UNL     1       1.231   2.006   0.001  0.00  0.00    +0.064 A 
ATOM     12  C   UNL     1       2.483   1.393  -0.013  0.00  0.00    +0.015 A 
ATOM     13  C   UNL     1       3.613   2.163  -0.020  0.00  0.00    +0.001 A 
ATOM     14  C   UNL     1       3.518   3.548  -0.013  0.00  0.00    +0.004 A 
ATOM     15  C   UNL     1       2.289   4.171   0.002  0.00  0.00    +0.047 A 
ATOM     16  C   UNL     1       1.125   3.408   0.009  0.00  0.00    +0.139 A 
ATOM     17  O   UNL     1      -0.083   4.000   0.024  0.00  0.00    -0.450 OA
ATOM     18  C   UNL     1      -1.248   3.322   0.032  0.00  0.00    +0.199 A 
ATOM     19  C   UNL     1      -2.647   3.814   0.047  0.00  0.00    +0.289 C 
ATOM     20  O   UNL     1      -2.972   4.985   0.056  0.00  0.00    -0.266 OA
ENDROOT
BRANCH   7  21
ATOM     21  C   UNL     1      -3.013   0.726   1.257  0.00  0.00    -0.018 A 
ATOM     22  C   UNL     1      -3.240   1.361   2.464  0.00  0.00    +0.009 A 
ATOM     23  C   UNL     1      -3.514   0.619   3.598  0.00  0.00    +0.049 A 
ATOM     24  C   UNL     1      -3.560  -0.764   3.526  0.00  0.00    +0.158 A 
ATOM     25  C   UNL     1      -3.331  -1.403   2.312  0.00  0.00    +0.162 A 
ATOM     26  C   UNL     1      -3.063  -0.653   1.178  0.00  0.00    +0.055 A 
BRANCH  25  27
ATOM     27  O   UNL     1      -3.375  -2.760   2.236  0.00  0.00    -0.491 OA
ATOM     28  C   UNL     1      -3.130  -3.348   0.957  0.00  0.00    +0.277 C 
ENDBRANCH  25  27
BRANCH  24  29
ATOM     29  O   UNL     1      -3.829  -1.496   4.641  0.00  0.00    -0.503 OA
ATOM     30  H   UNL     1      -4.770  -1.669   4.780  0.00  0.00    +0.292 HD
ENDBRANCH  24  29
ENDBRANCH   7  21
BRANCH   1  31
ATOM     31  C   UNL     1      -8.918   3.906   0.069  0.00  0.00    +0.068 C 
BRANCH  31  33
ATOM     32  C   UNL     1      -8.566   5.162   2.200  0.00  0.00    +0.007 C 
ATOM     33  C   UNL     1      -9.390   4.070   1.516  0.00  0.00    -0.011 C 
ATOM     34  C   UNL     1     -10.868   4.463   1.528  0.00  0.00    +0.007 C 
ENDBRANCH  31  33
ENDBRANCH   1  31
TORSDOF 5
