REMARK  Name = ZINC36593233
REMARK  10 active torsions:
REMARK  status: ('A' for Active; 'I' for Inactive)
REMARK    1  A    between atoms: C_1  and  C_2
REMARK    2  A    between atoms: C_2  and  N_3
REMARK    3  A    between atoms: C_7  and  C_9
REMARK    4  A    between atoms: C_9  and  N_10
REMARK    5  A    between atoms: C_11  and  C_13
REMARK    6  A    between atoms: C_13  and  C_15
REMARK    7  A    between atoms: C_13  and  N_18
REMARK    8  A    between atoms: C_15  and  C_16
REMARK    9  A    between atoms: C_15  and  C_17
REMARK   10  A    between atoms: C_19  and  C_21
REMARK                            x       y       z     vdW  Elec       q    Type
REMARK                         _______ _______ _______ _____ _____    ______ ____
ROOT
ATOM      1  N   UNL     1       4.043  -2.416   2.975  0.00  0.00    -0.300 N 
ATOM      2  C   UNL     1       4.967  -1.727   3.672  0.00  0.00    +0.245 C 
ATOM      3  O   UNL     1       4.645  -0.730   4.289  0.00  0.00    -0.270 OA
ATOM      4  H   UNL     1       4.300  -3.211   2.482  0.00  0.00    +0.150 HD
ENDROOT
BRANCH   2   5
ATOM      5  C   UNL     1       6.371  -2.181   3.686  0.00  0.00    +0.038 A 
ATOM      6  C   UNL     1       6.755  -3.325   2.973  0.00  0.00    +0.015 A 
ATOM      7  C   UNL     1       8.039  -3.761   2.972  0.00  0.00    +0.030 A 
ATOM      8  C   UNL     1       9.045  -3.072   3.694  0.00  0.00    +0.081 A 
ATOM      9  C   UNL     1       8.632  -1.919   4.406  0.00  0.00    +0.042 A 
ATOM     10  C   UNL     1       7.339  -1.474   4.405  0.00  0.00    +0.030 A 
ATOM     11  S   UNL     1      10.150  -1.372   5.151  0.00  0.00    -0.049 S 
ATOM     12  C   UNL     1      11.197  -2.663   4.493  0.00  0.00    +0.178 A 
ATOM     13  N   UNL     1      10.348  -3.378   3.789  0.00  0.00    -0.222 NA
ATOM     14  N   UNL     1      12.559  -2.860   4.678  0.00  0.00    -0.302 N 
ATOM     15  C   UNL     1      13.383  -2.073   5.433  0.00  0.00    +0.093 A 
ATOM     16  C   UNL     1      14.629  -2.584   5.368  0.00  0.00    +0.019 A 
ATOM     17  C   UNL     1      14.575  -3.728   4.544  0.00  0.00    +0.019 A 
ATOM     18  C   UNL     1      13.299  -3.877   4.139  0.00  0.00    +0.093 A 
ENDBRANCH   2   5
BRANCH   1  19
ATOM     19  C   UNL     1       2.649  -1.965   2.961  0.00  0.00    +0.162 C 
BRANCH  19  21
ATOM     20  N   UNL     1       0.677  -2.168   1.482  0.00  0.00    -0.315 N 
ATOM     21  C   UNL     1       1.972  -2.463   1.710  0.00  0.00    +0.234 C 
ATOM     22  O   UNL     1       2.592  -3.130   0.909  0.00  0.00    -0.274 OA
ATOM     23  H   UNL     1       0.180  -1.635   2.122  0.00  0.00    +0.149 HD
BRANCH  20  24
ATOM     24  C   UNL     1       0.019  -2.653   0.266  0.00  0.00    +0.089 C 
BRANCH  24  29
ATOM     25  N   UNL     1      -2.048  -2.513  -1.061  0.00  0.00    +0.382 N 
ATOM     26  C   UNL     1      -3.240  -3.317  -0.719  0.00  0.00    -0.078 C 
ATOM     27  C   UNL     1      -3.636  -2.852   0.705  0.00  0.00    -0.020 C 
ATOM     28  C   UNL     1      -2.247  -2.627   1.358  0.00  0.00    -0.016 C 
ATOM     29  C   UNL     1      -1.399  -2.081   0.191  0.00  0.00    -0.051 C 
ATOM     30  H   UNL     1      -2.328  -1.704  -1.595  0.00  0.00    -0.081 HD
BRANCH  25  32
ATOM     31  C   UNL     1      -1.755  -3.690  -3.188  0.00  0.00    -0.017 C 
ATOM     32  C   UNL     1      -1.112  -3.327  -1.848  0.00  0.00    -0.082 C 
ENDBRANCH  25  32
ENDBRANCH  24  29
ENDBRANCH  20  24
ENDBRANCH  19  21
BRANCH  19  33
ATOM     33  C   UNL     1       1.922  -2.517   4.189  0.00  0.00    +0.012 C 
ATOM     34  C   UNL     1       2.070  -4.039   4.228  0.00  0.00    +0.009 C 
ATOM     35  C   UNL     1       2.530  -1.913   5.456  0.00  0.00    +0.009 C 
ENDBRANCH  19  33
ENDBRANCH   1  19
TORSDOF 7
