REMARK  Name = ZINC40155485
REMARK  7 active torsions:
REMARK  status: ('A' for Active; 'I' for Inactive)
REMARK    1  A    between atoms: C_1  and  C_2
REMARK    2  A    between atoms: C_2  and  C_3
REMARK    3  A    between atoms: C_3  and  N_4
REMARK    4  A    between atoms: N_16  and  C_19
REMARK    5  A    between atoms: C_19  and  N_20
REMARK    6  A    between atoms: N_20  and  C_21
REMARK    7  A    between atoms: N_20  and  C_31
REMARK                            x       y       z     vdW  Elec       q    Type
REMARK                         _______ _______ _______ _____ _____    ______ ____
ROOT
ATOM      1  N   UNL     1       0.773  -1.774  -1.354  0.00  0.00    -0.277 N 
ATOM      2  C   UNL     1       1.788  -2.405  -0.730  0.00  0.00    +0.263 A 
ATOM      3  O   UNL     1       2.710  -1.770  -0.255  0.00  0.00    -0.267 OA
ATOM      4  C   UNL     1       1.762  -3.876  -0.633  0.00  0.00    +0.064 A 
ATOM      5  C   UNL     1       2.787  -4.575   0.002  0.00  0.00    +0.015 A 
ATOM      6  C   UNL     1       2.729  -5.952   0.075  0.00  0.00    +0.001 A 
ATOM      7  C   UNL     1       1.660  -6.638  -0.480  0.00  0.00    +0.002 A 
ATOM      8  C   UNL     1       0.639  -5.956  -1.112  0.00  0.00    +0.027 A 
ATOM      9  C   UNL     1       0.681  -4.572  -1.193  0.00  0.00    +0.064 A 
ATOM     10  N   UNL     1      -0.337  -3.860  -1.825  0.00  0.00    -0.257 N 
ATOM     11  C   UNL     1      -0.288  -2.486  -1.896  0.00  0.00    +0.238 A 
ATOM     12  N   UNL     1      -1.353  -2.068  -2.526  0.00  0.00    -0.133 NA
ATOM     13  N   UNL     1      -2.122  -3.185  -2.873  0.00  0.00    -0.255 N 
ATOM     14  C   UNL     1      -1.466  -4.279  -2.434  0.00  0.00    +0.182 A 
ATOM     15  S   UNL     1      -1.982  -5.902  -2.604  0.00  0.00    -0.011 S 
ENDROOT
BRANCH   1  16
ATOM     16  C   UNL     1       0.787  -0.312  -1.457  0.00  0.00    +0.128 C 
BRANCH  16  18
ATOM     17  C   UNL     1       0.103   1.817  -0.345  0.00  0.00    +0.005 C 
ATOM     18  C   UNL     1       0.088   0.291  -0.237  0.00  0.00    +0.018 C 
ENDBRANCH  16  18
ENDBRANCH   1  16
BRANCH  13  19
ATOM     19  C   UNL     1      -3.399  -3.170  -3.591  0.00  0.00    +0.073 C 
BRANCH  19  20
ATOM     20  N   UNL     1      -3.157  -2.896  -5.014  0.00  0.00    +0.399 N 
ATOM     21  H   UNL     1      -2.694  -2.005  -5.111  0.00  0.00    -0.078 HD
BRANCH  20  22
ATOM     22  C   UNL     1      -4.439  -2.862  -5.731  0.00  0.00    -0.034 C 
ATOM     23  C   UNL     1      -5.335  -1.736  -5.174  0.00  0.00    -0.006 C 
ATOM     24  C   UNL     1      -6.161  -2.471  -4.097  0.00  0.00    +0.034 C 
ATOM     25  C   UNL     1      -6.201  -3.916  -4.547  0.00  0.00    -0.046 A 
ATOM     26  C   UNL     1      -5.210  -4.142  -5.487  0.00  0.00    -0.058 A 
ATOM     27  C   UNL     1      -5.059  -5.401  -6.043  0.00  0.00    +0.002 A 
ATOM     28  C   UNL     1      -5.893  -6.434  -5.662  0.00  0.00    +0.000 A 
ATOM     29  C   UNL     1      -6.882  -6.211  -4.724  0.00  0.00    +0.000 A 
ATOM     30  C   UNL     1      -7.037  -4.951  -4.165  0.00  0.00    +0.004 A 
ENDBRANCH  20  22
BRANCH  20  31
ATOM     31  C   UNL     1      -2.308  -3.954  -5.579  0.00  0.00    -0.065 C 
ATOM     32  C   UNL     1      -0.847  -3.606  -5.870  0.00  0.00    -0.017 C 
ATOM     33  C   UNL     1      -1.836  -3.784  -7.024  0.00  0.00    -0.017 C 
ENDBRANCH  20  31
ENDBRANCH  19  20
ENDBRANCH  13  19
TORSDOF 6
