REMARK  Name = ZINC12154841
REMARK  8 active torsions:
REMARK  status: ('A' for Active; 'I' for Inactive)
REMARK    1  A    between atoms: C_1  and  C_2
REMARK    2  A    between atoms: C_2  and  C_3
REMARK    3  A    between atoms: C_3  and  C_4
REMARK    4  A    between atoms: C_4  and  C_18
REMARK    5  A    between atoms: N_7  and  C_11
REMARK    6  A    between atoms: C_11  and  C_12
REMARK    7  A    between atoms: C_23  and  C_24
REMARK    8  A    between atoms: C_23  and  N_66
REMARK                            x       y       z     vdW  Elec       q    Type
REMARK                         _______ _______ _______ _____ _____    ______ ____
ROOT
ATOM      1  C   UNL     1      -1.500   7.951   3.960  0.00  0.00    +0.018 C 
ATOM      2  C   UNL     1      -2.619   7.963   2.915  0.00  0.00    -0.013 C 
ATOM      3  C   UNL     1      -2.006   7.856   1.517  0.00  0.00    -0.078 C 
ATOM      4  C   UNL     1      -0.121   6.599   2.377  0.00  0.00    -0.078 C 
ATOM      5  C   UNL     1      -0.678   6.669   3.801  0.00  0.00    -0.013 C 
ATOM      6  N   UNL     1      -1.248   6.590   1.421  0.00  0.00    +0.382 N 
ATOM      7  H   UNL     1      -1.874   5.809   1.651  0.00  0.00    -0.081 HD
ENDROOT
BRANCH   1   8
ATOM      8  C   UNL     1      -2.110   7.996   5.362  0.00  0.00    +0.115 C 
ATOM      9  C   UNL     1      -2.992   9.218   5.521  0.00  0.00    +0.247 C 
ATOM     10  O   UNL     1      -2.656  10.380   5.440  0.00  0.00    -0.273 OA
ATOM     11  N   UNL     1      -4.229   8.745   5.771  0.00  0.00    -0.222 N 
ATOM     12  C   UNL     1      -4.250   7.407   5.793  0.00  0.00    +0.309 C 
ATOM     13  O   UNL     1      -5.252   6.751   5.999  0.00  0.00    -0.252 OA
ATOM     14  N   UNL     1      -3.036   6.868   5.562  0.00  0.00    -0.285 N 
ATOM     15  H   UNL     1      -2.814   5.924   5.532  0.00  0.00    +0.151 HD
BRANCH   8  16
ATOM     16  C   UNL     1      -1.010   7.985   6.426  0.00  0.00    +0.035 C 
BRANCH  16  18
ATOM     17  C   UNL     1      -0.547   7.893   8.880  0.00  0.00    +0.004 C 
ATOM     18  C   UNL     1      -1.646   7.905   7.816  0.00  0.00    -0.001 C 
ENDBRANCH  16  18
ENDBRANCH   8  16
BRANCH  11  19
ATOM     19  C   UNL     1      -5.405   9.590   5.991  0.00  0.00    +0.149 C 
BRANCH  19  20
ATOM     20  C   UNL     1      -6.093   9.865   4.653  0.00  0.00    +0.136 C 
ATOM     21  C   UNL     1      -7.328  10.761   4.873  0.00  0.00    +0.035 C 
ATOM     22  C   UNL     1      -7.053  12.008   3.998  0.00  0.00    +0.031 C 
ATOM     23  C   UNL     1      -6.008  11.472   2.987  0.00  0.00    +0.160 C 
ATOM     24  O   UNL     1      -5.198  10.574   3.780  0.00  0.00    -0.375 OA
ENDBRANCH  19  20
ENDBRANCH  11  19
ENDBRANCH   1   8
BRANCH   6  25
ATOM     25  C   UNL     1      -0.741   6.409   0.045  0.00  0.00    -0.041 C 
BRANCH  25  26
ATOM     26  C   UNL     1       0.245   5.269   0.029  0.00  0.00    -0.039 A 
ATOM     27  C   UNL     1       1.583   5.371   0.017  0.00  0.00    +0.085 A 
ATOM     28  N   UNL     1       2.147   4.124   0.004  0.00  0.00    -0.360 N 
ATOM     29  H   UNL     1       3.099   3.943  -0.006  0.00  0.00    +0.165 HD
ATOM     30  C   UNL     1       1.159   3.165   0.008  0.00  0.00    +0.047 A 
ATOM     31  C   UNL     1      -0.075   3.840   0.023  0.00  0.00    +0.001 A 
ATOM     32  C   UNL     1      -1.267   3.112   0.031  0.00  0.00    +0.010 A 
ATOM     33  C   UNL     1      -1.228   1.746   0.017  0.00  0.00    +0.001 A 
ATOM     34  C   UNL     1      -0.013   1.076   0.008  0.00  0.00    +0.002 A 
ATOM     35  C   UNL     1       1.175   1.774   0.000  0.00  0.00    +0.026 A 
ENDBRANCH  25  26
ENDBRANCH   6  25
TORSDOF 7
