REMARK  Name = ZINC09905896
REMARK  4 active torsions:
REMARK  status: ('A' for Active; 'I' for Inactive)
REMARK    1  A    between atoms: C_4  and  C_7
REMARK    2  A    between atoms: C_13  and  C_15
REMARK    3  A    between atoms: N_17  and  N_18
REMARK    4  A    between atoms: N_18  and  C_19
REMARK                            x       y       z     vdW  Elec       q    Type
REMARK                         _______ _______ _______ _____ _____    ______ ____
ROOT
ATOM      1  C   UNL     1       2.529  -1.923   1.811  0.00  0.00    +0.242 C 
ATOM      2  O   UNL     1       1.996  -2.974   1.522  0.00  0.00    -0.273 OA
ATOM      3  N   UNL     1       1.916  -1.065   2.650  0.00  0.00    -0.236 N 
ATOM      4  H   UNL     1       2.342  -0.225   2.881  0.00  0.00    +0.173 HD
ENDROOT
BRANCH   1  10
ATOM      5  C   UNL     1       3.710  -0.814  -0.104  0.00  0.00    +0.057 C 
ATOM      6  C   UNL     1       3.791  -1.960  -1.136  0.00  0.00    +0.113 C 
ATOM      7  N   UNL     1       4.567  -3.021  -0.483  0.00  0.00    -0.314 N 
ATOM      8  C   UNL     1       4.626  -2.834   0.847  0.00  0.00    +0.226 C 
ATOM      9  O   UNL     1       5.198  -3.566   1.627  0.00  0.00    -0.275 OA
ATOM     10  C   UNL     1       3.876  -1.577   1.230  0.00  0.00    +0.171 C 
ATOM     11  H   UNL     1       4.984  -3.762  -0.950  0.00  0.00    +0.149 HD
BRANCH   5  15
ATOM     12  C   UNL     1      -0.085   1.140  -0.284  0.00  0.00    +0.000 A 
ATOM     13  C   UNL     1      -0.009  -0.235  -0.406  0.00  0.00    +0.000 A 
ATOM     14  C   UNL     1       1.219  -0.867  -0.348  0.00  0.00    +0.004 A 
ATOM     15  C   UNL     1       2.371  -0.124  -0.169  0.00  0.00    -0.042 A 
ATOM     16  C   UNL     1       2.296   1.251  -0.048  0.00  0.00    +0.004 A 
ATOM     17  C   UNL     1       1.067   1.883  -0.105  0.00  0.00    +0.000 A 
ENDBRANCH   5  15
ENDBRANCH   1  10
BRANCH   3  18
ATOM     18  N   UNL     1       0.664  -1.387   3.190  0.00  0.00    -0.271 N 
ATOM     19  H   UNL     1       0.238  -2.227   2.959  0.00  0.00    +0.169 HD
BRANCH  18  20
ATOM     20  C   UNL     1       0.054  -0.533   4.026  0.00  0.00    +0.099 C 
ATOM     21  C   UNL     1      -1.195  -0.854   4.564  0.00  0.00    +0.038 C 
ATOM     22  C   UNL     1      -1.827  -2.075   4.243  0.00  0.00    +0.027 C 
ATOM     23  C   UNL     1      -3.042  -2.370   4.777  0.00  0.00    +0.014 C 
ATOM     24  C   UNL     1      -3.689  -1.490   5.641  0.00  0.00    +0.018 C 
ATOM     25  C   UNL     1      -3.134  -0.297   5.990  0.00  0.00    +0.052 C 
ATOM     26  C   UNL     1      -1.877   0.069   5.480  0.00  0.00    +0.187 C 
ATOM     27  O   UNL     1      -1.364   1.136   5.789  0.00  0.00    -0.287 OA
ATOM     28  I   UNL     1      -3.962  -4.187   4.289  0.00  0.00    -0.044 I 
ENDBRANCH  18  20
ENDBRANCH   3  18
TORSDOF 4
