REMARK  Name = ZINC03546253
REMARK  8 active torsions:
REMARK  status: ('A' for Active; 'I' for Inactive)
REMARK    1  A    between atoms: C_3  and  C_6
REMARK    2  A    between atoms: C_6  and  N_7
REMARK    3  A    between atoms: C_17  and  S_18
REMARK    4  A    between atoms: S_18  and  C_19
REMARK    5  A    between atoms: C_19  and  C_20
REMARK    6  A    between atoms: C_20  and  C_22
REMARK    7  A    between atoms: C_25  and  O_29
REMARK    8  A    between atoms: C_27  and  O_28
REMARK                            x       y       z     vdW  Elec       q    Type
REMARK                         _______ _______ _______ _____ _____    ______ ____
ROOT
ATOM      1  N   UNL     1       5.040  -3.567  -0.068  0.00  0.00    -0.280 N 
ATOM      2  C   UNL     1       4.887  -4.911  -0.073  0.00  0.00    +0.263 A 
ATOM      3  O   UNL     1       5.850  -5.656  -0.087  0.00  0.00    -0.267 OA
ATOM      4  C   UNL     1       3.517  -5.440  -0.063  0.00  0.00    +0.065 A 
ATOM      5  C   UNL     1       3.257  -6.810  -0.068  0.00  0.00    +0.017 A 
ATOM      6  C   UNL     1       1.964  -7.253  -0.058  0.00  0.00    +0.021 A 
ATOM      7  C   UNL     1       0.904  -6.354  -0.042  0.00  0.00    +0.043 A 
ATOM      8  C   UNL     1       1.133  -4.995  -0.037  0.00  0.00    +0.048 A 
ATOM      9  C   UNL     1       2.446  -4.517  -0.047  0.00  0.00    +0.080 A 
ATOM     10  N   UNL     1       2.718  -3.191  -0.038  0.00  0.00    -0.223 NA
ATOM     11  C   UNL     1       3.950  -2.745  -0.052  0.00  0.00    +0.173 A 
ATOM     12 CL   UNL     1      -0.727  -6.949  -0.030  0.00  0.00    -0.083 Cl
ENDROOT
BRANCH   1  13
ATOM     13  C   UNL     1       6.386  -2.989  -0.078  0.00  0.00    +0.201 C 
BRANCH  13  16
ATOM     14  C   UNL     1       7.780  -3.112   3.332  0.00  0.00    +0.041 A 
ATOM     15  C   UNL     1       7.535  -3.704   2.072  0.00  0.00    +0.046 A 
ATOM     16  C   UNL     1       6.861  -2.799   1.340  0.00  0.00    +0.125 A 
ATOM     17  O   UNL     1       6.679  -1.699   2.088  0.00  0.00    -0.466 OA
ATOM     18  C   UNL     1       7.234  -1.883   3.297  0.00  0.00    +0.195 A 
ENDBRANCH  13  16
ENDBRANCH   1  13
BRANCH  11  19
ATOM     19  S   UNL     1       4.212  -1.002  -0.045  0.00  0.00    -0.080 S 
BRANCH  19  20
ATOM     20  C   UNL     1       2.496  -0.426  -0.025  0.00  0.00    +0.157 C 
BRANCH  20  21
ATOM     21  C   UNL     1       2.472   1.081  -0.016  0.00  0.00    +0.177 C 
ATOM     22  O   UNL     1       3.513   1.704  -0.023  0.00  0.00    -0.291 OA
BRANCH  21  23
ATOM     23  C   UNL     1       1.192   1.792   0.000  0.00  0.00    +0.060 A 
ATOM     24  C   UNL     1      -0.013   1.076   0.008  0.00  0.00    +0.018 A 
ATOM     25  C   UNL     1      -1.204   1.741   0.017  0.00  0.00    +0.046 A 
ATOM     26  C   UNL     1      -1.233   3.134   0.031  0.00  0.00    +0.120 A 
ATOM     27  C   UNL     1      -0.051   3.860   0.023  0.00  0.00    +0.091 A 
ATOM     28  C   UNL     1       1.166   3.199   0.008  0.00  0.00    +0.131 A 
BRANCH  28  29
ATOM     29  O   UNL     1       2.324   3.903   0.001  0.00  0.00    -0.506 OA
ATOM     30  H   UNL     1       2.300   5.003   0.007  0.00  0.00    +0.292 HD
ENDBRANCH  28  29
BRANCH  26  31
ATOM     31  O   UNL     1      -2.424   3.783   0.045  0.00  0.00    -0.507 OA
ATOM     32  H   UNL     1      -2.450   4.883   0.056  0.00  0.00    +0.292 HD
ENDBRANCH  26  31
ENDBRANCH  21  23
ENDBRANCH  20  21
ENDBRANCH  19  20
ENDBRANCH  11  19
TORSDOF 8
