REMARK  Name = ZINC04147364
REMARK  10 active torsions:
REMARK  status: ('A' for Active; 'I' for Inactive)
REMARK    1  A    between atoms: C_1  and  C_2
REMARK    2  A    between atoms: C_3  and  C_9
REMARK    3  A    between atoms: C_4  and  O_8
REMARK    4  A    between atoms: C_9  and  C_10
REMARK    5  A    between atoms: C_9  and  C_24
REMARK    6  A    between atoms: C_15  and  O_16
REMARK    7  A    between atoms: O_16  and  C_17
REMARK    8  A    between atoms: C_17  and  C_18
REMARK    9  A    between atoms: C_25  and  C_31
REMARK   10  A    between atoms: C_29  and  O_30
REMARK                            x       y       z     vdW  Elec       q    Type
REMARK                         _______ _______ _______ _____ _____    ______ ____
ROOT
ATOM      1  C   UNL     1      -0.008  -0.356  -2.553  0.00  0.00    +0.096 C 
ENDROOT
BRANCH   1   4
ATOM      2  C   UNL     1      -0.514   1.857  -0.342  0.00  0.00    +0.068 C 
ATOM      3  C   UNL     1      -0.378   0.376  -0.096  0.00  0.00    +0.068 A 
ATOM      4  C   UNL     1      -0.155  -0.599  -1.073  0.00  0.00    +0.048 A 
ATOM      5  C   UNL     1      -0.094  -1.806  -0.450  0.00  0.00    +0.213 A 
ATOM      6  N   UNL     1      -0.274  -1.593   0.873  0.00  0.00    -0.247 N 
ATOM      7  H   UNL     1      -0.280  -2.273   1.564  0.00  0.00    +0.192 HD
ATOM      8  N   UNL     1      -0.444  -0.216   1.068  0.00  0.00    -0.176 NA
BRANCH   5   9
ATOM      9  O   UNL     1       0.109  -3.007  -1.048  0.00  0.00    -0.492 OA
ATOM     10  H   UNL     1       1.033  -3.295  -1.049  0.00  0.00    +0.294 HD
ENDBRANCH   5   9
ENDBRANCH   1   4
BRANCH   1  11
ATOM     11  C   UNL     1       1.259  -1.008  -3.045  0.00  0.00    +0.048 A 
ATOM     12  C   UNL     1       2.425  -1.098  -2.366  0.00  0.00    +0.041 A 
ATOM     13  N   UNL     1       3.309  -1.751  -3.147  0.00  0.00    -0.278 N 
ATOM     14  N   UNL     1       2.668  -2.075  -4.350  0.00  0.00    -0.136 NA
ATOM     15  H   UNL     1       4.228  -1.959  -2.917  0.00  0.00    +0.189 HD
ATOM     16  C   UNL     1       1.435  -1.634  -4.288  0.00  0.00    +0.236 A 
ATOM     17  C   UNL     1       2.689  -0.563  -0.982  0.00  0.00    +0.065 C 
BRANCH  16  18
ATOM     18  O   UNL     1       0.492  -1.760  -5.260  0.00  0.00    -0.491 OA
ATOM     19  H   UNL     1       0.529  -1.069  -5.935  0.00  0.00    +0.294 HD
ENDBRANCH  16  18
ENDBRANCH   1  11
BRANCH   1  20
ATOM     20  C   UNL     1      -1.190  -0.943  -3.278  0.00  0.00    +0.006 A 
ATOM     21  C   UNL     1      -1.373  -2.313  -3.309  0.00  0.00    +0.008 A 
ATOM     22  C   UNL     1      -2.457  -2.852  -3.974  0.00  0.00    +0.001 A 
ATOM     23  C   UNL     1      -3.363  -2.024  -4.612  0.00  0.00    +0.004 A 
ATOM     24  C   UNL     1      -3.185  -0.654  -4.584  0.00  0.00    +0.046 A 
ATOM     25  C   UNL     1      -2.100  -0.110  -3.912  0.00  0.00    +0.125 A 
BRANCH  25  26
ATOM     26  O   UNL     1      -1.927   1.238  -3.878  0.00  0.00    -0.487 OA
BRANCH  26  27
ATOM     27  C   UNL     1      -2.903   2.034  -4.552  0.00  0.00    +0.264 C 
BRANCH  27  28
ATOM     28  C   UNL     1      -2.548   3.492  -4.408  0.00  0.00    -0.010 A 
ATOM     29  C   UNL     1      -3.027   4.217  -3.333  0.00  0.00    +0.007 A 
ATOM     30  C   UNL     1      -2.701   5.554  -3.201  0.00  0.00    +0.000 A 
ATOM     31  C   UNL     1      -1.896   6.166  -4.144  0.00  0.00    +0.000 A 
ATOM     32  C   UNL     1      -1.416   5.440  -5.218  0.00  0.00    +0.000 A 
ATOM     33  C   UNL     1      -1.739   4.102  -5.348  0.00  0.00    +0.007 A 
ENDBRANCH  27  28
ENDBRANCH  26  27
ENDBRANCH  25  26
ENDBRANCH   1  20
TORSDOF 8
