REMARK  Name = ZINC23029637
REMARK  9 active torsions:
REMARK  status: ('A' for Active; 'I' for Inactive)
REMARK    1  A    between atoms: C_1  and  C_2
REMARK    2  A    between atoms: C_2  and  O_3
REMARK    3  A    between atoms: O_3  and  C_4
REMARK    4  A    between atoms: C_4  and  C_6
REMARK    5  A    between atoms: C_7  and  C_20
REMARK    6  A    between atoms: C_12  and  C_14
REMARK    7  A    between atoms: C_20  and  N_21
REMARK    8  A    between atoms: N_24  and  S_27
REMARK    9  A    between atoms: S_27  and  C_30
REMARK                            x       y       z     vdW  Elec       q    Type
REMARK                         _______ _______ _______ _____ _____    ______ ____
ROOT
ATOM      1  C   UNL     1       1.207   1.930  -0.085  0.00  0.00    +0.079 C 
ATOM      2  C   UNL     1       2.391   1.304   0.093  0.00  0.00    +0.038 C 
ATOM      3  N   UNL     1       3.557   2.010   0.168  0.00  0.00    -0.271 N 
ATOM      4  C   UNL     1       3.624   3.345   0.084  0.00  0.00    +0.304 C 
ATOM      5  O   UNL     1       4.709   3.886   0.167  0.00  0.00    -0.252 OA
ATOM      6  N   UNL     1       2.527   4.109  -0.088  0.00  0.00    -0.288 N 
ATOM      7  C   UNL     1       1.218   3.442  -0.187  0.00  0.00    +0.144 C 
ATOM      8  H   UNL     1       4.512   1.482   0.304  0.00  0.00    +0.156 HD
ATOM      9  H   UNL     1       2.593   5.205  -0.156  0.00  0.00    +0.151 HD
ENDROOT
BRANCH   7  10
ATOM     10  C   UNL     1       0.336   3.987   0.907  0.00  0.00    -0.023 A 
ATOM     11  C   UNL     1       0.816   4.081   2.200  0.00  0.00    +0.006 A 
ATOM     12  C   UNL     1       0.009   4.585   3.202  0.00  0.00    +0.000 A 
ATOM     13  C   UNL     1      -1.282   4.987   2.914  0.00  0.00    +0.000 A 
ATOM     14  C   UNL     1      -1.764   4.888   1.622  0.00  0.00    +0.000 A 
ATOM     15  C   UNL     1      -0.955   4.388   0.619  0.00  0.00    +0.006 A 
ENDBRANCH   7  10
BRANCH   1  16
ATOM     16  C   UNL     1      -0.001   1.200  -0.168  0.00  0.00    +0.339 C 
ATOM     17  O   UNL     1      -0.514   0.992  -1.252  0.00  0.00    -0.245 OA
BRANCH  16  18
ATOM     18  O   UNL     1      -0.589   0.738   0.956  0.00  0.00    -0.462 OA
BRANCH  18  20
ATOM     19  C   UNL     1      -2.323  -0.427   2.171  0.00  0.00    +0.048 C 
ATOM     20  C   UNL     1      -1.810   0.013   0.798  0.00  0.00    +0.229 C 
ENDBRANCH  18  20
ENDBRANCH  16  18
ENDBRANCH   1  16
BRANCH   2  21
ATOM     21  C   UNL     1       2.425  -0.198   0.205  0.00  0.00    +0.136 C 
BRANCH  21  22
ATOM     22  N   UNL     1       3.173  -0.757  -0.929  0.00  0.00    -0.294 NA
ATOM     23  C   UNL     1       2.472  -0.509  -2.196  0.00  0.00    +0.102 C 
ATOM     24  C   UNL     1       3.365  -0.943  -3.364  0.00  0.00    +0.125 C 
ATOM     25  N   UNL     1       3.778  -2.337  -3.143  0.00  0.00    -0.174 NA
ATOM     26  C   UNL     1       4.365  -2.692  -1.842  0.00  0.00    +0.125 C 
ATOM     27  C   UNL     1       3.433  -2.189  -0.735  0.00  0.00    +0.102 C 
BRANCH  25  28
ATOM     28  S   UNL     1       3.586  -3.478  -4.329  0.00  0.00    +0.067 S 
ATOM     29  O   UNL     1       3.548  -2.777  -5.564  0.00  0.00    -0.152 OA
ATOM     30  O   UNL     1       4.534  -4.502  -4.063  0.00  0.00    -0.152 OA
BRANCH  28  31
ATOM     31  C   UNL     1       1.993  -4.196  -4.108  0.00  0.00    +0.143 A 
ATOM     32  C   UNL     1       0.803  -3.812  -4.631  0.00  0.00    +0.036 A 
ATOM     33  C   UNL     1      -0.332  -4.537  -4.319  0.00  0.00    +0.010 A 
ATOM     34  C   UNL     1      -0.223  -5.604  -3.491  0.00  0.00    +0.047 A 
ATOM     35  S   UNL     1       1.525  -5.615  -3.131  0.00  0.00    -0.077 S 
ENDBRANCH  28  31
ENDBRANCH  25  28
ENDBRANCH  21  22
ENDBRANCH   2  21
TORSDOF 8
