REMARK  Name = ZINC40065667
REMARK  11 active torsions:
REMARK  status: ('A' for Active; 'I' for Inactive)
REMARK    1  A    between atoms: C_1  and  C_2
REMARK    2  A    between atoms: C_12  and  C_13
REMARK    3  A    between atoms: N_16  and  C_31
REMARK    4  A    between atoms: C_17  and  C_19
REMARK    5  A    between atoms: C_23  and  O_25
REMARK    6  A    between atoms: O_25  and  C_26
REMARK    7  A    between atoms: C_26  and  C_27
REMARK    8  A    between atoms: C_27  and  C_28
REMARK    9  A    between atoms: C_28  and  C_29
REMARK   10  A    between atoms: C_28  and  C_30
REMARK   11  A    between atoms: C_31  and  C_32
REMARK                            x       y       z     vdW  Elec       q    Type
REMARK                         _______ _______ _______ _____ _____    ______ ____
ROOT
ATOM      1  C   UNL     1      -0.018   1.503   0.010  0.00  0.00    +0.044 C 
ATOM      2  C   UNL     1       0.002  -0.004   0.002  0.00  0.00    -0.044 A 
ATOM      3  C   UNL     1       0.005  -0.683  -1.209  0.00  0.00    +0.004 A 
ATOM      4  C   UNL     1       0.021  -2.050  -1.232  0.00  0.00    +0.015 A 
ATOM      5  C   UNL     1       0.033  -2.761  -0.032  0.00  0.00    +0.065 A 
ATOM      6  C   UNL     1       0.036  -4.246  -0.038  0.00  0.00    +0.199 A 
ATOM      7  O   UNL     1       0.200  -4.908  -1.047  0.00  0.00    -0.287 OA
ATOM      8  C   UNL     1      -0.176  -4.839   1.286  0.00  0.00    +0.072 A 
ATOM      9  C   UNL     1      -0.158  -4.068   2.414  0.00  0.00    +0.199 A 
ATOM     10  O   UNL     1       0.060  -2.739   2.383  0.00  0.00    -0.449 OA
ATOM     11  C   UNL     1       0.036  -2.085   1.199  0.00  0.00    +0.143 A 
ATOM     12  C   UNL     1       0.023  -0.690   1.195  0.00  0.00    -0.005 A 
ATOM     13  C   UNL     1       0.025   0.066   2.499  0.00  0.00    +0.048 C 
ATOM     14  C   UNL     1      -0.408  -4.941   3.575  0.00  0.00    +0.283 C 
ATOM     15  O   UNL     1      -0.459  -4.566   4.729  0.00  0.00    -0.267 OA
ATOM     16  N   UNL     1      -0.571  -6.217   3.168  0.00  0.00    -0.279 N 
ATOM     17  C   UNL     1      -0.436  -6.249   1.703  0.00  0.00    +0.145 C 
ENDROOT
BRANCH  17  18
ATOM     18  C   UNL     1      -1.711  -6.750   1.075  0.00  0.00    -0.019 A 
ATOM     19  C   UNL     1      -2.934  -6.379   1.604  0.00  0.00    +0.006 A 
ATOM     20  C   UNL     1      -4.105  -6.837   1.030  0.00  0.00    +0.004 A 
ATOM     21  C   UNL     1      -4.057  -7.667  -0.074  0.00  0.00    +0.045 A 
ATOM     22  C   UNL     1      -2.832  -8.041  -0.606  0.00  0.00    +0.121 A 
ATOM     23  C   UNL     1      -1.658  -7.575  -0.032  0.00  0.00    +0.051 A 
BRANCH  22  24
ATOM     24  O   UNL     1      -2.782  -8.857  -1.691  0.00  0.00    -0.492 OA
BRANCH  24  25
ATOM     25  C   UNL     1      -4.030  -9.293  -2.233  0.00  0.00    +0.229 C 
BRANCH  25  26
ATOM     26  C   UNL     1      -3.774 -10.197  -3.441  0.00  0.00    +0.044 C 
BRANCH  26  27
ATOM     27  C   UNL     1      -5.110 -10.664  -4.021  0.00  0.00    -0.014 C 
ATOM     28  C   UNL     1      -4.859 -11.464  -5.301  0.00  0.00    +0.007 C 
ATOM     29  C   UNL     1      -5.829 -11.547  -3.000  0.00  0.00    +0.007 C 
ENDBRANCH  26  27
ENDBRANCH  25  26
ENDBRANCH  24  25
ENDBRANCH  22  24
ENDBRANCH  17  18
BRANCH  16  30
ATOM     30  C   UNL     1      -0.834  -7.369   4.034  0.00  0.00    +0.144 C 
BRANCH  30  31
ATOM     31  C   UNL     1      -2.322  -7.544   4.198  0.00  0.00    -0.026 A 
ATOM     32  C   UNL     1      -2.982  -6.902   5.230  0.00  0.00    +0.009 A 
ATOM     33  C   UNL     1      -4.347  -7.059   5.385  0.00  0.00    +0.050 A 
ATOM     34  C   UNL     1      -5.057  -7.861   4.505  0.00  0.00    +0.166 A 
ATOM     35  C   UNL     1      -4.392  -8.506   3.466  0.00  0.00    +0.167 A 
ATOM     36  C   UNL     1      -3.025  -8.340   3.314  0.00  0.00    +0.054 A 
ATOM     37  O   UNL     1      -5.301  -9.227   2.747  0.00  0.00    -0.453 OA
ATOM     38  C   UNL     1      -6.458  -9.343   3.597  0.00  0.00    +0.466 C 
ATOM     39  O   UNL     1      -6.383  -8.177   4.438  0.00  0.00    -0.453 OA
ENDBRANCH  30  31
ENDBRANCH  16  30
TORSDOF 7
