REMARK  Name = ZINC63806711
REMARK  9 active torsions:
REMARK  status: ('A' for Active; 'I' for Inactive)
REMARK    1  A    between atoms: C_1  and  C_2
REMARK    2  A    between atoms: N_4  and  C_5
REMARK    3  A    between atoms: C_5  and  C_7
REMARK    4  A    between atoms: C_5  and  C_17
REMARK    5  A    between atoms: C_7  and  C_8
REMARK    6  A    between atoms: N_19  and  N_20
REMARK    7  A    between atoms: C_21  and  C_23
REMARK    8  A    between atoms: C_23  and  S_24
REMARK    9  A    between atoms: S_24  and  C_25
REMARK                            x       y       z     vdW  Elec       q    Type
REMARK                         _______ _______ _______ _____ _____    ______ ____
ROOT
ATOM      1  C   UNL     1      -0.431  -2.645  -1.239  0.00  0.00    +0.250 C 
ATOM      2  O   UNL     1       0.315  -1.903  -1.842  0.00  0.00    -0.272 OA
ATOM      3  N   UNL     1      -0.628  -3.904  -1.677  0.00  0.00    -0.233 N 
ATOM      4  H   UNL     1      -1.225  -4.497  -1.194  0.00  0.00    +0.173 HD
ENDROOT
BRANCH   3   5
ATOM      5  N   UNL     1       0.027  -4.356  -2.829  0.00  0.00    -0.234 N 
ATOM      6  C   UNL     1      -0.171  -5.615  -3.267  0.00  0.00    +0.239 C 
ATOM      7  O   UNL     1      -0.916  -6.357  -2.664  0.00  0.00    -0.273 OA
ATOM      8  H   UNL     1       0.624  -3.762  -3.312  0.00  0.00    +0.173 HD
BRANCH   6   9
ATOM      9  C   UNL     1       0.535  -6.101  -4.507  0.00  0.00    +0.173 C 
BRANCH   9  10
ATOM     10  S   UNL     1       0.066  -7.822  -4.834  0.00  0.00    -0.089 S 
BRANCH  10  11
ATOM     11  C   UNL     1       0.961  -8.238  -6.294  0.00  0.00    +0.136 A 
ATOM     12  N   UNL     1       1.786  -7.493  -6.995  0.00  0.00    -0.233 NA
ATOM     13  C   UNL     1       2.409  -7.948  -8.105  0.00  0.00    +0.079 A 
ATOM     14  C   UNL     1       3.312  -7.256  -8.944  0.00  0.00    +0.029 A 
ATOM     15  C   UNL     1       3.859  -7.870 -10.041  0.00  0.00    +0.002 A 
ATOM     16  C   UNL     1       3.548  -9.182 -10.367  0.00  0.00    +0.001 A 
ATOM     17  C   UNL     1       2.667  -9.888  -9.569  0.00  0.00    +0.017 A 
ATOM     18  C   UNL     1       2.116  -9.282  -8.468  0.00  0.00    +0.040 A 
ATOM     19  S   UNL     1       0.983  -9.782  -7.194  0.00  0.00    -0.061 S 
ENDBRANCH  10  11
ENDBRANCH   9  10
ENDBRANCH   6   9
ENDBRANCH   3   5
BRANCH   1  20
ATOM     20  C   UNL     1      -1.136  -2.159   0.001  0.00  0.00    +0.164 C 
BRANCH  20  24
ATOM     21  C   UNL     1      -0.018   1.503   0.010  0.00  0.00    +0.109 C 
ATOM     22  C   UNL     1       0.002  -0.004   0.002  0.00  0.00    +0.211 C 
ATOM     23  O   UNL     1       1.060  -0.596  -0.011  0.00  0.00    -0.276 OA
ATOM     24  N   UNL     1      -1.156  -0.694   0.009  0.00  0.00    -0.304 N 
ATOM     25  H   UNL     1      -2.002  -0.220   0.020  0.00  0.00    +0.149 HD
ENDBRANCH  20  24
BRANCH  20  26
ATOM     26  C   UNL     1      -0.396  -2.665   1.241  0.00  0.00    +0.065 C 
BRANCH  26  27
ATOM     27  C   UNL     1      -1.168  -2.284   2.478  0.00  0.00    -0.039 C 
ATOM     28  C   UNL     1      -2.060  -3.049   3.148  0.00  0.00    -0.001 A 
ATOM     29  C   UNL     1      -2.559  -4.412   2.933  0.00  0.00    +0.010 A 
ATOM     30  C   UNL     1      -3.473  -4.919   3.793  0.00  0.00    +0.001 A 
ATOM     31  C   UNL     1      -3.953  -4.176   4.880  0.00  0.00    +0.002 A 
ATOM     32  C   UNL     1      -3.541  -2.917   5.143  0.00  0.00    +0.026 A 
ATOM     33  C   UNL     1      -2.582  -2.286   4.304  0.00  0.00    +0.043 A 
ATOM     34  N   UNL     1      -2.034  -1.095   4.346  0.00  0.00    -0.380 N 
ATOM     35  C   UNL     1      -1.097  -0.971   3.225  0.00  0.00    +0.144 C 
ATOM     36  H   UNL     1      -2.216  -0.412   5.011  0.00  0.00    +0.160 HD
ENDBRANCH  26  27
ENDBRANCH  20  26
ENDBRANCH   1  20
TORSDOF 8
