REMARK  Name = ZINC40015008
REMARK  7 active torsions:
REMARK  status: ('A' for Active; 'I' for Inactive)
REMARK    1  A    between atoms: C_1  and  C_2
REMARK    2  A    between atoms: C_2  and  O_3
REMARK    3  A    between atoms: O_3  and  C_4
REMARK    4  A    between atoms: C_6  and  C_11
REMARK    5  A    between atoms: C_9  and  O_10
REMARK    6  A    between atoms: C_18  and  C_33
REMARK    7  A    between atoms: C_29  and  C_32
REMARK                            x       y       z     vdW  Elec       q    Type
REMARK                         _______ _______ _______ _____ _____    ______ ____
ROOT
ATOM      1  C   UNL     1      -0.229  -4.969   0.477  0.00  0.00    +0.151 C 
ATOM      2  C   UNL     1       0.851  -5.487   1.369  0.00  0.00    +0.072 A 
ATOM      3  C   UNL     1       1.784  -4.793   2.262  0.00  0.00    +0.199 A 
ATOM      4  O   UNL     1       1.687  -3.610   2.539  0.00  0.00    -0.287 OA
ATOM      5  C   UNL     1       2.858  -5.667   2.796  0.00  0.00    +0.065 A 
ATOM      6  C   UNL     1       3.933  -5.119   3.496  0.00  0.00    +0.018 A 
ATOM      7  C   UNL     1       4.917  -5.937   3.977  0.00  0.00    -0.050 A 
ATOM      8  C   UNL     1       4.849  -7.308   3.771  0.00  0.00    +0.007 A 
ATOM      9  C   UNL     1       3.794  -7.866   3.083  0.00  0.00    +0.047 A 
ATOM     10  C   UNL     1       2.776  -7.053   2.585  0.00  0.00    +0.139 A 
ATOM     11  O   UNL     1       1.745  -7.624   1.922  0.00  0.00    -0.450 OA
ATOM     12  C   UNL     1       0.880  -6.847   1.240  0.00  0.00    +0.199 A 
ATOM     13  C   UNL     1      -0.159  -7.242   0.274  0.00  0.00    +0.289 C 
ATOM     14  O   UNL     1      -0.393  -8.384  -0.069  0.00  0.00    -0.266 OA
ATOM     15  N   UNL     1      -0.814  -6.151  -0.177  0.00  0.00    -0.235 N 
ATOM     16  C   UNL     1      -1.860  -6.143  -1.098  0.00  0.00    +0.172 A 
ATOM     17  C   UNL     1      -2.476  -4.996  -1.648  0.00  0.00    +0.091 A 
ATOM     18  C   UNL     1      -3.438  -5.405  -2.494  0.00  0.00    +0.136 A 
ATOM     19  O   UNL     1      -3.450  -6.747  -2.497  0.00  0.00    -0.358 OA
ATOM     20  N   UNL     1      -2.441  -7.197  -1.612  0.00  0.00    -0.063 NA
ATOM     21  C   UNL     1      -4.345  -4.510  -3.299  0.00  0.00    +0.089 C 
ATOM     22  C   UNL     1       6.080  -5.349   4.734  0.00  0.00    +0.044 C 
ENDROOT
BRANCH   1  25
ATOM     23  C   UNL     1       0.777  -1.811  -1.336  0.00  0.00    +0.162 A 
ATOM     24  C   UNL     1       0.243  -2.669  -0.388  0.00  0.00    +0.055 A 
ATOM     25  C   UNL     1       0.352  -4.037  -0.555  0.00  0.00    -0.018 A 
ATOM     26  C   UNL     1       0.992  -4.552  -1.667  0.00  0.00    +0.009 A 
ATOM     27  C   UNL     1       1.526  -3.702  -2.616  0.00  0.00    +0.049 A 
ATOM     28  C   UNL     1       1.416  -2.330  -2.458  0.00  0.00    +0.158 A 
BRANCH  28  29
ATOM     29  O   UNL     1       1.936  -1.492  -3.394  0.00  0.00    -0.503 OA
ATOM     30  H   UNL     1       2.856  -1.241  -3.231  0.00  0.00    +0.292 HD
ENDBRANCH  28  29
BRANCH  23  31
ATOM     31  O   UNL     1       0.671  -0.465  -1.174  0.00  0.00    -0.489 OA
BRANCH  31  33
ATOM     32  C   UNL     1      -0.019   1.526   0.010  0.00  0.00    +0.048 C 
ATOM     33  C   UNL     1       0.002  -0.004   0.002  0.00  0.00    +0.226 C 
ENDBRANCH  31  33
ENDBRANCH  23  31
ENDBRANCH   1  25
TORSDOF 4
