REMARK  Name = ZINC10814750
REMARK  6 active torsions:
REMARK  status: ('A' for Active; 'I' for Inactive)
REMARK    1  A    between atoms: C_1  and  N_2
REMARK    2  A    between atoms: C_6  and  S_7
REMARK    3  A    between atoms: S_7  and  C_8
REMARK    4  A    between atoms: C_11  and  C_17
REMARK    5  A    between atoms: C_13  and  N_14
REMARK    6  A    between atoms: N_25  and  C_26
REMARK                            x       y       z     vdW  Elec       q    Type
REMARK                         _______ _______ _______ _____ _____    ______ ____
ROOT
ATOM      1  C   UNL     1       2.708   0.800  -0.137  0.00  0.00    +0.046 A 
ATOM      2  C   UNL     1       2.425   2.082  -0.603  0.00  0.00    +0.018 A 
ATOM      3  C   UNL     1       1.156   2.578  -0.513  0.00  0.00    +0.014 A 
ATOM      4  C   UNL     1       0.139   1.797   0.048  0.00  0.00    +0.042 A 
ATOM      5  C   UNL     1       0.427   0.510   0.515  0.00  0.00    +0.047 A 
ATOM      6  C   UNL     1       1.699   0.020   0.422  0.00  0.00    +0.141 A 
ENDROOT
BRANCH   4   7
ATOM      7  C   UNL     1      -1.233   2.327   0.141  0.00  0.00    +0.264 C 
ATOM      8  O   UNL     1      -2.182   1.592  -0.051  0.00  0.00    -0.267 OA
ATOM      9  N   UNL     1      -1.435   3.626   0.439  0.00  0.00    -0.270 N 
ATOM     10  C   UNL     1      -0.376   4.418   0.794  0.00  0.00    +0.096 A 
ATOM     11  C   UNL     1      -0.559   5.719   1.090  0.00  0.00    +0.018 A 
ATOM     12  C   UNL     1      -1.847   6.286   1.051  0.00  0.00    +0.005 A 
ATOM     13  C   UNL     1      -2.912   5.518   0.708  0.00  0.00    +0.044 A 
ATOM     14  C   UNL     1      -2.710   4.152   0.392  0.00  0.00    +0.114 A 
ATOM     15  N   UNL     1      -3.728   3.392   0.057  0.00  0.00    -0.368 N 
ATOM     16  H   UNL     1      -3.585   2.310  -0.083  0.00  0.00    +0.161 HD
BRANCH  15  17
ATOM     17  C   UNL     1      -5.054   3.985  -0.131  0.00  0.00    +0.081 C 
ATOM     18  C   UNL     1      -6.000   3.476   0.959  0.00  0.00    +0.024 C 
ATOM     19  C   UNL     1      -7.385   4.096   0.762  0.00  0.00    +0.002 C 
ATOM     20  C   UNL     1      -7.931   3.701  -0.611  0.00  0.00    +0.000 C 
ATOM     21  C   UNL     1      -6.985   4.210  -1.701  0.00  0.00    +0.002 C 
ATOM     22  C   UNL     1      -5.600   3.590  -1.505  0.00  0.00    +0.024 C 
ENDBRANCH  15  17
ENDBRANCH   4   7
BRANCH   6  23
ATOM     23  N   UNL     1       2.004  -1.342   0.915  0.00  0.00    +0.058 N 
ATOM     24  O   UNL     1       1.122  -2.025   1.404  0.00  0.00    -0.126 OA
ATOM     25  O   UNL     1       3.138  -1.779   0.833  0.00  0.00    -0.126 OA
ENDBRANCH   6  23
BRANCH   1  26
ATOM     26  S   UNL     1       4.347   0.164  -0.254  0.00  0.00    -0.048 S 
BRANCH  26  32
ATOM     27  C   UNL     1       7.278  -0.392   1.173  0.00  0.00    +0.152 C 
ATOM     28  N   UNL     1       6.108   0.077   1.919  0.00  0.00    -0.311 N 
ATOM     29  C   UNL     1       6.037   0.348   3.256  0.00  0.00    +0.225 A 
ATOM     30  N   UNL     1       4.819   0.738   3.509  0.00  0.00    -0.137 NA
ATOM     31  N   UNL     1       4.122   0.737   2.429  0.00  0.00    -0.122 NA
ATOM     32  C   UNL     1       4.862   0.334   1.422  0.00  0.00    +0.196 A 
ENDBRANCH  26  32
ENDBRANCH   1  26
TORSDOF 5
