REMARK  Name = ZINC55492858
REMARK  5 active torsions:
REMARK  status: ('A' for Active; 'I' for Inactive)
REMARK    1  A    between atoms: C_1  and  C_2
REMARK    2  A    between atoms: C_3  and  C_27
REMARK    3  A    between atoms: C_11  and  C_13
REMARK    4  A    between atoms: C_16  and  C_19
REMARK    5  A    between atoms: C_19  and  N_20
REMARK                            x       y       z     vdW  Elec       q    Type
REMARK                         _______ _______ _______ _____ _____    ______ ____
ROOT
ATOM      1  C   UNL     1       0.091  -3.415   4.529  0.00  0.00    +0.017 A 
ATOM      2  C   UNL     1       0.090  -2.922   5.835  0.00  0.00    +0.012 A 
ATOM      3  C   UNL     1       0.113  -3.800   6.899  0.00  0.00    +0.006 A 
ATOM      4  C   UNL     1       0.136  -5.165   6.674  0.00  0.00    -0.030 A 
ATOM      5  C   UNL     1       0.136  -5.659   5.382  0.00  0.00    +0.006 A 
ATOM      6  C   UNL     1       0.108  -4.793   4.309  0.00  0.00    +0.012 A 
ENDROOT
BRANCH   1  17
ATOM      7  C   UNL     1      -0.018   1.503   0.010  0.00  0.00    +0.045 C 
ATOM      8  C   UNL     1       0.002  -0.004   0.002  0.00  0.00    -0.026 A 
ATOM      9  C   UNL     1       0.006  -0.677  -1.160  0.00  0.00    -0.008 A 
ATOM     10  S   UNL     1       0.032  -2.385  -0.649  0.00  0.00    -0.073 S 
ATOM     11  C   UNL     1       0.037  -2.146   1.109  0.00  0.00    +0.116 A 
ATOM     12  C   UNL     1       0.024  -0.744   1.249  0.00  0.00    +0.075 A 
ATOM     13  C   UNL     1       0.029  -0.253   2.595  0.00  0.00    +0.260 A 
ATOM     14  O   UNL     1       0.014   0.946   2.816  0.00  0.00    -0.267 OA
ATOM     15  N   UNL     1       0.051  -1.133   3.613  0.00  0.00    -0.306 N 
ATOM     16  H   UNL     1       0.054  -0.805   4.526  0.00  0.00    +0.170 HD
ATOM     17  C   UNL     1       0.067  -2.481   3.384  0.00  0.00    +0.142 A 
ATOM     18  N   UNL     1       0.054  -2.958   2.157  0.00  0.00    -0.222 NA
ATOM     19  C   UNL     1      -0.009  -0.121  -2.561  0.00  0.00    +0.052 C 
ENDBRANCH   1  17
BRANCH   4  20
ATOM     20  C   UNL     1       0.160  -6.117   7.842  0.00  0.00    +0.153 C 
BRANCH  20  21
ATOM     21  N   UNL     1      -1.213  -6.450   8.230  0.00  0.00    -0.220 N 
ATOM     22  C   UNL     1      -1.935  -5.755   9.131  0.00  0.00    +0.240 C 
ATOM     23  O   UNL     1      -1.584  -4.774   9.750  0.00  0.00    -0.273 OA
ATOM     24  C   UNL     1      -3.277  -6.456   9.208  0.00  0.00    +0.202 C 
ATOM     25  N   UNL     1      -3.143  -7.568   8.252  0.00  0.00    -0.290 N 
ATOM     26  C   UNL     1      -1.907  -7.479   7.728  0.00  0.00    +0.309 C 
ATOM     27  O   UNL     1      -1.468  -8.248   6.896  0.00  0.00    -0.252 OA
ATOM     28  H   UNL     1      -3.815  -8.234   8.039  0.00  0.00    +0.151 HD
ENDBRANCH  20  21
ENDBRANCH   4  20
TORSDOF 3
