REMARK  Name = ZINC09783167
REMARK  6 active torsions:
REMARK  status: ('A' for Active; 'I' for Inactive)
REMARK    1  A    between atoms: C_1  and  C_2
REMARK    2  A    between atoms: C_15  and  C_17
REMARK    3  A    between atoms: C_17  and  N_18
REMARK    4  A    between atoms: C_21  and  C_25
REMARK    5  A    between atoms: C_21  and  C_32
REMARK    6  A    between atoms: C_25  and  C_26
REMARK                            x       y       z     vdW  Elec       q    Type
REMARK                         _______ _______ _______ _____ _____    ______ ____
ROOT
ATOM      1  N   UNL     1       1.496   2.771  -1.137  0.00  0.00    -0.215 N 
ATOM      2  C   UNL     1       1.393   2.055  -0.000  0.00  0.00    +0.252 C 
ATOM      3  O   UNL     1       2.252   1.888   0.839  0.00  0.00    -0.272 OA
ATOM      4  C   UNL     1      -0.018   1.503   0.010  0.00  0.00    +0.142 C 
ATOM      5  N   UNL     1      -0.602   2.020  -1.239  0.00  0.00    -0.281 N 
ATOM      6  C   UNL     1       0.357   2.748  -1.839  0.00  0.00    +0.310 C 
ATOM      7  O   UNL     1       0.206   3.321  -2.901  0.00  0.00    -0.252 OA
ATOM      8  H   UNL     1      -1.502   1.866  -1.566  0.00  0.00    +0.152 HD
ENDROOT
BRANCH   4   9
ATOM      9  C   UNL     1       0.002  -0.004   0.002  0.00  0.00    -0.015 A 
ATOM     10  C   UNL     1       0.014  -0.702   1.195  0.00  0.00    +0.006 A 
ATOM     11  C   UNL     1       0.028  -2.084   1.188  0.00  0.00    +0.000 A 
ATOM     12  C   UNL     1       0.040  -2.768  -0.013  0.00  0.00    +0.000 A 
ATOM     13  C   UNL     1       0.034  -2.071  -1.206  0.00  0.00    +0.000 A 
ATOM     14  C   UNL     1       0.015  -0.689  -1.199  0.00  0.00    +0.006 A 
ENDBRANCH   4   9
BRANCH   1  15
ATOM     15  C   UNL     1       2.704   3.487  -1.553  0.00  0.00    +0.214 C 
BRANCH  15  29
ATOM     16  C   UNL     1       5.430   2.509  -5.167  0.00  0.00    +0.029 C 
ATOM     17  C   UNL     1       5.590   2.147  -3.689  0.00  0.00    +0.087 C 
ATOM     18  C   UNL     1       7.053   2.322  -3.278  0.00  0.00    +0.118 C 
ATOM     19  C   UNL     1       7.169   2.360  -1.777  0.00  0.00    +0.219 C 
ATOM     20  O   UNL     1       7.596   1.393  -1.182  0.00  0.00    -0.275 OA
ATOM     21  N   UNL     1       6.801   3.463  -1.088  0.00  0.00    -0.284 N 
ATOM     22  C   UNL     1       6.225   4.555  -1.749  0.00  0.00    +0.055 A 
ATOM     23  C   UNL     1       6.685   5.842  -1.531  0.00  0.00    +0.025 A 
ATOM     24  C   UNL     1       6.077   6.907  -2.172  0.00  0.00    +0.002 A 
ATOM     25  C   UNL     1       5.012   6.689  -3.026  0.00  0.00    +0.002 A 
ATOM     26  C   UNL     1       4.556   5.404  -3.259  0.00  0.00    +0.025 A 
ATOM     27  C   UNL     1       5.165   4.333  -2.635  0.00  0.00    +0.058 A 
ATOM     28  N   UNL     1       4.739   3.021  -2.880  0.00  0.00    -0.265 N 
ATOM     29  C   UNL     1       3.568   2.574  -2.384  0.00  0.00    +0.238 C 
ATOM     30  O   UNL     1       3.209   1.437  -2.608  0.00  0.00    -0.273 OA
ATOM     31  H   UNL     1       6.937   3.498  -0.129  0.00  0.00    +0.155 HD
ENDBRANCH  15  29
ENDBRANCH   1  15
BRANCH   4  32
ATOM     32  C   UNL     1      -0.791   2.022   1.224  0.00  0.00    +0.075 C 
BRANCH  32  33
ATOM     33  C   UNL     1      -0.902   3.523   1.145  0.00  0.00    -0.045 A 
ATOM     34  C   UNL     1       0.071   4.320   1.719  0.00  0.00    +0.004 A 
ATOM     35  C   UNL     1      -0.029   5.696   1.642  0.00  0.00    +0.000 A 
ATOM     36  C   UNL     1      -1.106   6.276   0.998  0.00  0.00    +0.000 A 
ATOM     37  C   UNL     1      -2.081   5.480   0.428  0.00  0.00    +0.000 A 
ATOM     38  C   UNL     1      -1.979   4.103   0.501  0.00  0.00    +0.004 A 
ENDBRANCH  32  33
ENDBRANCH   4  32
TORSDOF 5
