REMARK  Name = ZINC14161212
REMARK  6 active torsions:
REMARK  status: ('A' for Active; 'I' for Inactive)
REMARK    1  A    between atoms: C_1  and  C_2
REMARK    2  A    between atoms: C_4  and  C_39
REMARK    3  A    between atoms: C_6  and  N_8
REMARK    4  A    between atoms: N_13  and  C_14
REMARK    5  A    between atoms: C_27  and  C_30
REMARK    6  A    between atoms: C_27  and  N_33
REMARK                            x       y       z     vdW  Elec       q    Type
REMARK                         _______ _______ _______ _____ _____    ______ ____
ROOT
ATOM      1  N   UNL     1       3.030   3.519   1.040  0.00  0.00    -0.181 NA
ATOM      2  C   UNL     1       1.797   2.940   1.171  0.00  0.00    +0.194 C 
ATOM      3  N   UNL     1       0.998   3.302   2.160  0.00  0.00    -0.242 N 
ATOM      4  C   UNL     1      -0.206   2.728   2.294  0.00  0.00    +0.306 C 
ATOM      5  O   UNL     1      -0.527   1.808   1.562  0.00  0.00    -0.252 OA
ATOM      6  N   UNL     1      -1.062   3.167   3.238  0.00  0.00    -0.294 N 
ATOM      7  N   UNL     1       1.393   1.988   0.281  0.00  0.00    -0.303 N 
ATOM      8  C   UNL     1       0.646   2.362  -0.927  0.00  0.00    +0.107 C 
ATOM      9  C   UNL     1      -0.646   1.542  -0.982  0.00  0.00    +0.016 C 
ATOM     10  C   UNL     1      -0.304   0.053  -0.890  0.00  0.00    +0.015 C 
ATOM     11  C   UNL     1       0.392  -0.231   0.443  0.00  0.00    +0.016 C 
ATOM     12  C   UNL     1       1.696   0.569   0.514  0.00  0.00    +0.107 C 
ATOM     13  H   UNL     1      -0.815   4.060   3.831  0.00  0.00    +0.151 HD
ATOM     14  H   UNL     1       1.321   4.075   2.874  0.00  0.00    +0.159 HD
ENDROOT
BRANCH   6  15
ATOM     15  C   UNL     1      -2.321   2.457   3.474  0.00  0.00    +0.037 C 
ATOM     16  C   UNL     1      -3.106   2.362   2.164  0.00  0.00    +0.029 C 
ATOM     17  C   UNL     1      -4.421   1.620   2.410  0.00  0.00    -0.008 C 
ATOM     18  C   UNL     1      -5.250   2.381   3.447  0.00  0.00    +0.007 C 
ATOM     19  C   UNL     1      -4.465   2.475   4.757  0.00  0.00    -0.008 C 
ATOM     20  C   UNL     1      -3.150   3.217   4.511  0.00  0.00    +0.029 C 
ATOM     21  C   UNL     1      -4.166   1.067   5.276  0.00  0.00    +0.007 C 
ATOM     22  C   UNL     1      -3.338   0.307   4.238  0.00  0.00    -0.008 C 
ATOM     23  C   UNL     1      -4.123   0.212   2.929  0.00  0.00    +0.007 C 
ATOM     24  C   UNL     1      -2.023   1.049   3.992  0.00  0.00    +0.029 C 
ENDBRANCH   6  15
BRANCH   1  30
ATOM     25  C   UNL     1       3.814   0.704  -2.761  0.00  0.00    +0.066 C 
ATOM     26  C   UNL     1       4.295   1.732  -1.769  0.00  0.00    +0.044 A 
ATOM     27  C   UNL     1       5.589   2.224  -1.841  0.00  0.00    +0.046 A 
ATOM     28  C   UNL     1       5.991   3.168  -0.908  0.00  0.00    +0.044 A 
ATOM     29  N   UNL     1       5.133   3.568   0.016  0.00  0.00    -0.216 NA
ATOM     30  C   UNL     1       3.904   3.077   0.056  0.00  0.00    +0.253 A 
ATOM     31  N   UNL     1       3.490   2.171  -0.816  0.00  0.00    -0.216 NA
ATOM     32  C   UNL     1       7.388   3.733  -0.948  0.00  0.00    +0.066 C 
ENDBRANCH   1  30
BRANCH  10  33
ATOM     33  N   UNL     1      -1.539  -0.739  -0.976  0.00  0.00    +0.389 N 
ATOM     34  C   UNL     1      -2.458  -0.400   0.118  0.00  0.00    -0.077 C 
ATOM     35  C   UNL     1      -3.786  -1.133  -0.085  0.00  0.00    -0.019 C 
ATOM     36  C   UNL     1      -3.531  -2.643  -0.113  0.00  0.00    -0.004 C 
ATOM     37  C   UNL     1      -2.533  -2.963  -1.229  0.00  0.00    -0.019 C 
ATOM     38  C   UNL     1      -1.242  -2.177  -0.994  0.00  0.00    -0.077 C 
ATOM     39  H   UNL     1      -2.038  -0.488  -1.923  0.00  0.00    -0.080 HD
ENDBRANCH  10  33
BRANCH  10  40
ATOM     40  C   UNL     1       0.613  -0.323  -2.026  0.00  0.00    +0.200 C 
ATOM     41  O   UNL     1       1.681  -0.849  -1.794  0.00  0.00    -0.278 OA
ATOM     42  N   UNL     1       0.245  -0.075  -3.299  0.00  0.00    -0.330 N 
ATOM     43  H   UNL     1       0.915  -0.349  -4.127  0.00  0.00    +0.145 HD
ATOM     44  H   UNL     1      -0.723   0.402  -3.509  0.00  0.00    +0.145 HD
ENDBRANCH  10  40
TORSDOF 4
