REMARK  Name = ZINC15968054
REMARK  11 active torsions:
REMARK  status: ('A' for Active; 'I' for Inactive)
REMARK    1  A    between atoms: C_1  and  C_2
REMARK    2  A    between atoms: C_2  and  C_3
REMARK    3  A    between atoms: C_17  and  C_20
REMARK    4  A    between atoms: C_20  and  C_21
REMARK    5  A    between atoms: N_26  and  C_29
REMARK    6  A    between atoms: C_29  and  C_30
REMARK    7  A    between atoms: C_30  and  C_31
REMARK    8  A    between atoms: C_34  and  O_39
REMARK    9  A    between atoms: C_35  and  O_37
REMARK   10  A    between atoms: O_37  and  C_38
REMARK   11  A    between atoms: O_39  and  C_40
REMARK                            x       y       z     vdW  Elec       q    Type
REMARK                         _______ _______ _______ _____ _____    ______ ____
ROOT
ATOM      1  C   UNL     1      -1.412  -0.526   0.013  0.00  0.00    -0.026 A 
ATOM      2  C   UNL     1      -2.011  -0.863   1.209  0.00  0.00    +0.005 A 
ATOM      3  C   UNL     1      -3.308  -1.342   1.229  0.00  0.00    +0.001 A 
ATOM      4  C   UNL     1      -4.008  -1.485   0.044  0.00  0.00    +0.008 A 
ATOM      5  C   UNL     1      -3.414  -1.149  -1.152  0.00  0.00    +0.004 A 
ATOM      6  C   UNL     1      -2.111  -0.661  -1.184  0.00  0.00    +0.042 A 
ATOM      7  N   UNL     1      -1.730  -0.387  -2.500  0.00  0.00    -0.283 N 
ATOM      8  C   UNL     1      -2.712  -0.660  -3.380  0.00  0.00    +0.243 C 
ATOM      9  O   UNL     1      -2.665  -0.520  -4.584  0.00  0.00    -0.273 OA
ATOM     10  C   UNL     1      -3.876  -1.181  -2.581  0.00  0.00    +0.136 C 
ATOM     11  C   UNL     1      -4.278  -2.597  -3.012  0.00  0.00    +0.122 C 
ATOM     12  C   UNL     1      -5.826  -2.621  -2.879  0.00  0.00    +0.107 C 
ATOM     13  C   UNL     1      -6.201  -1.219  -2.353  0.00  0.00    +0.076 C 
ATOM     14  N   UNL     1      -5.072  -0.342  -2.783  0.00  0.00    -0.295 NA
ATOM     15  C   UNL     1      -6.296  -2.776  -4.307  0.00  0.00    +0.227 C 
ATOM     16  O   UNL     1      -7.455  -2.829  -4.662  0.00  0.00    -0.275 OA
ATOM     17  N   UNL     1      -5.236  -2.844  -5.120  0.00  0.00    -0.241 N 
ATOM     18  C   UNL     1      -4.038  -2.763  -4.496  0.00  0.00    +0.228 C 
ATOM     19  O   UNL     1      -2.950  -2.811  -5.028  0.00  0.00    -0.275 OA
ATOM     20  H   UNL     1      -0.859  -0.041  -2.750  0.00  0.00    +0.155 HD
ATOM     21  H   UNL     1      -5.029   0.490  -2.213  0.00  0.00    +0.124 HD
ENDROOT
BRANCH   1  23
ATOM     22  C   UNL     1      -0.019   1.526   0.010  0.00  0.00    +0.009 C 
ATOM     23  C   UNL     1       0.002  -0.004   0.002  0.00  0.00    +0.033 C 
ENDBRANCH   1  23
BRANCH  13  24
ATOM     24  C   UNL     1      -7.504  -0.740  -2.995  0.00  0.00    +0.115 C 
BRANCH  24  25
ATOM     25  C   UNL     1      -7.916   0.571  -2.378  0.00  0.00    +0.212 C 
ATOM     26  O   UNL     1      -7.234   1.074  -1.510  0.00  0.00    -0.276 OA
ATOM     27  N   UNL     1      -9.042   1.186  -2.790  0.00  0.00    -0.329 N 
ATOM     28  H   UNL     1      -9.588   0.784  -3.485  0.00  0.00    +0.145 HD
ATOM     29  H   UNL     1      -9.307   2.031  -2.393  0.00  0.00    +0.145 HD
ENDBRANCH  24  25
ENDBRANCH  13  24
BRANCH  17  30
ATOM     30  C   UNL     1      -5.358  -3.002  -6.571  0.00  0.00    +0.121 C 
BRANCH  30  31
ATOM     31  C   UNL     1      -5.425  -1.622  -7.230  0.00  0.00    +0.054 C 
BRANCH  31  32
ATOM     32  C   UNL     1      -5.551  -1.784  -8.723  0.00  0.00    -0.042 A 
ATOM     33  C   UNL     1      -4.415  -1.855  -9.508  0.00  0.00    +0.007 A 
ATOM     34  C   UNL     1      -4.526  -2.003 -10.877  0.00  0.00    +0.049 A 
ATOM     35  C   UNL     1      -5.777  -2.082 -11.467  0.00  0.00    +0.161 A 
ATOM     36  C   UNL     1      -6.921  -2.011 -10.678  0.00  0.00    +0.162 A 
ATOM     37  C   UNL     1      -6.803  -1.867  -9.304  0.00  0.00    +0.053 A 
BRANCH  36  38
ATOM     38  O   UNL     1      -8.151  -2.088 -11.252  0.00  0.00    -0.491 OA
ATOM     39  C   UNL     1      -9.280  -2.009 -10.379  0.00  0.00    +0.277 C 
ENDBRANCH  36  38
BRANCH  35  40
ATOM     40  O   UNL     1      -5.887  -2.228 -12.815  0.00  0.00    -0.491 OA
ATOM     41  C   UNL     1      -4.671  -2.292 -13.562  0.00  0.00    +0.277 C 
ENDBRANCH  35  40
ENDBRANCH  31  32
ENDBRANCH  30  31
ENDBRANCH  17  30
TORSDOF 8
