REMARK  Name = ZINC43549290
REMARK  14 active torsions:
REMARK  status: ('A' for Active; 'I' for Inactive)
REMARK    1  A    between atoms: C_1  and  C_2
REMARK    2  A    between atoms: C_7  and  C_9
REMARK    3  A    between atoms: C_9  and  O_10
REMARK    4  A    between atoms: O_10  and  C_11
REMARK    5  A    between atoms: C_11  and  C_13
REMARK    6  A    between atoms: C_13  and  C_14
REMARK    7  A    between atoms: C_13  and  C_15
REMARK    8  A    between atoms: C_13  and  C_16
REMARK    9  A    between atoms: C_18  and  C_40
REMARK   10  A    between atoms: C_21  and  O_39
REMARK   11  A    between atoms: C_23  and  C_27
REMARK   12  A    between atoms: C_27  and  C_29
REMARK   13  A    between atoms: C_27  and  C_30
REMARK   14  A    between atoms: N_35  and  C_38
REMARK                            x       y       z     vdW  Elec       q    Type
REMARK                         _______ _______ _______ _____ _____    ______ ____
ROOT
ATOM      1  C   UNL     1      -1.722   1.025   0.432  0.00  0.00    +0.014 C 
ATOM      2  C   UNL     1      -1.437  -0.477   0.397  0.00  0.00    +0.042 C 
ATOM      3  C   UNL     1      -2.610  -1.232   1.004  0.00  0.00    +0.055 A 
ATOM      4  C   UNL     1      -2.534  -1.714   2.273  0.00  0.00    +0.014 A 
ATOM      5  S   UNL     1      -4.116  -2.484   2.483  0.00  0.00    -0.073 S 
ATOM      6  C   UNL     1      -4.734  -2.132   0.956  0.00  0.00    +0.116 A 
ATOM      7  N   UNL     1      -3.757  -1.476   0.382  0.00  0.00    -0.245 NA
ATOM      8  C   UNL     1      -1.393  -1.607   3.223  0.00  0.00    +0.051 C 
ATOM      9  C   UNL     1      -0.415  -0.539   2.700  0.00  0.00    -0.022 C 
ATOM     10  C   UNL     1      -0.177  -0.777   1.202  0.00  0.00    +0.033 C 
ATOM     11  C   UNL     1       0.270  -2.223   0.987  0.00  0.00    +0.123 C 
ATOM     12  C   UNL     1       1.589  -2.454   1.730  0.00  0.00    +0.029 C 
ATOM     13  C   UNL     1       1.399  -2.175   3.221  0.00  0.00    +0.007 C 
ATOM     14  C   UNL     1       0.924  -0.731   3.429  0.00  0.00    +0.008 C 
ATOM     15  C   UNL     1      -0.968   0.865   2.953  0.00  0.00    +0.012 C 
ENDROOT
BRANCH  12  16
ATOM     16  C   UNL     1       2.032  -3.906   1.538  0.00  0.00    +0.078 C 
ATOM     17  C   UNL     1       1.018  -4.841   2.200  0.00  0.00    +0.017 C 
BRANCH  16  18
ATOM     18  C   UNL     1       3.386  -4.105   2.169  0.00  0.00    +0.219 C 
ATOM     19  O   UNL     1       3.470  -4.522   3.305  0.00  0.00    -0.275 OA
ATOM     20  N   UNL     1       4.503  -3.819   1.472  0.00  0.00    -0.299 N 
ATOM     21  C   UNL     1       4.424  -3.208   0.137  0.00  0.00    +0.123 C 
ATOM     22  C   UNL     1       5.337  -1.977   0.110  0.00  0.00    +0.103 C 
ATOM     23  N   UNL     1       6.688  -2.364   0.536  0.00  0.00    -0.302 NA
ATOM     24  C   UNL     1       6.691  -2.844   1.925  0.00  0.00    +0.103 C 
ATOM     25  C   UNL     1       5.835  -4.104   2.029  0.00  0.00    +0.123 C 
ATOM     26  C   UNL     1       7.634  -1.253   0.361  0.00  0.00    +0.105 C 
ENDBRANCH  16  18
ENDBRANCH  12  16
BRANCH  11  27
ATOM     27  O   UNL     1       0.457  -2.462  -0.409  0.00  0.00    -0.391 OA
ATOM     28  H   UNL     1       0.661  -3.382  -0.627  0.00  0.00    +0.210 HD
ENDBRANCH  11  27
BRANCH   6  29
ATOM     29  C   UNL     1      -6.085  -2.486   0.387  0.00  0.00    +0.294 C 
BRANCH  29  30
ATOM     30  O   UNL     1      -6.010  -3.756  -0.262  0.00  0.00    -0.457 OA
BRANCH  30  31
ATOM     31  C   UNL     1      -7.137  -4.220  -0.825  0.00  0.00    +0.313 C 
ATOM     32  O   UNL     1      -8.153  -3.569  -0.768  0.00  0.00    -0.250 OA
BRANCH  31  33
ATOM     33  C   UNL     1      -7.135  -5.554  -1.527  0.00  0.00    +0.059 C 
ATOM     34  C   UNL     1      -8.534  -5.843  -2.075  0.00  0.00    +0.022 C 
ATOM     35  C   UNL     1      -6.132  -5.520  -2.681  0.00  0.00    +0.022 C 
ATOM     36  C   UNL     1      -6.738  -6.651  -0.537  0.00  0.00    +0.022 C 
ENDBRANCH  31  33
ENDBRANCH  30  31
ENDBRANCH  29  30
ENDBRANCH   6  29
TORSDOF 7
