REMARK  Name = ZINC01048889
REMARK  4 active torsions:
REMARK  status: ('A' for Active; 'I' for Inactive)
REMARK    1  A    between atoms: C_1  and  C_2
REMARK    2  A    between atoms: C_7  and  C_10
REMARK    3  A    between atoms: N_13  and  S_14
REMARK    4  A    between atoms: S_14  and  C_17
REMARK                            x       y       z     vdW  Elec       q    Type
REMARK                         _______ _______ _______ _____ _____    ______ ____
ROOT
ATOM      1  C   UNL     1      -1.537   3.948   6.815  0.00  0.00    +0.039 C 
ATOM      2  C   UNL     1      -1.712   3.084   5.564  0.00  0.00    +0.133 C 
ATOM      3  C   UNL     1      -1.663   3.973   4.317  0.00  0.00    +0.139 C 
ATOM      4  N   UNL     1      -2.019   3.153   3.148  0.00  0.00    -0.299 N 
ATOM      5  C   UNL     1      -3.250   2.349   3.216  0.00  0.00    +0.139 C 
ATOM      6  C   UNL     1      -3.218   1.535   4.520  0.00  0.00    +0.133 C 
ATOM      7  O   UNL     1      -2.975   2.417   5.618  0.00  0.00    -0.371 OA
ATOM      8  C   UNL     1      -2.103   0.490   4.447  0.00  0.00    +0.039 C 
ATOM      9  C   UNL     1      -1.228   3.143   2.023  0.00  0.00    +0.174 C 
ATOM     10  H   UNL     1       0.318   4.228   2.784  0.00  0.00    +0.158 HD
ATOM     11  N   UNL     1      -1.638   2.462   0.901  0.00  0.00    -0.189 N 
ATOM     12  H   UNL     1      -2.450   1.932   0.925  0.00  0.00    +0.176 HD
ATOM     13  N   UNL     1      -0.065   3.773   1.955  0.00  0.00    -0.374 N 
ATOM     14  H   UNL     1       0.450   3.805   1.067  0.00  0.00    +0.158 HD
ENDROOT
BRANCH  11  15
ATOM     15  S   UNL     1      -0.745   2.547  -0.491  0.00  0.00    +0.074 S 
ATOM     16  O   UNL     1      -0.482   3.924  -0.721  0.00  0.00    -0.150 OA
ATOM     17  O   UNL     1      -1.404   1.727  -1.446  0.00  0.00    -0.150 OA
BRANCH  15  18
ATOM     18  C   UNL     1       0.809   1.785  -0.160  0.00  0.00    +0.110 A 
ATOM     19  C   UNL     1       1.863   2.544   0.313  0.00  0.00    +0.030 A 
ATOM     20  C   UNL     1       3.085   1.948   0.568  0.00  0.00    +0.023 A 
ATOM     21  C   UNL     1       3.252   0.593   0.349  0.00  0.00    +0.059 A 
ATOM     22  C   UNL     1       2.196  -0.167  -0.125  0.00  0.00    +0.061 A 
ATOM     23  C   UNL     1       0.975   0.430  -0.379  0.00  0.00    +0.050 A 
ATOM     24 CL   UNL     1       2.405  -1.868  -0.401  0.00  0.00    -0.082 Cl
ATOM     25 CL   UNL     1       4.786  -0.155   0.668  0.00  0.00    -0.082 Cl
ENDBRANCH  15  18
ENDBRANCH  11  15
TORSDOF 2
