REMARK  Name = ZINC45498864
REMARK  16 active torsions:
REMARK  status: ('A' for Active; 'I' for Inactive)
REMARK    1  A    between atoms: C_1  and  C_2
REMARK    2  A    between atoms: C_2  and  C_3
REMARK    3  A    between atoms: C_2  and  O_4
REMARK    4  A    between atoms: O_4  and  C_5
REMARK    5  A    between atoms: C_7  and  C_18
REMARK    6  A    between atoms: C_10  and  C_11
REMARK    7  A    between atoms: N_13  and  S_14
REMARK    8  A    between atoms: S_14  and  C_17
REMARK    9  A    between atoms: C_21  and  C_24
REMARK   10  A    between atoms: C_24  and  C_25
REMARK   11  A    between atoms: C_25  and  N_26
REMARK   12  A    between atoms: N_26  and  C_27
REMARK   13  A    between atoms: C_27  and  C_28
REMARK   14  A    between atoms: C_28  and  C_30
REMARK   15  A    between atoms: C_28  and  O_37
REMARK   16  A    between atoms: C_35  and  N_36
REMARK                            x       y       z     vdW  Elec       q    Type
REMARK                         _______ _______ _______ _____ _____    ______ ____
ROOT
ATOM      1  C   UNL     1       0.338  -4.231  -2.620  0.00  0.00    -0.018 A 
ATOM      2  C   UNL     1       1.644  -3.759  -2.494  0.00  0.00    +0.009 A 
ATOM      3  C   UNL     1       2.684  -4.449  -3.083  0.00  0.00    +0.004 A 
ATOM      4  C   UNL     1       2.433  -5.606  -3.798  0.00  0.00    -0.049 A 
ATOM      5  C   UNL     1       1.139  -6.078  -3.927  0.00  0.00    +0.004 A 
ATOM      6  C   UNL     1       0.092  -5.401  -3.337  0.00  0.00    +0.009 A 
ENDROOT
BRANCH   1   9
ATOM      7  C   UNL     1      -1.580  -1.638  -0.685  0.00  0.00    +0.134 A 
ATOM      8  C   UNL     1      -0.533  -2.326  -1.274  0.00  0.00    +0.055 A 
ATOM      9  C   UNL     1      -0.784  -3.494  -1.989  0.00  0.00    -0.014 A 
ATOM     10  C   UNL     1      -2.089  -3.973  -2.114  0.00  0.00    +0.009 A 
ATOM     11  C   UNL     1      -3.134  -3.292  -1.531  0.00  0.00    +0.017 A 
ATOM     12  C   UNL     1      -2.889  -2.123  -0.807  0.00  0.00    +0.084 A 
BRANCH  12  13
ATOM     13  C   UNL     1      -4.009  -1.396  -0.176  0.00  0.00    +0.298 C 
ATOM     14  O   UNL     1      -5.272  -1.865  -0.293  0.00  0.00    -0.264 OA
ATOM     15  N   UNL     1      -3.780  -0.303   0.494  0.00  0.00    -0.091 NA
BRANCH  15  16
ATOM     16  S   UNL     1      -5.036   0.512   1.202  0.00  0.00    +0.070 S 
ATOM     17  O   UNL     1      -5.847   0.941   0.117  0.00  0.00    -0.152 OA
ATOM     18  O   UNL     1      -5.547  -0.386   2.178  0.00  0.00    -0.152 OA
ATOM     19  C   UNL     1      -4.267   1.942   2.010  0.00  0.00    +0.223 C 
ENDBRANCH  15  16
ENDBRANCH  12  13
BRANCH   7  20
ATOM     20  O   UNL     1      -1.339  -0.499   0.012  0.00  0.00    -0.489 OA
BRANCH  20  22
ATOM     21  C   UNL     1      -0.011   1.505   0.264  0.00  0.00    +0.051 C 
ATOM     22  C   UNL     1       0.001  -0.002  -0.000  0.00  0.00    +0.167 C 
ATOM     23  C   UNL     1       0.816  -0.704   1.089  0.00  0.00    +0.051 C 
ENDBRANCH  20  22
ENDBRANCH   7  20
ENDBRANCH   1   9
BRANCH   4  24
ATOM     24  C   UNL     1       3.572  -6.354  -4.440  0.00  0.00    +0.016 C 
BRANCH  24  25
ATOM     25  C   UNL     1       4.123  -7.387  -3.454  0.00  0.00    -0.078 C 
BRANCH  25  26
ATOM     26  N   UNL     1       5.234  -8.116  -4.079  0.00  0.00    +0.381 N 
ATOM     27  H   UNL     1       4.904  -8.586  -4.909  0.00  0.00    -0.086 HD
ATOM     28  H   UNL     1       5.965  -7.467  -4.329  0.00  0.00    -0.086 HD
BRANCH  26  29
ATOM     29  C   UNL     1       5.763  -9.108  -3.133  0.00  0.00    -0.046 C 
BRANCH  29  30
ATOM     30  C   UNL     1       6.921  -9.867  -3.784  0.00  0.00    +0.131 C 
BRANCH  30  31
ATOM     31  C   UNL     1       7.463 -10.885  -2.814  0.00  0.00    +0.016 A 
ATOM     32  C   UNL     1       7.027 -12.192  -2.854  0.00  0.00    +0.090 A 
ATOM     33  N   UNL     1       7.497 -13.089  -2.008  0.00  0.00    -0.367 N 
ATOM     34  C   UNL     1       8.398 -12.781  -1.093  0.00  0.00    +0.084 A 
ATOM     35  C   UNL     1       8.886 -11.495  -0.987  0.00  0.00    +0.040 A 
ATOM     36  C   UNL     1       8.418 -10.518  -1.866  0.00  0.00    +0.033 A 
ATOM     37  H   UNL     1       7.172 -14.001  -2.059  0.00  0.00    +0.165 HD
BRANCH  36  38
ATOM     38  N   UNL     1       8.889  -9.211  -1.796  0.00  0.00    -0.358 N 
ATOM     39  H   UNL     1       8.553  -8.540  -2.411  0.00  0.00    +0.142 HD
ATOM     40  H   UNL     1       9.554  -8.970  -1.131  0.00  0.00    +0.142 HD
ENDBRANCH  36  38
ENDBRANCH  30  31
BRANCH  30  41
ATOM     41  O   UNL     1       6.453 -10.533  -4.959  0.00  0.00    -0.389 OA
ATOM     42  H   UNL     1       5.748 -11.174  -4.794  0.00  0.00    +0.210 HD
ENDBRANCH  30  41
ENDBRANCH  29  30
ENDBRANCH  26  29
ENDBRANCH  25  26
ENDBRANCH  24  25
ENDBRANCH   4  24
TORSDOF 13
