REMARK  Name = ZINC01046924
REMARK  9 active torsions:
REMARK  status: ('A' for Active; 'I' for Inactive)
REMARK    1  A    between atoms: C_1  and  C_2
REMARK    2  A    between atoms: C_5  and  C_8
REMARK    3  A    between atoms: C_13  and  C_15
REMARK    4  A    between atoms: C_20  and  N_21
REMARK    5  A    between atoms: N_21  and  C_22
REMARK    6  A    between atoms: N_21  and  S_25
REMARK    7  A    between atoms: C_22  and  C_23
REMARK    8  A    between atoms: S_25  and  C_28
REMARK    9  A    between atoms: C_31  and  C_34
REMARK                            x       y       z     vdW  Elec       q    Type
REMARK                         _______ _______ _______ _____ _____    ______ ____
ROOT
ATOM      1  C   UNL     1      -1.441  -0.825   2.060  0.00  0.00    +0.060 A 
ATOM      2  C   UNL     1      -0.994  -2.147   2.132  0.00  0.00    +0.015 A 
ATOM      3  C   UNL     1      -1.906  -3.180   2.151  0.00  0.00    +0.001 A 
ATOM      4  C   UNL     1      -3.265  -2.916   2.098  0.00  0.00    +0.002 A 
ATOM      5  C   UNL     1      -3.722  -1.615   2.031  0.00  0.00    +0.025 A 
ATOM      6  C   UNL     1      -2.819  -0.561   2.006  0.00  0.00    +0.064 A 
ENDROOT
BRANCH   1  12
ATOM      7  C   UNL     1       0.418   3.681   2.076  0.00  0.00    +0.043 C 
ATOM      8  C   UNL     1       0.332   2.307   2.049  0.00  0.00    +0.152 C 
ATOM      9  C   UNL     1       1.447   1.342   1.974  0.00  0.00    +0.364 C 
ATOM     10  O   UNL     1       2.637   1.591   1.925  0.00  0.00    -0.243 OA
ATOM     11  O   UNL     1       0.863   0.124   1.974  0.00  0.00    -0.402 OA
ATOM     12  C   UNL     1      -0.472   0.286   2.040  0.00  0.00    +0.234 C 
ATOM     13  N   UNL     1      -0.802   1.548   2.079  0.00  0.00    -0.205 NA
BRANCH   7  18
ATOM     14  C   UNL     1       5.543   6.229   2.562  0.00  0.00    +0.044 C 
ATOM     15  C   UNL     1       4.199   5.561   2.434  0.00  0.00    -0.050 A 
ATOM     16  C   UNL     1       3.248   6.085   1.575  0.00  0.00    +0.004 A 
ATOM     17  C   UNL     1       2.016   5.480   1.452  0.00  0.00    +0.008 A 
ATOM     18  C   UNL     1       1.727   4.331   2.200  0.00  0.00    -0.023 A 
ATOM     19  C   UNL     1       2.693   3.811   3.071  0.00  0.00    +0.008 A 
ATOM     20  C   UNL     1       3.922   4.426   3.177  0.00  0.00    +0.004 A 
ENDBRANCH   7  18
ENDBRANCH   1  12
BRANCH   6  21
ATOM     21  N   UNL     1      -3.277   0.751   1.934  0.00  0.00    -0.199 N 
BRANCH  21  22
ATOM     22  S   UNL     1      -3.429   1.652   3.315  0.00  0.00    +0.075 S 
ATOM     23  O   UNL     1      -3.470   3.013   2.909  0.00  0.00    -0.150 OA
ATOM     24  O   UNL     1      -2.460   1.159   4.230  0.00  0.00    -0.150 OA
BRANCH  22  25
ATOM     25  C   UNL     1      -5.007   1.285   4.006  0.00  0.00    +0.109 A 
ATOM     26  C   UNL     1      -5.124   0.319   4.989  0.00  0.00    +0.029 A 
ATOM     27  C   UNL     1      -6.362   0.035   5.535  0.00  0.00    +0.005 A 
ATOM     28  C   UNL     1      -7.483   0.712   5.095  0.00  0.00    -0.050 A 
ATOM     29  C   UNL     1      -7.367   1.674   4.109  0.00  0.00    +0.005 A 
ATOM     30  C   UNL     1      -6.130   1.959   3.563  0.00  0.00    +0.029 A 
ATOM     31  C   UNL     1      -8.833   0.402   5.691  0.00  0.00    +0.044 C 
ENDBRANCH  22  25
ENDBRANCH  21  22
BRANCH  21  32
ATOM     32  C   UNL     1      -3.626   1.335   0.636  0.00  0.00    +0.158 C 
BRANCH  32  33
ATOM     33  C   UNL     1      -2.385   1.885  -0.017  0.00  0.00    -0.014 C 
ATOM     34  C   UNL     1      -2.050   1.494  -1.222  0.00  0.00    +0.005 C 
ENDBRANCH  32  33
ENDBRANCH  21  32
ENDBRANCH   6  21
TORSDOF 7
