REMARK  Name = ZINC13637679
REMARK  10 active torsions:
REMARK  status: ('A' for Active; 'I' for Inactive)
REMARK    1  A    between atoms: C_1  and  C_2
REMARK    2  A    between atoms: C_2  and  C_3
REMARK    3  A    between atoms: C_12  and  N_19
REMARK    4  A    between atoms: C_13  and  C_14
REMARK    5  A    between atoms: C_14  and  O_16
REMARK    6  A    between atoms: O_16  and  C_17
REMARK    7  A    between atoms: C_17  and  C_18
REMARK    8  A    between atoms: C_20  and  C_22
REMARK    9  A    between atoms: C_25  and  S_28
REMARK   10  A    between atoms: S_28  and  N_31
REMARK                            x       y       z     vdW  Elec       q    Type
REMARK                         _______ _______ _______ _____ _____    ______ ____
ROOT
ATOM      1  C   UNL     1       0.742  -0.562   1.194  0.00  0.00    +0.059 C 
ATOM      2  N   UNL     1       1.176   0.366   1.965  0.00  0.00    -0.249 NA
ATOM      3  C   UNL     1       1.868   0.219   3.132  0.00  0.00    +0.085 A 
ATOM      4  C   UNL     1       2.927   1.088   3.407  0.00  0.00    +0.029 A 
ATOM      5  C   UNL     1       3.618   0.985   4.599  0.00  0.00    +0.002 A 
ATOM      6  C   UNL     1       3.264   0.025   5.528  0.00  0.00    +0.002 A 
ATOM      7  C   UNL     1       2.225  -0.851   5.260  0.00  0.00    +0.025 A 
ATOM      8  C   UNL     1       1.539  -0.771   4.061  0.00  0.00    +0.058 A 
ATOM      9  N   UNL     1       0.551  -1.730   3.769  0.00  0.00    -0.300 N 
ATOM     10  C   UNL     1       0.733  -2.547   2.687  0.00  0.00    +0.111 C 
ATOM     11  C   UNL     1       0.874  -1.993   1.417  0.00  0.00    +0.116 C 
ATOM     12  H   UNL     1      -0.241  -1.810   4.323  0.00  0.00    +0.153 HD
ENDROOT
BRANCH  10  13
ATOM     13  N   UNL     1       0.772  -3.904   2.852  0.00  0.00    -0.269 N 
ATOM     14  C   UNL     1       0.758  -4.432   4.092  0.00  0.00    +0.249 C 
ATOM     15  O   UNL     1       0.711  -3.703   5.063  0.00  0.00    -0.270 OA
ATOM     16  H   UNL     1       0.810  -4.486   2.077  0.00  0.00    +0.156 HD
BRANCH  14  17
ATOM     17  C   UNL     1       0.801  -5.898   4.271  0.00  0.00    +0.037 A 
ATOM     18  C   UNL     1       0.861  -6.739   3.158  0.00  0.00    +0.015 A 
ATOM     19  C   UNL     1       0.900  -8.107   3.331  0.00  0.00    +0.029 A 
ATOM     20  C   UNL     1       0.880  -8.646   4.606  0.00  0.00    +0.106 A 
ATOM     21  C   UNL     1       0.820  -7.819   5.713  0.00  0.00    +0.029 A 
ATOM     22  C   UNL     1       0.786  -6.449   5.554  0.00  0.00    +0.015 A 
BRANCH  20  23
ATOM     23  S   UNL     1       0.929 -10.395   4.818  0.00  0.00    +0.061 S 
ATOM     24  O   UNL     1       0.350 -10.666   6.087  0.00  0.00    -0.153 OA
ATOM     25  O   UNL     1       0.432 -10.964   3.616  0.00  0.00    -0.153 OA
BRANCH  23  26
ATOM     26  N   UNL     1       2.524 -10.830   4.924  0.00  0.00    -0.177 NA
ATOM     27  C   UNL     1       3.390 -11.192   3.793  0.00  0.00    +0.109 C 
ATOM     28  C   UNL     1       4.776 -11.546   4.372  0.00  0.00    +0.018 C 
ATOM     29  C   UNL     1       4.454 -11.910   5.845  0.00  0.00    +0.018 C 
ATOM     30  C   UNL     1       3.312 -10.912   6.168  0.00  0.00    +0.109 C 
ENDBRANCH  23  26
ENDBRANCH  20  23
ENDBRANCH  14  17
ENDBRANCH  10  13
BRANCH   1  32
ATOM     31  C   UNL     1      -0.017   1.399  -0.120  0.00  0.00    +0.010 C 
ATOM     32  C   UNL     1       0.023  -0.129  -0.058  0.00  0.00    +0.053 C 
ENDBRANCH   1  32
BRANCH  11  33
ATOM     33  C   UNL     1       1.154  -2.844   0.321  0.00  0.00    +0.344 C 
ATOM     34  O   UNL     1       1.163  -4.051   0.474  0.00  0.00    -0.245 OA
BRANCH  33  35
ATOM     35  O   UNL     1       1.413  -2.316  -0.894  0.00  0.00    -0.461 OA
BRANCH  35  36
ATOM     36  C   UNL     1       1.688  -3.233  -1.955  0.00  0.00    +0.229 C 
ATOM     37  C   UNL     1       1.954  -2.455  -3.245  0.00  0.00    +0.048 C 
ENDBRANCH  35  36
ENDBRANCH  33  35
ENDBRANCH  11  33
TORSDOF 8
