REMARK  Name = ZINC09112234
REMARK  6 active torsions:
REMARK  status: ('A' for Active; 'I' for Inactive)
REMARK    1  A    between atoms: C_6  and  S_7
REMARK    2  A    between atoms: S_7  and  N_10
REMARK    3  A    between atoms: C_16  and  C_18
REMARK    4  A    between atoms: C_18  and  C_19
REMARK    5  A    between atoms: C_19  and  C_20
REMARK    6  A    between atoms: C_22  and  C_25
REMARK                            x       y       z     vdW  Elec       q    Type
REMARK                         _______ _______ _______ _____ _____    ______ ____
ROOT
ATOM      1  N   UNL     1      -2.496  -7.249  -4.754  0.00  0.00    -0.174 NA
ATOM      2  C   UNL     1      -2.866  -7.869  -3.474  0.00  0.00    +0.128 C 
ATOM      3  C   UNL     1      -3.616  -6.833  -2.627  0.00  0.00    +0.125 C 
ATOM      4  N   UNL     1      -2.838  -5.587  -2.612  0.00  0.00    -0.299 N 
ATOM      5  C   UNL     1      -2.473  -4.964  -3.892  0.00  0.00    +0.125 C 
ATOM      6  C   UNL     1      -1.718  -6.002  -4.739  0.00  0.00    +0.128 C 
ATOM      7  C   UNL     1      -2.471  -5.021  -1.445  0.00  0.00    +0.216 C 
ATOM      8  O   UNL     1      -2.782  -5.542  -0.395  0.00  0.00    -0.276 OA
ENDROOT
BRANCH   1   9
ATOM      9  S   UNL     1      -2.948  -7.943  -6.188  0.00  0.00    +0.061 S 
ATOM     10  O   UNL     1      -2.027  -7.487  -7.169  0.00  0.00    -0.153 OA
ATOM     11  O   UNL     1      -3.157  -9.324  -5.923  0.00  0.00    -0.153 OA
BRANCH   9  17
ATOM     12  C   UNL     1      -5.676  -7.895  -6.194  0.00  0.00    +0.032 A 
ATOM     13  C   UNL     1      -6.913  -7.369  -6.525  0.00  0.00    +0.051 A 
ATOM     14  C   UNL     1      -6.986  -6.221  -7.295  0.00  0.00    +0.162 A 
ATOM     15  C   UNL     1      -5.824  -5.597  -7.727  0.00  0.00    +0.164 A 
ATOM     16  C   UNL     1      -4.589  -6.122  -7.389  0.00  0.00    +0.078 A 
ATOM     17  C   UNL     1      -4.519  -7.271  -6.620  0.00  0.00    +0.109 A 
ATOM     18  O   UNL     1      -5.908  -4.465  -8.484  0.00  0.00    -0.488 OA
ATOM     19  C   UNL     1      -6.433  -4.633  -9.802  0.00  0.00    +0.232 C 
ATOM     20  C   UNL     1      -7.953  -4.600  -9.786  0.00  0.00    +0.082 C 
ATOM     21  C   UNL     1      -8.549  -5.769  -9.016  0.00  0.00    +0.232 C 
ATOM     22  O   UNL     1      -8.200  -5.695  -7.633  0.00  0.00    -0.488 OA
ENDBRANCH   9  17
ENDBRANCH   1   9
BRANCH   7  23
ATOM     23  C   UNL     1      -1.673  -3.743  -1.445  0.00  0.00    +0.105 C 
BRANCH  23  24
ATOM     24  C   UNL     1      -1.390  -3.318  -0.003  0.00  0.00    +0.108 C 
BRANCH  24  25
ATOM     25  C   UNL     1      -0.593  -2.039  -0.003  0.00  0.00    +0.228 A 
ATOM     26  N   UNL     1      -1.075  -0.821   0.008  0.00  0.00    -0.191 NA
ATOM     27  C   UNL     1       0.002  -0.004   0.002  0.00  0.00    +0.202 A 
ATOM     28  N   UNL     1       1.064  -0.765  -0.018  0.00  0.00    -0.056 NA
ATOM     29  O   UNL     1       0.740  -1.934  -0.015  0.00  0.00    -0.338 OA
BRANCH  27  30
ATOM     30  C   UNL     1      -0.018   1.481   0.010  0.00  0.00    +0.025 A 
ATOM     31  C   UNL     1      -1.226   2.182   0.020  0.00  0.00    +0.031 A 
ATOM     32  C   UNL     1      -1.200   3.562   0.031  0.00  0.00    +0.111 A 
ATOM     33  N   UNL     1      -0.055   4.217   0.024  0.00  0.00    -0.263 NA
ATOM     34  C   UNL     1       1.107   3.593   0.010  0.00  0.00    +0.111 A 
ATOM     35  C   UNL     1       1.171   2.214   0.003  0.00  0.00    +0.031 A 
ENDBRANCH  27  30
ENDBRANCH  24  25
ENDBRANCH  23  24
ENDBRANCH   7  23
TORSDOF 6
