REMARK  Name = ZINC63669077
REMARK  7 active torsions:
REMARK  status: ('A' for Active; 'I' for Inactive)
REMARK    1  A    between atoms: C_1  and  C_2
REMARK    2  A    between atoms: C_5  and  C_38
REMARK    3  A    between atoms: C_6  and  S_8
REMARK    4  A    between atoms: S_8  and  C_11
REMARK    5  A    between atoms: N_26  and  C_27
REMARK    6  A    between atoms: C_27  and  C_28
REMARK    7  A    between atoms: C_28  and  C_29
REMARK                            x       y       z     vdW  Elec       q    Type
REMARK                         _______ _______ _______ _____ _____    ______ ____
ROOT
ATOM      1  C   UNL     1      -1.446  -4.004   2.642  0.00  0.00    +0.316 C 
ATOM      2  C   UNL     1      -1.649  -4.707   3.994  0.00  0.00    +0.241 C 
ATOM      3  N   UNL     1      -1.538  -6.159   3.876  0.00  0.00    -0.350 N 
ATOM      4  C   UNL     1      -2.323  -6.952   4.555  0.00  0.00    +0.103 C 
ATOM      5  C   UNL     1      -3.364  -6.411   5.453  0.00  0.00    +0.035 A 
ATOM      6  C   UNL     1      -3.959  -7.171   6.451  0.00  0.00    +0.013 A 
ATOM      7  C   UNL     1      -4.939  -6.607   7.244  0.00  0.00    +0.001 A 
ATOM      8  C   UNL     1      -5.333  -5.293   7.054  0.00  0.00    +0.002 A 
ATOM      9  C   UNL     1      -4.744  -4.520   6.068  0.00  0.00    +0.026 A 
ATOM     10  C   UNL     1      -3.761  -5.067   5.277  0.00  0.00    +0.066 A 
ATOM     11  N   UNL     1      -3.060  -4.361   4.300  0.00  0.00    -0.179 N 
ATOM     12  N   UNL     1      -3.460  -3.393   3.397  0.00  0.00    -0.075 NA
ATOM     13  N   UNL     1      -2.653  -3.176   2.488  0.00  0.00    -0.141 NA
ATOM     14  N   UNL     1      -2.178  -8.317   4.432  0.00  0.00    -0.330 N 
ATOM     15  H   UNL     1      -2.756  -8.914   4.933  0.00  0.00    +0.147 HD
ATOM     16  H   UNL     1      -0.870  -6.540   3.284  0.00  0.00    +0.163 HD
ENDROOT
BRANCH   1  17
ATOM     17  S   UNL     1       0.040  -2.965   2.681  0.00  0.00    +0.025 S 
ATOM     18  O   UNL     1       1.205  -3.777   2.698  0.00  0.00    -0.167 OA
ATOM     19  O   UNL     1      -0.124  -1.913   3.623  0.00  0.00    -0.167 OA
BRANCH  17  25
ATOM     20  C   UNL     1      -0.346   1.316  -0.294  0.00  0.00    +0.044 C 
ATOM     21  C   UNL     1      -0.115  -0.171  -0.202  0.00  0.00    -0.049 A 
ATOM     22  C   UNL     1       0.123  -0.905  -1.349  0.00  0.00    +0.004 A 
ATOM     23  C   UNL     1       0.335  -2.268  -1.265  0.00  0.00    +0.005 A 
ATOM     24  C   UNL     1       0.310  -2.897  -0.034  0.00  0.00    -0.026 A 
ATOM     25  C   UNL     1       0.073  -2.163   1.112  0.00  0.00    +0.094 A 
ATOM     26  C   UNL     1      -0.135  -0.798   1.029  0.00  0.00    +0.030 A 
ATOM     27  C   UNL     1       0.540  -4.384   0.057  0.00  0.00    +0.046 C 
ENDBRANCH  17  25
ENDBRANCH   1  17
BRANCH  14  28
ATOM     28  C   UNL     1      -1.149  -8.867   3.546  0.00  0.00    +0.107 C 
BRANCH  28  29
ATOM     29  C   UNL     1      -1.200 -10.396   3.592  0.00  0.00    +0.052 C 
BRANCH  29  30
ATOM     30  C   UNL     1      -0.143 -10.962   2.680  0.00  0.00    -0.040 C 
ATOM     31  C   UNL     1       1.103 -11.358   3.028  0.00  0.00    -0.001 A 
ATOM     32  C   UNL     1       1.819 -11.379   4.309  0.00  0.00    +0.010 A 
ATOM     33  C   UNL     1       3.089 -11.843   4.343  0.00  0.00    +0.001 A 
ATOM     34  C   UNL     1       3.737 -12.303   3.189  0.00  0.00    +0.002 A 
ATOM     35  C   UNL     1       3.145 -12.315   1.976  0.00  0.00    +0.026 A 
ATOM     36  C   UNL     1       1.810 -11.850   1.823  0.00  0.00    +0.043 A 
ATOM     37  N   UNL     1       1.031 -11.761   0.772  0.00  0.00    -0.380 N 
ATOM     38  C   UNL     1      -0.261 -11.208   1.193  0.00  0.00    +0.144 C 
ATOM     39  H   UNL     1       1.268 -12.021  -0.132  0.00  0.00    +0.160 HD
ENDBRANCH  29  30
ENDBRANCH  28  29
ENDBRANCH  14  28
TORSDOF 5
