REMARK  Name = ZINC58689021
REMARK  9 active torsions:
REMARK  status: ('A' for Active; 'I' for Inactive)
REMARK    1  A    between atoms: C_1  and  C_2
REMARK    2  A    between atoms: C_2  and  O_3
REMARK    3  A    between atoms: O_3  and  C_4
REMARK    4  A    between atoms: C_6  and  C_28
REMARK    5  A    between atoms: C_9  and  O_10
REMARK    6  A    between atoms: O_10  and  C_11
REMARK    7  A    between atoms: C_11  and  C_13
REMARK    8  A    between atoms: N_19  and  C_26
REMARK    9  A    between atoms: N_22  and  C_25
REMARK                            x       y       z     vdW  Elec       q    Type
REMARK                         _______ _______ _______ _____ _____    ______ ____
ROOT
ATOM      1  C   UNL     1      -4.383  -1.200  -1.152  0.00  0.00    +0.363 C 
ATOM      2  O   UNL     1      -3.878  -1.580  -2.189  0.00  0.00    -0.243 OA
ENDROOT
BRANCH   1   3
ATOM      3  C   UNL     1      -5.570  -0.312  -1.188  0.00  0.00    +0.150 A 
ATOM      4  C   UNL     1      -6.097   0.074  -2.420  0.00  0.00    +0.036 A 
ATOM      5  C   UNL     1      -7.207   0.904  -2.453  0.00  0.00    +0.019 A 
ATOM      6  C   UNL     1      -7.749   1.320  -1.239  0.00  0.00    +0.082 A 
ATOM      7  C   UNL     1      -7.165   0.892  -0.031  0.00  0.00    +0.150 A 
ATOM      8  N   UNL     1      -6.112   0.096  -0.048  0.00  0.00    -0.222 NA
ATOM      9  N   UNL     1      -7.725   1.320   1.161  0.00  0.00    -0.281 N 
ATOM     10  C   UNL     1      -8.800   2.125   1.165  0.00  0.00    +0.333 A 
ATOM     11  O   UNL     1      -9.258   2.476   2.235  0.00  0.00    -0.246 OA
ATOM     12  N   UNL     1      -9.393   2.560   0.042  0.00  0.00    -0.263 N 
ATOM     13  C   UNL     1      -8.928   2.203  -1.176  0.00  0.00    +0.266 A 
ATOM     14  O   UNL     1      -9.467   2.599  -2.191  0.00  0.00    -0.267 OA
ATOM     15  C   UNL     1     -10.563   3.436   0.138  0.00  0.00    +0.157 C 
ATOM     16  C   UNL     1      -7.138   0.890   2.432  0.00  0.00    +0.155 C 
ENDBRANCH   1   3
BRANCH   1  17
ATOM     17  O   UNL     1      -3.866  -1.585   0.030  0.00  0.00    -0.416 OA
BRANCH  17  23
ATOM     18  C   UNL     1      -1.498  -1.849   0.006  0.00  0.00    +0.165 A 
ATOM     19  C   UNL     1      -0.391  -2.676  -0.003  0.00  0.00    +0.068 A 
ATOM     20  C   UNL     1      -0.558  -4.063  -0.008  0.00  0.00    +0.057 A 
ATOM     21  C   UNL     1      -1.845  -4.608  -0.004  0.00  0.00    +0.038 A 
ATOM     22  C   UNL     1      -2.946  -3.778   0.005  0.00  0.00    +0.065 A 
ATOM     23  C   UNL     1      -2.779  -2.399   0.016  0.00  0.00    +0.187 A 
ATOM     24 BR   UNL     1      -4.686  -4.518   0.010  0.00  0.00    -0.046 Br
BRANCH  20  25
ATOM     25  C   UNL     1       0.586  -4.924  -0.018  0.00  0.00    +0.099 C 
ATOM     26  N   UNL     1       1.494  -5.607  -0.026  0.00  0.00    -0.191 NA
ENDBRANCH  20  25
BRANCH  18  27
ATOM     27  O   UNL     1      -1.339  -0.499   0.012  0.00  0.00    -0.488 OA
BRANCH  27  29
ATOM     28  C   UNL     1      -0.019   1.526   0.010  0.00  0.00    +0.048 C 
ATOM     29  C   UNL     1       0.002  -0.004   0.002  0.00  0.00    +0.226 C 
ENDBRANCH  27  29
ENDBRANCH  18  27
ENDBRANCH  17  23
ENDBRANCH   1  17
TORSDOF 6
