REMARK  Name = ZINC31161078
REMARK  8 active torsions:
REMARK  status: ('A' for Active; 'I' for Inactive)
REMARK    1  A    between atoms: C_1  and  C_2
REMARK    2  A    between atoms: C_2  and  C_35
REMARK    3  A    between atoms: C_14  and  C_30
REMARK    4  A    between atoms: C_15  and  C_16
REMARK    5  A    between atoms: C_16  and  C_17
REMARK    6  A    between atoms: C_30  and  C_31
REMARK    7  A    between atoms: C_30  and  C_32
REMARK    8  A    between atoms: C_30  and  C_33
REMARK                            x       y       z     vdW  Elec       q    Type
REMARK                         _______ _______ _______ _____ _____    ______ ____
ROOT
ATOM      1  C   UNK A   2       3.835   2.473  -2.156  0.00  0.00    +0.060 C 
ATOM      2  C   UNK A   2       3.119   2.445  -0.804  0.00  0.00    +0.124 C 
ATOM      3  C   UNK A   2       1.717   1.930  -0.995  0.00  0.00    +0.020 C 
ATOM      4  C   UNK A   2       1.472   0.624  -0.927  0.00  0.00    +0.011 C 
ATOM      5  C   UNK A   2       2.607  -0.284  -0.650  0.00  0.00    +0.017 A 
ATOM      6  C   UNK A   2       2.513  -1.645  -0.892  0.00  0.00    +0.021 A 
ATOM      7  C   UNK A   2       3.607  -2.465  -0.615  0.00  0.00    +0.004 A 
ATOM      8  C   UNK A   2       4.793  -1.912  -0.094  0.00  0.00    +0.050 A 
ATOM      9  C   UNK A   2       4.873  -0.542   0.145  0.00  0.00    +0.072 A 
ATOM     10  C   UNK A   2       3.793   0.267  -0.129  0.00  0.00    +0.131 A 
ATOM     11  O   UNK A   2       3.845   1.606   0.095  0.00  0.00    -0.482 OA
ATOM     12  N   UNK A   2       5.683  -2.949   0.075  0.00  0.00    -0.357 N 
ATOM     13  H   UNK A   2       6.688  -2.752   0.476  0.00  0.00    +0.166 HD
ATOM     14  C   UNK A   2       5.106  -4.128  -0.317  0.00  0.00    +0.030 A 
ATOM     15  C   UNK A   2       3.854  -3.904  -0.744  0.00  0.00    -0.016 A 
ATOM     16  C   UNK A   2       3.062   3.864  -0.235  0.00  0.00    +0.060 C 
ENDROOT
BRANCH  14  17
ATOM     17  C   UNK A   2       5.778  -5.476  -0.276  0.00  0.00    +0.023 C 
ATOM     18  C   UNK A   2       5.903  -6.027  -1.697  0.00  0.00    +0.022 C 
ATOM     19  C   UNK A   2       7.171  -5.332   0.340  0.00  0.00    +0.022 C 
BRANCH  17  20
ATOM     20  C   UNK A   2       4.955  -6.422   0.560  0.00  0.00    -0.022 C 
ATOM     21  C   UNK A   2       4.578  -7.575   0.064  0.00  0.00    +0.005 C 
ENDBRANCH  17  20
ENDBRANCH  14  17
BRANCH  15  22
ATOM     22  C   UNK A   2       2.884  -4.937  -1.259  0.00  0.00    +0.069 C 
BRANCH  22  23
ATOM     23  C   UNK A   2       2.962  -4.992  -2.786  0.00  0.00    +0.163 C 
ATOM     24  C   UNK A   2       2.111  -6.134  -3.290  0.00  0.00    +0.237 C 
ATOM     25  O   UNK A   2       1.901  -7.109  -2.599  0.00  0.00    -0.274 OA
ATOM     26  N   PRO A   1       1.591  -6.040  -4.530  0.00  0.00    -0.288 N 
ATOM     27  CD  PRO A   1       0.732  -7.001  -5.221  0.00  0.00    +0.109 C 
ATOM     28  CG  PRO A   1      -0.002  -6.240  -6.341  0.00  0.00    +0.021 C 
ATOM     29  CB  PRO A   1       0.514  -4.789  -6.261  0.00  0.00    +0.033 C 
ATOM     30  CA  PRO A   1       1.807  -4.889  -5.428  0.00  0.00    +0.162 C 
ATOM     31  C   PRO A   1       1.950  -3.652  -4.577  0.00  0.00    +0.234 C 
ATOM     32  O   PRO A   1       1.585  -2.579  -5.008  0.00  0.00    -0.274 OA
ATOM     33  N   UNK A   2       2.478  -3.730  -3.343  0.00  0.00    -0.302 N 
ATOM     34  H   UNK A   2       2.541  -2.807  -2.748  0.00  0.00    +0.150 HD
ENDBRANCH  22  23
ENDBRANCH  15  22
TORSDOF 4
