REMARK  Name = ZINC36696982
REMARK  8 active torsions:
REMARK  status: ('A' for Active; 'I' for Inactive)
REMARK    1  A    between atoms: C_1  and  C_2
REMARK    2  A    between atoms: C_3  and  C_18
REMARK    3  A    between atoms: C_4  and  C_17
REMARK    4  A    between atoms: C_7  and  C_8
REMARK    5  A    between atoms: C_8  and  N_10
REMARK    6  A    between atoms: N_12  and  C_16
REMARK    7  A    between atoms: C_18  and  O_20
REMARK    8  A    between atoms: O_20  and  C_21
REMARK                            x       y       z     vdW  Elec       q    Type
REMARK                         _______ _______ _______ _____ _____    ______ ____
ROOT
ATOM      1  C   UNL     1      -0.072   1.442  -0.020  0.00  0.00    +0.047 C 
ATOM      2  C   UNL     1      -0.123  -0.064   0.021  0.00  0.00    -0.006 A 
ATOM      3  C   UNL     1      -0.221  -0.933  -1.091  0.00  0.00    +0.083 A 
ATOM      4  C   UNL     1      -0.237  -2.223  -0.595  0.00  0.00    +0.028 A 
ATOM      5  N   UNL     1      -0.155  -2.162   0.745  0.00  0.00    -0.354 N 
ATOM      6  H   UNL     1      -0.146  -2.926   1.342  0.00  0.00    +0.166 HD
ATOM      7  C   UNL     1      -0.078  -0.845   1.135  0.00  0.00    +0.108 A 
ATOM      8  C   UNL     1      -0.331  -3.483  -1.417  0.00  0.00    +0.064 C 
ENDROOT
BRANCH   7   9
ATOM      9  C   UNL     1       0.030  -0.362   2.522  0.00  0.00    +0.286 C 
ATOM     10  O   UNL     1       0.088   0.836   2.749  0.00  0.00    -0.266 OA
BRANCH   9  11
ATOM     11  N   UNL     1       0.065  -1.236   3.534  0.00  0.00    -0.151 NA
ATOM     12  C   UNL     1       1.206  -1.844   3.850  0.00  0.00    +0.166 A 
ATOM     13  N   UNL     1       2.455  -1.604   3.363  0.00  0.00    -0.331 N 
ATOM     14  C   UNL     1       3.493  -2.350   3.828  0.00  0.00    +0.094 A 
ATOM     15  C   UNL     1       3.217  -3.282   4.746  0.00  0.00    +0.066 A 
ATOM     16  S   UNL     1       1.456  -3.089   4.952  0.00  0.00    -0.061 S 
ATOM     17  C   UNL     1       2.676  -0.563   2.356  0.00  0.00    +0.150 C 
ENDBRANCH   9  11
ENDBRANCH   7   9
BRANCH   3  18
ATOM     18  C   UNL     1      -0.291  -0.539  -2.507  0.00  0.00    +0.341 C 
ATOM     19  O   UNL     1       0.729  -0.413  -3.155  0.00  0.00    -0.245 OA
BRANCH  18  20
ATOM     20  O   UNL     1      -1.488  -0.317  -3.086  0.00  0.00    -0.464 OA
ATOM     21  C   UNL     1      -1.482   0.063  -4.464  0.00  0.00    +0.280 C 
ENDBRANCH  18  20
ENDBRANCH   3  18
TORSDOF 4
