REMARK  Name = ZINC36605213
REMARK  18 active torsions:
REMARK  status: ('A' for Active; 'I' for Inactive)
REMARK    1  A    between atoms: C_1  and  C_2
REMARK    2  A    between atoms: C_5  and  C_9
REMARK    3  A    between atoms: C_6  and  C_8
REMARK    4  A    between atoms: C_9  and  C_11
REMARK    5  A    between atoms: C_9  and  N_22
REMARK    6  A    between atoms: N_13  and  C_14
REMARK    7  A    between atoms: C_14  and  C_15
REMARK    8  A    between atoms: C_14  and  C_16
REMARK    9  A    between atoms: C_14  and  C_17
REMARK   10  A    between atoms: C_17  and  C_18
REMARK   11  A    between atoms: C_18  and  C_19
REMARK   12  A    between atoms: C_18  and  C_20
REMARK   13  A    between atoms: C_18  and  C_21
REMARK   14  A    between atoms: N_22  and  C_23
REMARK   15  A    between atoms: C_29  and  C_31
REMARK   16  A    between atoms: C_31  and  C_33
REMARK   17  A    between atoms: C_31  and  O_39
REMARK   18  A    between atoms: O_39  and  C_40
REMARK                            x       y       z     vdW  Elec       q    Type
REMARK                         _______ _______ _______ _____ _____    ______ ____
ROOT
ATOM      1  C   UNL     1       1.367  -4.694   0.248  0.00  0.00    +0.197 C 
ENDROOT
BRANCH   1   6
ATOM      2  C   UNL     1       4.896  -2.898  -3.961  0.00  0.00    +0.044 C 
ATOM      3  C   UNL     1       3.976  -3.366  -2.864  0.00  0.00    -0.050 A 
ATOM      4  C   UNL     1       4.443  -4.232  -1.893  0.00  0.00    +0.004 A 
ATOM      5  C   UNL     1       3.599  -4.662  -0.886  0.00  0.00    +0.006 A 
ATOM      6  C   UNL     1       2.288  -4.225  -0.850  0.00  0.00    -0.015 A 
ATOM      7  C   UNL     1       1.821  -3.358  -1.820  0.00  0.00    -0.045 A 
ATOM      8  C   UNL     1       2.666  -2.925  -2.824  0.00  0.00    +0.007 A 
ATOM      9  C   UNL     1       0.392  -2.882  -1.780  0.00  0.00    +0.044 C 
ENDBRANCH   1   6
BRANCH   1  10
ATOM     10  C   UNL     1       2.173  -4.999   1.484  0.00  0.00    +0.239 C 
ATOM     11  O   UNL     1       2.575  -6.126   1.683  0.00  0.00    -0.273 OA
ATOM     12  N   UNL     1       2.448  -4.019   2.368  0.00  0.00    -0.308 N 
ATOM     13  H   UNL     1       2.059  -3.138   2.252  0.00  0.00    +0.149 HD
BRANCH  12  14
ATOM     14  C   UNL     1       3.333  -4.285   3.504  0.00  0.00    +0.030 C 
ATOM     15  C   UNL     1       2.759  -5.430   4.341  0.00  0.00    +0.031 C 
ATOM     16  C   UNL     1       4.720  -4.676   2.990  0.00  0.00    +0.031 C 
BRANCH  14  17
ATOM     17  C   UNL     1       3.446  -3.028   4.369  0.00  0.00    +0.031 C 
BRANCH  17  18
ATOM     18  C   UNL     1       3.409  -1.788   3.472  0.00  0.00    -0.036 C 
ATOM     19  C   UNL     1       1.957  -1.444   3.136  0.00  0.00    +0.010 C 
ATOM     20  C   UNL     1       4.056  -0.611   4.205  0.00  0.00    +0.010 C 
ATOM     21  C   UNL     1       4.179  -2.070   2.181  0.00  0.00    +0.010 C 
ENDBRANCH  17  18
ENDBRANCH  14  17
ENDBRANCH  12  14
ENDBRANCH   1  10
BRANCH   1  22
ATOM     22  N   UNL     1       0.665  -5.904  -0.188  0.00  0.00    -0.253 N 
ATOM     23  C   UNL     1      -0.681  -5.954  -0.145  0.00  0.00    +0.254 C 
ATOM     24  O   UNL     1      -1.306  -5.050   0.367  0.00  0.00    -0.272 OA
BRANCH  22  25
ATOM     25  C   UNL     1       1.392  -7.007  -0.648  0.00  0.00    +0.038 A 
ATOM     26  C   UNL     1       2.160  -6.903  -1.801  0.00  0.00    +0.023 A 
ATOM     27  C   UNL     1       2.877  -7.994  -2.252  0.00  0.00    +0.002 A 
ATOM     28  C   UNL     1       2.830  -9.189  -1.558  0.00  0.00    +0.000 A 
ATOM     29  C   UNL     1       2.067  -9.296  -0.411  0.00  0.00    +0.002 A 
ATOM     30  C   UNL     1       1.352  -8.207   0.049  0.00  0.00    +0.023 A 
ENDBRANCH  22  25
BRANCH  23  31
ATOM     31  C   UNL     1      -1.410  -7.134  -0.735  0.00  0.00    +0.234 C 
BRANCH  31  32
ATOM     32  C   UNL     1      -1.347  -7.063  -2.239  0.00  0.00    -0.010 A 
ATOM     33  C   UNL     1      -2.228  -6.253  -2.930  0.00  0.00    +0.006 A 
ATOM     34  C   UNL     1      -2.170  -6.187  -4.310  0.00  0.00    +0.000 A 
ATOM     35  C   UNL     1      -1.231  -6.932  -4.998  0.00  0.00    +0.000 A 
ATOM     36  C   UNL     1      -0.349  -7.742  -4.307  0.00  0.00    +0.000 A 
ATOM     37  C   UNL     1      -0.405  -7.804  -2.927  0.00  0.00    +0.006 A 
ENDBRANCH  31  32
BRANCH  31  38
ATOM     38  O   UNL     1      -2.776  -7.109  -0.314  0.00  0.00    -0.366 OA
ATOM     39  C   UNL     1      -3.021  -7.814   0.905  0.00  0.00    +0.195 C 
ENDBRANCH  31  38
ENDBRANCH  23  31
ENDBRANCH   1  22
TORSDOF 10
