REMARK  Name = ZINC09124116
REMARK  11 active torsions:
REMARK  status: ('A' for Active; 'I' for Inactive)
REMARK    1  A    between atoms: C_1  and  C_2
REMARK    2  A    between atoms: C_2  and  O_3
REMARK    3  A    between atoms: O_3  and  C_4
REMARK    4  A    between atoms: C_6  and  C_11
REMARK    5  A    between atoms: C_9  and  O_10
REMARK    6  A    between atoms: C_14  and  C_28
REMARK    7  A    between atoms: N_21  and  C_22
REMARK    8  A    between atoms: C_22  and  C_23
REMARK    9  A    between atoms: C_30  and  C_36
REMARK   10  A    between atoms: C_32  and  C_35
REMARK   11  A    between atoms: C_33  and  O_34
REMARK                            x       y       z     vdW  Elec       q    Type
REMARK                         _______ _______ _______ _____ _____    ______ ____
ROOT
ATOM      1  C   UNL     1      -0.229  -4.969   0.477  0.00  0.00    +0.142 C 
ATOM      2  C   UNL     1      -1.551  -5.508   0.002  0.00  0.00    +0.035 A 
ATOM      3  C   UNL     1      -2.825  -5.243  -0.387  0.00  0.00    +0.075 A 
ATOM      4  N   UNL     1      -3.402  -6.446  -0.680  0.00  0.00    -0.276 N 
ATOM      5  H   UNL     1      -4.315  -6.565  -0.986  0.00  0.00    +0.189 HD
ATOM      6  N   UNL     1      -2.557  -7.395  -0.491  0.00  0.00    -0.168 NA
ATOM      7  C   UNL     1      -1.404  -6.911  -0.075  0.00  0.00    +0.153 A 
ATOM      8  C   UNL     1      -0.029  -7.245   0.340  0.00  0.00    +0.268 C 
ATOM      9  O   UNL     1       0.426  -8.372   0.387  0.00  0.00    -0.268 OA
ATOM     10  N   UNL     1       0.650  -6.130   0.660  0.00  0.00    -0.278 N 
ENDROOT
BRANCH   3  11
ATOM     11  C   UNL     1      -3.463  -3.912  -0.475  0.00  0.00    +0.042 A 
ATOM     12  C   UNL     1      -4.529  -3.588   0.364  0.00  0.00    +0.017 A 
ATOM     13  C   UNL     1      -5.121  -2.345   0.277  0.00  0.00    -0.049 A 
ATOM     14  C   UNL     1      -4.660  -1.416  -0.640  0.00  0.00    +0.010 A 
ATOM     15  C   UNL     1      -3.605  -1.726  -1.477  0.00  0.00    -0.008 A 
ATOM     16  C   UNL     1      -2.997  -2.968  -1.397  0.00  0.00    +0.129 A 
ATOM     17  C   UNL     1      -3.111  -0.708  -2.473  0.00  0.00    +0.047 C 
ATOM     18  C   UNL     1      -6.273  -1.997   1.184  0.00  0.00    +0.044 C 
BRANCH  16  19
ATOM     19  O   UNL     1      -1.956  -3.271  -2.215  0.00  0.00    -0.506 OA
ATOM     20  H   UNL     1      -2.219  -3.670  -3.056  0.00  0.00    +0.292 HD
ENDBRANCH  16  19
ENDBRANCH   3  11
BRANCH   1  23
ATOM     21  C   UNL     1       0.777  -1.811  -1.336  0.00  0.00    +0.162 A 
ATOM     22  C   UNL     1       0.243  -2.669  -0.388  0.00  0.00    +0.055 A 
ATOM     23  C   UNL     1       0.352  -4.037  -0.555  0.00  0.00    -0.019 A 
ATOM     24  C   UNL     1       0.992  -4.552  -1.667  0.00  0.00    +0.009 A 
ATOM     25  C   UNL     1       1.526  -3.702  -2.616  0.00  0.00    +0.049 A 
ATOM     26  C   UNL     1       1.416  -2.330  -2.458  0.00  0.00    +0.158 A 
BRANCH  26  27
ATOM     27  O   UNL     1       1.936  -1.492  -3.394  0.00  0.00    -0.503 OA
ATOM     28  H   UNL     1       2.856  -1.241  -3.231  0.00  0.00    +0.292 HD
ENDBRANCH  26  27
BRANCH  21  29
ATOM     29  O   UNL     1       0.671  -0.465  -1.174  0.00  0.00    -0.489 OA
BRANCH  29  31
ATOM     30  C   UNL     1      -0.019   1.526   0.010  0.00  0.00    +0.048 C 
ATOM     31  C   UNL     1       0.002  -0.004   0.002  0.00  0.00    +0.226 C 
ENDBRANCH  29  31
ENDBRANCH  21  29
ENDBRANCH   1  23
BRANCH  10  32
ATOM     32  C   UNL     1       2.042  -6.080   1.115  0.00  0.00    +0.183 C 
BRANCH  32  33
ATOM     33  C   UNL     1       2.082  -6.182   2.618  0.00  0.00    +0.122 A 
ATOM     34  C   UNL     1       2.172  -7.321   3.327  0.00  0.00    +0.046 A 
ATOM     35  C   UNL     1       2.179  -6.955   4.693  0.00  0.00    +0.041 A 
ATOM     36  C   UNL     1       2.093  -5.613   4.737  0.00  0.00    +0.195 A 
ATOM     37  O   UNL     1       2.041  -5.150   3.477  0.00  0.00    -0.466 OA
ENDBRANCH  32  33
ENDBRANCH  10  32
TORSDOF 8
