REMARK  Name = ZINC11790296
REMARK  5 active torsions:
REMARK  status: ('A' for Active; 'I' for Inactive)
REMARK    1  A    between atoms: C_5  and  N_7
REMARK    2  A    between atoms: C_11  and  C_14
REMARK    3  A    between atoms: C_22  and  C_24
REMARK    4  A    between atoms: N_31  and  C_34
REMARK    5  A    between atoms: C_34  and  C_35
REMARK                            x       y       z     vdW  Elec       q    Type
REMARK                         _______ _______ _______ _____ _____    ______ ____
ROOT
ATOM      1  N   UNL     1      -1.104   5.562   0.815  0.00  0.00    -0.329 N 
ATOM      2  C   UNL     1      -2.494   6.021   0.927  0.00  0.00    +0.105 C 
ATOM      3  C   UNL     1      -2.535   7.549   0.869  0.00  0.00    +0.020 C 
ATOM      4  C   UNL     1      -1.696   8.121   2.015  0.00  0.00    +0.016 C 
ATOM      5  C   UNL     1      -0.264   7.590   1.903  0.00  0.00    +0.092 C 
ATOM      6  C   UNL     1      -0.289   6.060   1.931  0.00  0.00    +0.118 C 
ENDROOT
BRANCH   1  11
ATOM      7  C   UNL     1      -2.136   2.037   0.831  0.00  0.00    +0.003 A 
ATOM      8  C   UNL     1      -0.932   1.394   0.569  0.00  0.00    +0.014 A 
ATOM      9  C   UNL     1       0.222   2.136   0.395  0.00  0.00    +0.051 A 
ATOM     10  C   UNL     1       0.171   3.545   0.471  0.00  0.00    +0.070 A 
ATOM     11  C   UNL     1      -1.042   4.179   0.733  0.00  0.00    +0.043 A 
ATOM     12  C   UNL     1      -2.195   3.411   0.912  0.00  0.00    +0.024 A 
ATOM     13  C   UNL     1       1.547   4.013   0.234  0.00  0.00    +0.256 C 
ATOM     14  O   UNL     1       1.910   5.173   0.226  0.00  0.00    -0.269 OA
ATOM     15  N   UNL     1       2.337   2.943   0.030  0.00  0.00    -0.232 N 
ATOM     16  C   UNL     1       1.632   1.800   0.105  0.00  0.00    +0.254 C 
ATOM     17  O   UNL     1       2.079   0.679  -0.037  0.00  0.00    -0.270 OA
BRANCH  15  18
ATOM     18  C   UNL     1       3.775   3.014  -0.239  0.00  0.00    +0.148 C 
BRANCH  18  19
ATOM     19  C   UNL     1       4.545   2.966   1.082  0.00  0.00    +0.136 C 
ATOM     20  C   UNL     1       6.056   3.165   0.832  0.00  0.00    +0.035 C 
ATOM     21  C   UNL     1       6.732   2.221   1.852  0.00  0.00    +0.031 C 
ATOM     22  C   UNL     1       5.550   1.564   2.597  0.00  0.00    +0.160 C 
ATOM     23  O   UNL     1       4.439   1.655   1.679  0.00  0.00    -0.375 OA
ENDBRANCH  18  19
ENDBRANCH  15  18
ENDBRANCH   1  11
BRANCH   5  24
ATOM     24  C   UNL     1       0.555   8.101   3.060  0.00  0.00    +0.220 C 
ATOM     25  O   UNL     1       0.931   7.335   3.922  0.00  0.00    -0.275 OA
ATOM     26  N   UNL     1       0.871   9.409   3.136  0.00  0.00    -0.298 N 
ATOM     27  C   UNL     1       1.790   9.898   4.174  0.00  0.00    +0.127 C 
ATOM     28  C   UNL     1       2.941  10.652   3.488  0.00  0.00    +0.127 C 
ATOM     29  N   UNL     1       2.368  11.617   2.538  0.00  0.00    -0.292 N 
ATOM     30  C   UNL     1       1.445  11.129   1.504  0.00  0.00    +0.127 C 
ATOM     31  C   UNL     1       0.298  10.373   2.187  0.00  0.00    +0.127 C 
ATOM     32  C   UNL     1       2.683  12.925   2.615  0.00  0.00    +0.282 C 
ATOM     33  O   UNL     1       3.351  13.336   3.546  0.00  0.00    -0.267 OA
BRANCH  32  34
ATOM     34  C   UNL     1       2.223  13.852   1.576  0.00  0.00    +0.189 A 
ATOM     35  C   UNL     1       2.353  15.211   1.599  0.00  0.00    +0.054 A 
ATOM     36  C   UNL     1       1.777  15.692   0.412  0.00  0.00    +0.042 A 
ATOM     37  C   UNL     1       1.326  14.618  -0.274  0.00  0.00    +0.196 A 
ATOM     38  O   UNL     1       1.601  13.511   0.428  0.00  0.00    -0.458 OA
ENDBRANCH  32  34
ENDBRANCH   5  24
TORSDOF 5
