REMARK  Name = ZINC39674496
REMARK  10 active torsions:
REMARK  status: ('A' for Active; 'I' for Inactive)
REMARK    1  A    between atoms: C_1  and  C_2
REMARK    2  A    between atoms: C_12  and  O_13
REMARK    3  A    between atoms: O_13  and  C_14
REMARK    4  A    between atoms: C_14  and  C_15
REMARK    5  A    between atoms: C_19  and  C_28
REMARK    6  A    between atoms: N_30  and  C_31
REMARK    7  A    between atoms: C_31  and  C_33
REMARK    8  A    between atoms: C_31  and  C_34
REMARK    9  A    between atoms: C_35  and  C_41
REMARK   10  A    between atoms: C_38  and  C_40
REMARK                            x       y       z     vdW  Elec       q    Type
REMARK                         _______ _______ _______ _____ _____    ______ ____
ROOT
ATOM      1  C   UNL     1       0.689  -7.307   3.171  0.00  0.00    +0.253 C 
ATOM      2  O   UNL     1       0.823  -7.872   2.106  0.00  0.00    -0.272 OA
ATOM      3  N   UNL     1       0.639  -8.022   4.312  0.00  0.00    -0.297 N 
ATOM      4  C   UNL     1       0.475  -7.516   5.695  0.00  0.00    +0.121 C 
ATOM      5  C   UNL     1      -0.464  -8.538   6.375  0.00  0.00    +0.100 C 
ATOM      6  C   UNL     1      -0.287  -9.833   5.566  0.00  0.00    -0.004 C 
ATOM      7  C   UNL     1       0.729  -9.494   4.466  0.00  0.00    +0.115 C 
ATOM      8  C   UNL     1      -1.615 -10.250   4.939  0.00  0.00    -0.010 C 
ATOM      9  C   UNL     1      -1.426 -11.570   4.187  0.00  0.00    -0.082 C 
ATOM     10  N   UNL     1      -0.956 -12.603   5.119  0.00  0.00    +0.379 N 
ATOM     11  C   UNL     1       0.364 -12.238   5.646  0.00  0.00    -0.082 C 
ATOM     12  C   UNL     1       0.252 -10.946   6.460  0.00  0.00    -0.010 C 
ATOM     13  H   UNL     1      -1.610 -12.688   5.882  0.00  0.00    -0.086 HD
ATOM     14  H   UNL     1      -0.891 -13.486   4.635  0.00  0.00    -0.086 HD
ENDROOT
BRANCH   5  15
ATOM     15  C   UNL     1      -0.055  -8.752   7.810  0.00  0.00    +0.219 C 
ATOM     16  O   UNL     1       1.110  -8.649   8.130  0.00  0.00    -0.275 OA
ATOM     17  N   UNL     1      -0.984  -9.059   8.737  0.00  0.00    -0.309 N 
ATOM     18  H   UNL     1      -1.916  -9.141   8.481  0.00  0.00    +0.149 HD
BRANCH  17  19
ATOM     19  C   UNL     1      -0.586  -9.268  10.131  0.00  0.00    +0.100 C 
ATOM     20  C   UNL     1      -0.486  -7.916  10.841  0.00  0.00    +0.033 C 
BRANCH  19  21
ATOM     21  C   UNL     1      -1.614 -10.124  10.824  0.00  0.00    -0.001 C 
ATOM     22  C   UNL     1      -1.434 -11.306  11.419  0.00  0.00    +0.063 C 
ATOM     23  N   UNL     1      -2.597 -11.768  11.930  0.00  0.00    -0.159 NA
ATOM     24  N   UNL     1      -3.566 -11.027  11.750  0.00  0.00    -0.180 NA
ATOM     25  C   UNL     1      -3.094  -9.841  11.013  0.00  0.00    +0.154 C 
ATOM     26  C   UNL     1      -3.801  -9.731   9.661  0.00  0.00    +0.039 C 
ATOM     27  C   UNL     1      -0.114 -12.026  11.509  0.00  0.00    +0.067 C 
ENDBRANCH  19  21
ENDBRANCH  17  19
ENDBRANCH   5  15
BRANCH   1  28
ATOM     28  C   UNL     1       0.580  -5.804   3.218  0.00  0.00    +0.324 C 
BRANCH  28  29
ATOM     29  O   UNL     1       0.660  -5.279   1.892  0.00  0.00    -0.479 OA
BRANCH  29  41
ATOM     30  C   UNL     1       0.546   0.144  -1.148  0.00  0.00    +0.045 C 
ATOM     31  C   UNL     1       0.635  -1.349  -0.966  0.00  0.00    -0.033 A 
ATOM     32  C   UNL     1       0.787  -2.173  -2.033  0.00  0.00    +0.096 A 
ATOM     33  C   UNL     1       0.869  -3.569  -1.835  0.00  0.00    +0.338 A 
ATOM     34  O   UNL     1       1.006  -4.298  -2.801  0.00  0.00    -0.245 OA
ATOM     35  O   UNL     1       0.799  -4.112  -0.611  0.00  0.00    -0.418 OA
ATOM     36  C   UNL     1       0.647  -3.347   0.492  0.00  0.00    +0.181 A 
ATOM     37  C   UNL     1       0.565  -1.950   0.369  0.00  0.00    +0.024 A 
ATOM     38  C   UNL     1       0.414  -1.156   1.511  0.00  0.00    +0.012 A 
ATOM     39  C   UNL     1       0.352  -1.748   2.752  0.00  0.00    +0.004 A 
ATOM     40  C   UNL     1       0.438  -3.127   2.876  0.00  0.00    +0.049 A 
ATOM     41  C   UNL     1       0.577  -3.928   1.757  0.00  0.00    +0.164 A 
ENDBRANCH  29  41
ENDBRANCH  28  29
ENDBRANCH   1  28
TORSDOF 6
