REMARK  Name = ZINC09046251
REMARK  8 active torsions:
REMARK  status: ('A' for Active; 'I' for Inactive)
REMARK    1  A    between atoms: C_1  and  C_2
REMARK    2  A    between atoms: C_2  and  N_58
REMARK    3  A    between atoms: C_15  and  C_17
REMARK    4  A    between atoms: C_18  and  O_33
REMARK    5  A    between atoms: C_20  and  O_32
REMARK    6  A    between atoms: N_21  and  C_24
REMARK    7  A    between atoms: C_27  and  C_31
REMARK    8  A    between atoms: C_29  and  C_30
REMARK                            x       y       z     vdW  Elec       q    Type
REMARK                         _______ _______ _______ _____ _____    ______ ____
ROOT
ATOM      1  C   UNL     1      -3.811   2.507   6.709  0.00  0.00    +0.071 A 
ATOM      2  C   UNL     1      -3.925   3.875   6.886  0.00  0.00    +0.224 A 
ATOM      3  N   UNL     1      -3.418   4.708   5.970  0.00  0.00    -0.161 NA
ATOM      4  C   UNL     1      -2.804   4.252   4.901  0.00  0.00    +0.306 A 
ATOM      5  N   UNL     1      -2.669   2.917   4.677  0.00  0.00    -0.230 N 
ATOM      6  C   UNL     1      -3.161   2.029   5.565  0.00  0.00    +0.267 A 
ATOM      7  O   UNL     1      -3.041   0.829   5.375  0.00  0.00    -0.267 OA
ENDROOT
BRANCH   1  20
ATOM      8  C   UNL     1      -5.712  -0.463   7.981  0.00  0.00    -0.073 C 
ATOM      9  C   UNL     1      -4.530  -1.410   8.225  0.00  0.00    +0.019 C 
ATOM     10  C   UNL     1      -3.327  -0.573   8.578  0.00  0.00    -0.022 A 
ATOM     11  C   UNL     1      -2.078  -0.974   9.186  0.00  0.00    +0.003 A 
ATOM     12  C   UNL     1      -1.588  -2.207   9.627  0.00  0.00    +0.010 A 
ATOM     13  C   UNL     1      -0.326  -2.217  10.168  0.00  0.00    +0.001 A 
ATOM     14  C   UNL     1       0.438  -1.066  10.276  0.00  0.00    +0.002 A 
ATOM     15  C   UNL     1      -0.023   0.168   9.851  0.00  0.00    +0.026 A 
ATOM     16  C   UNL     1      -1.300   0.209   9.297  0.00  0.00    +0.047 A 
ATOM     17  N   UNL     1      -2.044   1.234   8.786  0.00  0.00    -0.359 N 
ATOM     18  H   UNL     1      -1.758   2.160   8.735  0.00  0.00    +0.166 HD
ATOM     19  C   UNL     1      -3.254   0.760   8.358  0.00  0.00    +0.011 A 
ATOM     20  C   UNL     1      -4.376   1.552   7.728  0.00  0.00    +0.021 C 
ATOM     21  N   UNL     1      -5.283   0.600   7.044  0.00  0.00    +0.388 N 
ATOM     22  H   UNL     1      -4.781   0.168   6.259  0.00  0.00    -0.080 HD
BRANCH  21  24
ATOM     23  C   UNL     1      -7.267   0.362   5.635  0.00  0.00    -0.017 C 
ATOM     24  C   UNL     1      -6.464   1.317   6.521  0.00  0.00    -0.081 C 
ENDBRANCH  21  24
ENDBRANCH   1  20
BRANCH   5  25
ATOM     25  C   UNL     1      -2.013   2.465   3.524  0.00  0.00    +0.057 A 
ATOM     26  C   UNL     1      -2.734   2.229   2.361  0.00  0.00    +0.027 A 
ATOM     27  C   UNL     1      -2.084   1.789   1.225  0.00  0.00    +0.005 A 
ATOM     28  C   UNL     1      -0.718   1.572   1.248  0.00  0.00    -0.050 A 
ATOM     29  C   UNL     1       0.002   1.805   2.405  0.00  0.00    +0.008 A 
ATOM     30  C   UNL     1      -0.641   2.251   3.543  0.00  0.00    -0.026 A 
ATOM     31  C   UNL     1       0.145   2.506   4.803  0.00  0.00    +0.046 C 
ATOM     32  C   UNL     1      -0.013   1.086   0.008  0.00  0.00    +0.044 C 
ENDBRANCH   5  25
BRANCH   4  33
ATOM     33  O   UNL     1      -2.301   5.127   4.006  0.00  0.00    -0.479 OA
ATOM     34  H   UNL     1      -2.416   6.068   4.199  0.00  0.00    +0.295 HD
ENDBRANCH   4  33
BRANCH   2  35
ATOM     35  O   UNL     1      -4.549   4.369   7.981  0.00  0.00    -0.492 OA
ATOM     36  H   UNL     1      -4.578   5.335   8.014  0.00  0.00    +0.294 HD
ENDBRANCH   2  35
TORSDOF 5
