REMARK  Name = ZINC66437622
REMARK  8 active torsions:
REMARK  status: ('A' for Active; 'I' for Inactive)
REMARK    1  A    between atoms: C_1  and  C_2
REMARK    2  A    between atoms: C_4  and  C_35
REMARK    3  A    between atoms: C_6  and  N_8
REMARK    4  A    between atoms: N_10  and  C_11
REMARK    5  A    between atoms: C_11  and  C_12
REMARK    6  A    between atoms: C_12  and  C_13
REMARK    7  A    between atoms: N_23  and  C_24
REMARK    8  A    between atoms: C_24  and  C_26
REMARK                            x       y       z     vdW  Elec       q    Type
REMARK                         _______ _______ _______ _____ _____    ______ ____
ROOT
ATOM      1  N   UNL     1       0.828  -2.696   2.464  0.00  0.00    -0.328 N 
ATOM      2  C   UNL     1       0.273  -2.121   3.572  0.00  0.00    +0.194 C 
ATOM      3  N   UNL     1      -0.040  -2.890   4.655  0.00  0.00    -0.357 N 
ATOM      4  N   UNL     1       0.039  -0.818   3.595  0.00  0.00    -0.143 NA
ATOM      5  H   UNL     1      -0.433  -2.482   5.442  0.00  0.00    +0.162 HD
ATOM      6  H   UNL     1       0.574  -3.595   2.206  0.00  0.00    +0.169 HD
ENDROOT
BRANCH   1  12
ATOM      7  C   UNL     1       4.050   0.998   2.085  0.00  0.00    +0.044 C 
ATOM      8  C   UNL     1       3.339  -0.192   1.493  0.00  0.00    -0.048 A 
ATOM      9  C   UNL     1       3.610  -0.583   0.195  0.00  0.00    +0.006 A 
ATOM     10  C   UNL     1       2.959  -1.674  -0.352  0.00  0.00    -0.048 A 
ATOM     11  C   UNL     1       2.036  -2.377   0.398  0.00  0.00    +0.029 A 
ATOM     12  C   UNL     1       1.762  -1.986   1.702  0.00  0.00    +0.042 A 
ATOM     13  C   UNL     1       2.422  -0.894   2.250  0.00  0.00    +0.029 A 
ATOM     14  C   UNL     1       3.257  -2.097  -1.767  0.00  0.00    +0.044 C 
ENDBRANCH   1  12
BRANCH   4  15
ATOM     15  C   UNL     1      -0.074  -0.137   2.447  0.00  0.00    +0.270 C 
ATOM     16  O   UNL     1      -0.071  -0.731   1.383  0.00  0.00    -0.268 OA
BRANCH  15  17
ATOM     17  C   UNL     1      -0.204   1.336   2.470  0.00  0.00    +0.043 A 
ATOM     18  C   UNL     1      -0.097   2.029   3.678  0.00  0.00    +0.017 A 
ATOM     19  C   UNL     1      -0.218   3.401   3.698  0.00  0.00    +0.050 A 
ATOM     20  C   UNL     1      -0.447   4.100   2.520  0.00  0.00    +0.166 A 
ATOM     21  C   UNL     1      -0.556   3.413   1.311  0.00  0.00    +0.167 A 
ATOM     22  C   UNL     1      -0.429   2.038   1.284  0.00  0.00    +0.062 A 
ATOM     23  O   UNL     1      -0.778   4.319   0.314  0.00  0.00    -0.453 OA
ATOM     24  C   UNL     1      -1.212   5.521   0.978  0.00  0.00    +0.466 C 
ATOM     25  O   UNL     1      -0.602   5.433   2.279  0.00  0.00    -0.453 OA
ENDBRANCH  15  17
ENDBRANCH   4  15
BRANCH   3  26
ATOM     26  C   UNL     1       0.219  -4.332   4.629  0.00  0.00    +0.120 C 
BRANCH  26  27
ATOM     27  C   UNL     1      -0.220  -4.952   5.957  0.00  0.00    +0.058 C 
BRANCH  27  28
ATOM     28  C   UNL     1       0.046  -6.435   5.930  0.00  0.00    -0.021 A 
ATOM     29  C   UNL     1      -0.827  -7.397   5.594  0.00  0.00    +0.087 A 
ATOM     30  N   UNL     1      -0.229  -8.624   5.687  0.00  0.00    -0.360 N 
ATOM     31  H   UNL     1      -0.661  -9.471   5.494  0.00  0.00    +0.165 HD
ATOM     32  C   UNL     1       1.078  -8.478   6.096  0.00  0.00    +0.047 A 
ATOM     33  C   UNL     1       1.309  -7.100   6.261  0.00  0.00    +0.003 A 
ATOM     34  C   UNL     1       2.565  -6.649   6.669  0.00  0.00    +0.010 A 
ATOM     35  C   UNL     1       3.566  -7.549   6.904  0.00  0.00    +0.001 A 
ATOM     36  C   UNL     1       3.344  -8.909   6.740  0.00  0.00    +0.002 A 
ATOM     37  C   UNL     1       2.109  -9.377   6.346  0.00  0.00    +0.026 A 
ENDBRANCH  27  28
ENDBRANCH  26  27
ENDBRANCH   3  26
TORSDOF 6
