REMARK  Name = ZINC04302841
REMARK  4 active torsions:
REMARK  status: ('A' for Active; 'I' for Inactive)
REMARK    1  A    between atoms: C_1  and  C_2
REMARK    2  A    between atoms: C_5  and  S_11
REMARK    3  A    between atoms: C_7  and  N_8
REMARK    4  A    between atoms: S_11  and  N_14
REMARK                            x       y       z     vdW  Elec       q    Type
REMARK                         _______ _______ _______ _____ _____    ______ ____
ROOT
ATOM      1  S   UNL     1      -1.524  -0.884  -0.010  0.00  0.00    +0.099 S 
ATOM      2  O   UNL     1      -1.320  -2.039   0.792  0.00  0.00    -0.146 OA
ATOM      3  O   UNL     1      -2.549   0.062   0.263  0.00  0.00    -0.146 OA
ENDROOT
BRANCH   1   4
ATOM      4  N   UNL     1      -1.775  -1.421  -1.556  0.00  0.00    -0.129 NA
ATOM      5  C   UNL     1      -2.842  -2.116  -1.841  0.00  0.00    +0.086 C 
ATOM      6  C   UNL     1      -3.823  -2.431  -0.784  0.00  0.00    +0.033 C 
ATOM      7  C   UNL     1      -4.923  -3.142  -1.082  0.00  0.00    +0.053 C 
ATOM      8  C   UNL     1      -5.144  -3.617  -2.454  0.00  0.00    +0.179 C 
ATOM      9  O   UNL     1      -6.139  -4.265  -2.719  0.00  0.00    -0.288 OA
ATOM     10  C   UNL     1      -4.167  -3.311  -3.506  0.00  0.00    +0.053 C 
ATOM     11  C   UNL     1      -3.067  -2.595  -3.217  0.00  0.00    +0.033 C 
ENDBRANCH   1   4
BRANCH   1  16
ATOM     12  C   UNL     1       3.684   2.162  -0.003  0.00  0.00    +0.046 C 
ATOM     13  C   UNL     1       2.383   1.401  -0.005  0.00  0.00    -0.020 A 
ATOM     14  C   UNL     1       2.377   0.042   0.249  0.00  0.00    +0.007 A 
ATOM     15  C   UNL     1       1.184  -0.656   0.247  0.00  0.00    +0.029 A 
ATOM     16  C   UNL     1      -0.004   0.005  -0.007  0.00  0.00    +0.115 A 
ATOM     17  C   UNL     1       0.003   1.364  -0.261  0.00  0.00    +0.062 A 
ATOM     18  C   UNL     1       1.196   2.062  -0.259  0.00  0.00    +0.131 A 
BRANCH  18  19
ATOM     19  N   UNL     1       1.203   3.517  -0.531  0.00  0.00    +0.057 N 
ATOM     20  O   UNL     1       0.150   4.121  -0.640  0.00  0.00    -0.126 OA
ATOM     21  O   UNL     1       2.260   4.111  -0.645  0.00  0.00    -0.126 OA
ENDBRANCH  18  19
ENDBRANCH   1  16
TORSDOF 3
