REMARK  Name = ZINC44874050
REMARK  10 active torsions:
REMARK  status: ('A' for Active; 'I' for Inactive)
REMARK    1  A    between atoms: C_1  and  S_2
REMARK    2  A    between atoms: S_2  and  N_5
REMARK    3  A    between atoms: N_5  and  C_6
REMARK    4  A    between atoms: N_5  and  C_13
REMARK    5  A    between atoms: C_6  and  C_7
REMARK    6  A    between atoms: C_18  and  C_19
REMARK    7  A    between atoms: N_21  and  C_22
REMARK    8  A    between atoms: C_22  and  C_23
REMARK    9  A    between atoms: C_26  and  C_29
REMARK   10  A    between atoms: C_29  and  N_30
REMARK                            x       y       z     vdW  Elec       q    Type
REMARK                         _______ _______ _______ _____ _____    ______ ____
ROOT
ATOM      1  C   UNL     1       0.047   1.691  -3.441  0.00  0.00    +0.246 C 
ATOM      2  O   UNL     1       0.643   1.953  -2.414  0.00  0.00    -0.270 OA
ATOM      3  N   UNL     1      -0.142   2.647  -4.373  0.00  0.00    -0.307 N 
ATOM      4  H   UNL     1      -0.617   2.438  -5.192  0.00  0.00    +0.149 HD
ENDROOT
BRANCH   1  10
ATOM      5  C   UNL     1      -0.369  -0.641  -2.658  0.00  0.00    +0.063 A 
ATOM      6  C   UNL     1      -0.863  -1.920  -2.882  0.00  0.00    +0.025 A 
ATOM      7  C   UNL     1      -1.444  -2.234  -4.093  0.00  0.00    +0.002 A 
ATOM      8  C   UNL     1      -1.538  -1.281  -5.095  0.00  0.00    +0.001 A 
ATOM      9  C   UNL     1      -1.054  -0.007  -4.891  0.00  0.00    +0.015 A 
ATOM     10  C   UNL     1      -0.468   0.328  -3.668  0.00  0.00    +0.059 A 
BRANCH   5  11
ATOM     11  N   UNL     1       0.215  -0.322  -1.439  0.00  0.00    -0.203 N 
BRANCH  11  13
ATOM     12  C   UNL     1       2.219  -2.067  -0.719  0.00  0.00    +0.218 C 
ATOM     13  S   UNL     1       1.862  -0.376  -1.270  0.00  0.00    +0.043 S 
ATOM     14  O   UNL     1       2.150   0.549  -0.231  0.00  0.00    -0.155 OA
ATOM     15  O   UNL     1       2.367  -0.172  -2.583  0.00  0.00    -0.155 OA
ENDBRANCH  11  13
BRANCH  11  16
ATOM     16  C   UNL     1      -0.625   0.062  -0.302  0.00  0.00    +0.166 C 
BRANCH  16  17
ATOM     17  C   UNL     1      -0.930   1.536  -0.378  0.00  0.00    -0.028 A 
ATOM     18  C   UNL     1      -0.086   2.449   0.227  0.00  0.00    +0.005 A 
ATOM     19  C   UNL     1      -0.365   3.801   0.158  0.00  0.00    +0.000 A 
ATOM     20  C   UNL     1      -1.488   4.241  -0.518  0.00  0.00    +0.000 A 
ATOM     21  C   UNL     1      -2.331   3.329  -1.124  0.00  0.00    +0.000 A 
ATOM     22  C   UNL     1      -2.050   1.977  -1.058  0.00  0.00    +0.005 A 
ENDBRANCH  16  17
ENDBRANCH  11  16
ENDBRANCH   5  11
ENDBRANCH   1  10
BRANCH   3  23
ATOM     23  C   UNL     1       0.370   4.001  -4.147  0.00  0.00    +0.139 C 
BRANCH  23  24
ATOM     24  C   UNL     1       0.028   4.870  -5.330  0.00  0.00    -0.030 A 
ATOM     25  C   UNL     1       0.903   4.960  -6.397  0.00  0.00    +0.005 A 
ATOM     26  C   UNL     1       0.590   5.758  -7.482  0.00  0.00    +0.002 A 
ATOM     27  C   UNL     1      -0.598   6.464  -7.500  0.00  0.00    -0.064 A 
ATOM     28  C   UNL     1      -1.473   6.373  -6.434  0.00  0.00    +0.002 A 
ATOM     29  C   UNL     1      -1.162   5.573  -5.351  0.00  0.00    +0.005 A 
BRANCH  27  30
ATOM     30  C   UNL     1      -0.939   7.334  -8.682  0.00  0.00    -0.043 C 
BRANCH  30  31
ATOM     31  N   UNL     1      -1.679   6.544  -9.675  0.00  0.00    +0.382 N 
ATOM     32  C   UNL     1      -0.811   5.484 -10.200  0.00  0.00    -0.078 C 
ATOM     33  C   UNL     1      -1.601   4.607 -11.174  0.00  0.00    -0.019 C 
ATOM     34  C   UNL     1      -2.111   5.471 -12.331  0.00  0.00    -0.004 C 
ATOM     35  C   UNL     1      -2.955   6.617 -11.766  0.00  0.00    -0.019 C 
ATOM     36  C   UNL     1      -2.115   7.419 -10.770  0.00  0.00    -0.078 C 
ATOM     37  H   UNL     1      -2.488   6.128  -9.237  0.00  0.00    -0.081 HD
ENDBRANCH  30  31
ENDBRANCH  27  30
ENDBRANCH  23  24
ENDBRANCH   3  23
TORSDOF 9
