REMARK  Name = ZINC40673950
REMARK  9 active torsions:
REMARK  status: ('A' for Active; 'I' for Inactive)
REMARK    1  A    between atoms: C_1  and  C_2
REMARK    2  A    between atoms: C_5  and  N_19
REMARK    3  A    between atoms: C_6  and  S_9
REMARK    4  A    between atoms: C_7  and  C_8
REMARK    5  A    between atoms: S_9  and  N_12
REMARK    6  A    between atoms: N_12  and  C_13
REMARK    7  A    between atoms: C_13  and  C_14
REMARK    8  A    between atoms: C_13  and  C_15
REMARK    9  A    between atoms: C_13  and  C_16
REMARK                            x       y       z     vdW  Elec       q    Type
REMARK                         _______ _______ _______ _____ _____    ______ ____
ROOT
ATOM      1  S   UNL     1       1.935  -1.887   2.821  0.00  0.00    +0.061 S 
ATOM      2  O   UNL     1       1.905  -0.646   3.515  0.00  0.00    -0.153 OA
ATOM      3  O   UNL     1       1.129  -2.993   3.203  0.00  0.00    -0.153 OA
ENDROOT
BRANCH   1   9
ATOM      4  C   UNL     1      -0.692  -2.887  -1.584  0.00  0.00    +0.044 C 
ATOM      5  C   UNL     1       0.314  -2.035  -0.852  0.00  0.00    -0.046 A 
ATOM      6  C   UNL     1       0.926  -0.979  -1.502  0.00  0.00    +0.005 A 
ATOM      7  C   UNL     1       1.848  -0.197  -0.835  0.00  0.00    +0.025 A 
ATOM      8  C   UNL     1       2.160  -0.472   0.490  0.00  0.00    +0.052 A 
ATOM      9  C   UNL     1       1.543  -1.533   1.140  0.00  0.00    +0.129 A 
ATOM     10  C   UNL     1       0.618  -2.308   0.469  0.00  0.00    -0.019 A 
ATOM     11  C   UNL     1      -0.057  -3.456   1.175  0.00  0.00    +0.046 C 
BRANCH   8  12
ATOM     12  N   UNL     1       3.092   0.317   1.168  0.00  0.00    -0.356 N 
ATOM     13  H   UNL     1       3.565   1.022   0.698  0.00  0.00    +0.142 HD
ATOM     14  H   UNL     1       3.267   0.161   2.109  0.00  0.00    +0.142 HD
ENDBRANCH   8  12
ENDBRANCH   1   9
BRANCH   1  15
ATOM     15  N   UNL     1       3.506  -2.410   2.858  0.00  0.00    -0.175 NA
ATOM     16  H   UNL     1       4.168  -1.922   3.371  0.00  0.00    +0.149 HD
BRANCH  15  17
ATOM     17  C   UNL     1       3.895  -3.612   2.115  0.00  0.00    +0.110 C 
ATOM     18  C   UNL     1       3.200  -4.833   2.720  0.00  0.00    +0.039 C 
ATOM     19  C   UNL     1       3.479  -3.462   0.650  0.00  0.00    +0.039 C 
BRANCH  17  20
ATOM     20  C   UNL     1       5.389  -3.792   2.197  0.00  0.00    +0.232 C 
ATOM     21  O   UNL     1       5.863  -4.907   2.250  0.00  0.00    -0.274 OA
ATOM     22  N   UNL     1       6.198  -2.714   2.212  0.00  0.00    -0.328 N 
ATOM     23  H   UNL     1       5.818  -1.822   2.170  0.00  0.00    +0.145 HD
ATOM     24  H   UNL     1       7.159  -2.830   2.266  0.00  0.00    +0.145 HD
ENDBRANCH  17  20
ENDBRANCH  15  17
ENDBRANCH   1  15
TORSDOF 5
