REMARK  Name = ZINC39836290
REMARK  10 active torsions:
REMARK  status: ('A' for Active; 'I' for Inactive)
REMARK    1  A    between atoms: C_1  and  C_2
REMARK    2  A    between atoms: C_9  and  N_22
REMARK    3  A    between atoms: C_10  and  C_11
REMARK    4  A    between atoms: N_13  and  C_14
REMARK    5  A    between atoms: C_23  and  C_25
REMARK    6  A    between atoms: C_28  and  O_31
REMARK    7  A    between atoms: O_31  and  C_32
REMARK    8  A    between atoms: C_32  and  C_33
REMARK    9  A    between atoms: C_33  and  C_34
REMARK   10  A    between atoms: C_33  and  C_35
REMARK                            x       y       z     vdW  Elec       q    Type
REMARK                         _______ _______ _______ _____ _____    ______ ____
ROOT
ATOM      1  C   UNL     1      -0.019   1.526   0.010  0.00  0.00    +0.008 C 
ATOM      2  C   UNL     1       0.002  -0.004   0.002  0.00  0.00    -0.009 C 
ATOM      3  C   UNL     1       0.724  -0.500  -1.254  0.00  0.00    +0.008 C 
ATOM      4  C   UNL     1       0.537  -2.012  -1.399  0.00  0.00    +0.037 C 
ATOM      5  C   UNL     1       0.935  -2.680  -0.091  0.00  0.00    -0.023 A 
ATOM      6  C   UNL     1       1.019  -1.977   1.059  0.00  0.00    -0.004 A 
ATOM      7  S   UNL     1       1.508  -3.164   2.276  0.00  0.00    -0.077 S 
ATOM      8  C   UNL     1       1.599  -4.539   1.315  0.00  0.00    +0.085 A 
ATOM      9  C   UNL     1       1.254  -4.090   0.050  0.00  0.00    +0.069 A 
ATOM     10  C   UNL     1       0.750  -0.515   1.242  0.00  0.00    +0.046 C 
ENDROOT
BRANCH   9  11
ATOM     11  C   UNL     1       1.212  -5.001  -1.098  0.00  0.00    +0.247 C 
ATOM     12  O   UNL     1       2.208  -5.170  -1.778  0.00  0.00    -0.270 OA
ATOM     13  N   UNL     1       0.071  -5.651  -1.401  0.00  0.00    -0.307 N 
ATOM     14  H   UNL     1      -0.722  -5.516  -0.860  0.00  0.00    +0.149 HD
BRANCH  13  15
ATOM     15  C   UNL     1       0.029  -6.562  -2.549  0.00  0.00    +0.096 C 
ATOM     16  C   UNL     1       0.521  -7.952  -2.115  0.00  0.00    +0.046 C 
ATOM     17  C   UNL     1       0.175  -8.963  -3.245  0.00  0.00    +0.168 C 
ATOM     18  S   UNL     1      -1.508  -8.379  -3.716  0.00  0.00    -0.029 S 
ATOM     19  O   UNL     1      -2.475  -9.102  -2.966  0.00  0.00    -0.174 OA
ATOM     20  O   UNL     1      -1.606  -8.343  -5.133  0.00  0.00    -0.174 OA
ATOM     21  C   UNL     1      -1.423  -6.658  -3.076  0.00  0.00    +0.188 C 
ENDBRANCH  13  15
ENDBRANCH   9  11
BRANCH   8  22
ATOM     22  N   UNL     1       1.942  -5.825   1.699  0.00  0.00    -0.275 N 
ATOM     23  C   UNL     1       2.251  -6.085   2.985  0.00  0.00    +0.249 C 
ATOM     24  O   UNL     1       2.231  -5.190   3.808  0.00  0.00    -0.270 OA
ATOM     25  H   UNL     1       1.958  -6.539   1.043  0.00  0.00    +0.156 HD
BRANCH  23  26
ATOM     26  C   UNL     1       2.615  -7.455   3.394  0.00  0.00    +0.037 A 
ATOM     27  C   UNL     1       2.645  -8.484   2.449  0.00  0.00    +0.016 A 
ATOM     28  C   UNL     1       2.986  -9.761   2.834  0.00  0.00    +0.046 A 
ATOM     29  C   UNL     1       3.299 -10.028   4.162  0.00  0.00    +0.121 A 
ATOM     30  C   UNL     1       3.271  -9.007   5.106  0.00  0.00    +0.046 A 
ATOM     31  C   UNL     1       2.937  -7.726   4.727  0.00  0.00    +0.016 A 
BRANCH  29  32
ATOM     32  O   UNL     1       3.634 -11.288   4.538  0.00  0.00    -0.492 OA
BRANCH  32  33
ATOM     33  C   UNL     1       3.945 -11.492   5.918  0.00  0.00    +0.232 C 
BRANCH  33  34
ATOM     34  C   UNL     1       4.295 -12.963   6.150  0.00  0.00    +0.020 C 
ATOM     35  C   UNL     1       5.578 -13.308   5.391  0.00  0.00    +0.010 C 
ATOM     36  C   UNL     1       4.506 -13.208   7.645  0.00  0.00    +0.010 C 
ENDBRANCH  33  34
ENDBRANCH  32  33
ENDBRANCH  29  32
ENDBRANCH  23  26
ENDBRANCH   8  22
TORSDOF 7
