REMARK  Name = ZINC13033451
REMARK  14 active torsions:
REMARK  status: ('A' for Active; 'I' for Inactive)
REMARK    1  A    between atoms: C_1  and  C_2
REMARK    2  A    between atoms: C_2  and  O_3
REMARK    3  A    between atoms: O_3  and  C_4
REMARK    4  A    between atoms: C_4  and  C_6
REMARK    5  A    between atoms: C_6  and  N_7
REMARK    6  A    between atoms: C_8  and  C_12
REMARK    7  A    between atoms: C_12  and  N_65
REMARK    8  A    between atoms: C_13  and  C_14
REMARK    9  A    between atoms: C_13  and  N_65
REMARK   10  A    between atoms: C_17  and  C_20
REMARK   11  A    between atoms: C_21  and  C_22
REMARK   12  A    between atoms: C_21  and  N_65
REMARK   13  A    between atoms: C_25  and  C_35
REMARK   14  A    between atoms: C_27  and  C_34
REMARK                            x       y       z     vdW  Elec       q    Type
REMARK                         _______ _______ _______ _____ _____    ______ ____
ROOT
ATOM      1  N   UNL     1      -0.536   1.114   1.323  0.00  0.00    +0.390 N 
ATOM      2  H   UNL     1      -0.762   2.094   1.533  0.00  0.00    -0.080 HD
ENDROOT
BRANCH   1   3
ATOM      3  C   UNL     1      -0.252   0.987  -0.122  0.00  0.00    +0.001 C 
BRANCH   3   5
ATOM      4  N   UNL     1      -2.404   1.114  -1.485  0.00  0.00    -0.220 N 
ATOM      5  C   UNL     1      -1.340   1.688  -0.894  0.00  0.00    +0.136 A 
ATOM      6  N   UNL     1      -1.430   2.975  -1.125  0.00  0.00    -0.115 NA
ATOM      7  N   UNL     1      -2.497   3.181  -1.817  0.00  0.00    -0.023 NA
ATOM      8  N   UNL     1      -3.090   2.059  -2.034  0.00  0.00    -0.043 NA
BRANCH   4   9
ATOM      9  C   UNL     1      -2.725  -0.315  -1.500  0.00  0.00    +0.267 C 
BRANCH   9  10
ATOM     10  C   UNL     1      -3.849  -0.588  -0.533  0.00  0.00    +0.329 C 
ATOM     11  O   UNL     1      -4.425   0.332  -0.001  0.00  0.00    -0.249 OA
BRANCH  10  12
ATOM     12  O   UNL     1      -4.210  -1.852  -0.263  0.00  0.00    -0.464 OA
BRANCH  12  14
ATOM     13  C   UNL     1      -5.567  -3.535   0.858  0.00  0.00    +0.048 C 
ATOM     14  C   UNL     1      -5.300  -2.039   0.678  0.00  0.00    +0.229 C 
ENDBRANCH  12  14
ENDBRANCH  10  12
ENDBRANCH   9  10
ENDBRANCH   4   9
ENDBRANCH   3   5
ENDBRANCH   1   3
BRANCH   1  15
ATOM     15  C   UNL     1      -1.691   0.267   1.687  0.00  0.00    -0.042 C 
BRANCH  15  16
ATOM     16  C   UNL     1      -2.199   0.696   3.040  0.00  0.00    -0.064 A 
ATOM     17  C   UNL     1      -1.795   0.020   4.176  0.00  0.00    +0.002 A 
ATOM     18  C   UNL     1      -2.257   0.417   5.417  0.00  0.00    +0.003 A 
ATOM     19  C   UNL     1      -3.131   1.483   5.521  0.00  0.00    -0.050 A 
ATOM     20  C   UNL     1      -3.538   2.156   4.384  0.00  0.00    +0.003 A 
ATOM     21  C   UNL     1      -3.072   1.762   3.143  0.00  0.00    +0.002 A 
ATOM     22  C   UNL     1      -3.638   1.913   6.873  0.00  0.00    +0.044 C 
ENDBRANCH  15  16
ENDBRANCH   1  15
BRANCH   1  23
ATOM     23  C   UNL     1       0.651   0.716   2.108  0.00  0.00    -0.036 C 
BRANCH  23  24
ATOM     24  C   UNL     1       1.646   1.848   2.086  0.00  0.00    +0.001 A 
ATOM     25  C   UNL     1       1.640   2.771   3.079  0.00  0.00    +0.017 A 
ATOM     26  C   UNL     1       2.623   3.856   3.031  0.00  0.00    +0.002 A 
ATOM     27  C   UNL     1       2.669   4.835   4.029  0.00  0.00    -0.041 A 
ATOM     28  C   UNL     1       3.595   5.836   3.952  0.00  0.00    +0.007 A 
ATOM     29  C   UNL     1       4.490   5.891   2.893  0.00  0.00    -0.048 A 
ATOM     30  C   UNL     1       4.463   4.938   1.898  0.00  0.00    +0.029 A 
ATOM     31  C   UNL     1       3.529   3.908   1.955  0.00  0.00    +0.050 A 
ATOM     32  N   UNL     1       3.479   2.940   0.974  0.00  0.00    -0.322 N 
ATOM     33  H   UNL     1       4.104   2.978   0.234  0.00  0.00    +0.169 HD
ATOM     34  C   UNL     1       2.576   1.945   1.030  0.00  0.00    +0.251 A 
ATOM     35  O   UNL     1       2.561   1.107   0.145  0.00  0.00    -0.268 OA
ATOM     36  C   UNL     1       5.503   7.005   2.829  0.00  0.00    +0.044 C 
ATOM     37  C   UNL     1       1.701   4.786   5.183  0.00  0.00    +0.044 C 
ENDBRANCH  23  24
ENDBRANCH   1  23
TORSDOF 10
