REMARK  Name = ZINC40372486
REMARK  6 active torsions:
REMARK  status: ('A' for Active; 'I' for Inactive)
REMARK    1  A    between atoms: C_1  and  C_2
REMARK    2  A    between atoms: C_5  and  C_7
REMARK    3  A    between atoms: N_9  and  C_10
REMARK    4  A    between atoms: C_10  and  C_17
REMARK    5  A    between atoms: C_13  and  C_16
REMARK    6  A    between atoms: N_18  and  O_19
REMARK                            x       y       z     vdW  Elec       q    Type
REMARK                         _______ _______ _______ _____ _____    ______ ____
ROOT
ATOM      1  C   UNL     1       2.460   0.511   4.302  0.00  0.00    +0.093 C 
ATOM      2  C   UNL     1       3.392   1.466   3.554  0.00  0.00    +0.034 C 
ATOM      3  C   UNL     1       4.549   0.674   2.942  0.00  0.00    +0.006 C 
ATOM      4  C   UNL     1       5.328  -0.033   4.053  0.00  0.00    -0.014 C 
ATOM      5  C   UNL     1       4.396  -0.988   4.801  0.00  0.00    +0.006 C 
ATOM      6  C   UNL     1       3.239  -0.195   5.414  0.00  0.00    +0.034 C 
ATOM      7  C   UNL     1       5.882   1.008   5.028  0.00  0.00    +0.007 C 
ENDROOT
BRANCH   1   8
ATOM      8  C   UNL     1       1.321   1.291   4.905  0.00  0.00    +0.155 C 
ATOM      9  N   UNL     1       1.197   1.367   6.189  0.00  0.00    -0.075 NA
ATOM     10  N   UNL     1       0.410   1.923   4.088  0.00  0.00    -0.342 N 
ATOM     11  H   UNL     1       0.543   1.928   3.127  0.00  0.00    +0.144 HD
ATOM     12  H   UNL     1      -0.363   2.364   4.473  0.00  0.00    +0.144 HD
BRANCH   9  13
ATOM     13  O   UNL     1       0.127   2.100   6.755  0.00  0.00    -0.408 OA
ATOM     14  H   UNL     1       0.118   2.099   7.722  0.00  0.00    +0.328 HD
ENDBRANCH   9  13
ENDBRANCH   1   8
BRANCH   1  17
ATOM     15  C   UNL     1       1.000  -1.369   3.782  0.00  0.00    +0.217 C 
ATOM     16  O   UNL     1       0.669  -1.400   4.949  0.00  0.00    -0.275 OA
ATOM     17  N   UNL     1       1.930  -0.485   3.368  0.00  0.00    -0.303 N 
ATOM     18  H   UNL     1       2.247  -0.509   2.452  0.00  0.00    +0.150 HD
BRANCH  15  22
ATOM     19  C   UNL     1      -1.007  -3.238   4.820  0.00  0.00    +0.008 C 
ATOM     20  C   UNL     1      -0.676  -3.299   3.328  0.00  0.00    -0.002 C 
ATOM     21  C   UNL     1       0.712  -3.806   2.932  0.00  0.00    +0.017 C 
ATOM     22  C   UNL     1       0.372  -2.320   2.796  0.00  0.00    +0.078 C 
ENDBRANCH  15  22
ENDBRANCH   1  17
TORSDOF 4
