REMARK  Name = ZINC13117792
REMARK  7 active torsions:
REMARK  status: ('A' for Active; 'I' for Inactive)
REMARK    1  A    between atoms: C_1  and  O_2
REMARK    2  A    between atoms: O_2  and  C_3
REMARK    3  A    between atoms: C_6  and  C_9
REMARK    4  A    between atoms: C_12  and  C_15
REMARK    5  A    between atoms: C_20  and  C_22
REMARK    6  A    between atoms: C_22  and  N_23
REMARK    7  A    between atoms: N_28  and  C_31
REMARK                            x       y       z     vdW  Elec       q    Type
REMARK                         _______ _______ _______ _____ _____    ______ ____
ROOT
ATOM      1  C   UNL     1      -0.130  -3.532  -8.497  0.00  0.00    +0.069 C 
ATOM      2  N   UNL     1      -0.618  -2.831  -7.532  0.00  0.00    -0.181 NA
ATOM      3  N   UNL     1       0.051  -2.986  -6.320  0.00  0.00    -0.181 N 
ATOM      4  C   UNL     1       1.151  -3.946  -6.503  0.00  0.00    +0.173 C 
ATOM      5  C   UNL     1       1.047  -4.336  -7.991  0.00  0.00    +0.090 C 
ATOM      6  C   UNL     1      -0.261  -2.361  -5.167  0.00  0.00    +0.253 C 
ATOM      7  O   UNL     1       0.390  -2.576  -4.166  0.00  0.00    -0.272 OA
ENDROOT
BRANCH   1  11
ATOM      8  C   UNL     1      -1.605  -3.588 -12.477  0.00  0.00    +0.120 A 
ATOM      9  C   UNL     1      -2.216  -2.784 -11.523  0.00  0.00    +0.046 A 
ATOM     10  C   UNL     1      -1.741  -2.763 -10.230  0.00  0.00    +0.013 A 
ATOM     11  C   UNL     1      -0.642  -3.552  -9.879  0.00  0.00    -0.002 A 
ATOM     12  C   UNL     1      -0.028  -4.355 -10.843  0.00  0.00    +0.013 A 
ATOM     13  C   UNL     1      -0.513  -4.374 -12.133  0.00  0.00    +0.046 A 
BRANCH   8  15
ATOM     14  C   UNL     1      -1.402  -4.454 -14.681  0.00  0.00    +0.277 C 
ATOM     15  O   UNL     1      -2.077  -3.605 -13.751  0.00  0.00    -0.495 OA
ENDBRANCH   8  15
ENDBRANCH   1  11
BRANCH   4  16
ATOM     16  C   UNL     1       0.952  -5.154  -5.624  0.00  0.00    +0.128 A 
ATOM     17  C   UNL     1       1.921  -5.817  -4.968  0.00  0.00    +0.046 A 
ATOM     18  C   UNL     1       1.293  -6.875  -4.270  0.00  0.00    +0.041 A 
ATOM     19  C   UNL     1      -0.022  -6.794  -4.542  0.00  0.00    +0.195 A 
ATOM     20  O   UNL     1      -0.224  -5.746  -5.357  0.00  0.00    -0.466 OA
ENDBRANCH   4  16
BRANCH   6  21
ATOM     21  C   UNL     1      -1.418  -1.397  -5.122  0.00  0.00    +0.216 C 
BRANCH  21  22
ATOM     22  N   UNL     1      -1.550  -0.856  -3.767  0.00  0.00    -0.209 N 
ATOM     23  C   UNL     1      -2.297  -1.391  -2.777  0.00  0.00    +0.310 C 
ATOM     24  O   UNL     1      -2.979  -2.393  -2.830  0.00  0.00    -0.264 OA
ATOM     25  C   UNL     1      -2.102  -0.487  -1.596  0.00  0.00    +0.310 C 
ATOM     26  O   UNL     1      -2.591  -0.603  -0.492  0.00  0.00    -0.264 OA
ATOM     27  N   UNL     1      -1.267   0.486  -2.023  0.00  0.00    -0.215 N 
ATOM     28  C   UNL     1      -0.948   0.252  -3.306  0.00  0.00    +0.319 C 
ATOM     29  O   UNL     1      -0.208   0.954  -3.966  0.00  0.00    -0.252 OA
BRANCH  27  30
ATOM     30  C   UNL     1      -0.784   1.609  -1.216  0.00  0.00    +0.086 C 
ATOM     31  C   UNL     1      -0.013   1.086   0.008  0.00  0.00    +0.023 C 
ATOM     32  C   UNL     1      -0.763   1.597   1.255  0.00  0.00    +0.002 C 
ATOM     33  C   UNL     1      -1.531   2.845   0.750  0.00  0.00    +0.002 C 
ATOM     34  C   UNL     1      -1.978   2.421  -0.670  0.00  0.00    +0.023 C 
ENDBRANCH  27  30
ENDBRANCH  21  22
ENDBRANCH   6  21
TORSDOF 6
