REMARK  Name = ZINC15771857
REMARK  14 active torsions:
REMARK  status: ('A' for Active; 'I' for Inactive)
REMARK    1  A    between atoms: C_1  and  N_2
REMARK    2  A    between atoms: N_2  and  C_3
REMARK    3  A    between atoms: N_2  and  C_4
REMARK    4  A    between atoms: C_7  and  C_10
REMARK    5  A    between atoms: C_10  and  C_12
REMARK    6  A    between atoms: C_10  and  C_18
REMARK    7  A    between atoms: C_20  and  C_26
REMARK    8  A    between atoms: C_21  and  O_25
REMARK    9  A    between atoms: C_23  and  O_24
REMARK   10  A    between atoms: C_26  and  C_28
REMARK   11  A    between atoms: C_26  and  C_37
REMARK   12  A    between atoms: C_31  and  N_34
REMARK   13  A    between atoms: N_34  and  C_35
REMARK   14  A    between atoms: N_34  and  C_36
REMARK                            x       y       z     vdW  Elec       q    Type
REMARK                         _______ _______ _______ _____ _____    ______ ____
ROOT
ATOM      1  C   UNL     1       4.944   2.339   3.487  0.00  0.00    +0.008 A 
ATOM      2  C   UNL     1       4.555   2.151   2.175  0.00  0.00    +0.016 A 
ATOM      3  C   UNL     1       4.380   3.238   1.341  0.00  0.00    +0.008 A 
ATOM      4  C   UNL     1       4.600   4.523   1.819  0.00  0.00    +0.124 A 
ATOM      5  C   UNL     1       4.984   4.715   3.137  0.00  0.00    +0.091 A 
ATOM      6  C   UNL     1       5.159   3.622   3.971  0.00  0.00    +0.124 A 
ENDROOT
BRANCH   6   7
ATOM      7  O   UNL     1       5.540   3.806   5.263  0.00  0.00    -0.506 OA
ATOM      8  H   UNL     1       5.710   4.823   5.646  0.00  0.00    +0.292 HD
ENDBRANCH   6   7
BRANCH   4   9
ATOM      9  O   UNL     1       4.434   5.592   0.996  0.00  0.00    -0.506 OA
ATOM     10  H   UNL     1       4.608   6.610   1.375  0.00  0.00    +0.292 HD
ENDBRANCH   4   9
BRANCH   1  11
ATOM     11  C   UNL     1       5.133   1.150   4.394  0.00  0.00    +0.101 C 
BRANCH  11  15
ATOM     12  C   UNL     1       8.399  -1.215   2.978  0.00  0.00    +0.029 A 
ATOM     13  C   UNL     1       8.288   0.117   2.598  0.00  0.00    +0.023 A 
ATOM     14  C   UNL     1       7.231   0.878   3.058  0.00  0.00    +0.006 A 
ATOM     15  C   UNL     1       6.285   0.316   3.895  0.00  0.00    -0.034 A 
ATOM     16  C   UNL     1       6.396  -1.007   4.279  0.00  0.00    +0.006 A 
ATOM     17  C   UNL     1       7.447  -1.776   3.819  0.00  0.00    +0.023 A 
BRANCH  12  19
ATOM     18  C   UNL     1      10.471  -1.394   1.629  0.00  0.00    +0.129 C 
ATOM     19  N   UNL     1       9.467  -1.988   2.516  0.00  0.00    -0.336 N 
ATOM     20  C   UNL     1       9.583  -3.392   2.917  0.00  0.00    +0.129 C 
ENDBRANCH  12  19
ENDBRANCH  11  15
BRANCH  11  21
ATOM     21  C   UNL     1       3.877   0.319   4.402  0.00  0.00    +0.053 A 
ATOM     22  C   UNL     1       3.672  -0.619   3.407  0.00  0.00    +0.024 A 
ATOM     23  C   UNL     1       2.516  -1.383   3.426  0.00  0.00    +0.003 A 
ATOM     24  C   UNL     1       1.599  -1.167   4.443  0.00  0.00    +0.020 A 
ATOM     25  C   UNL     1       1.869  -0.207   5.400  0.00  0.00    +0.111 A 
ATOM     26  N   UNL     1       2.982   0.498   5.354  0.00  0.00    -0.259 NA
ENDBRANCH  11  21
ENDBRANCH   1  11
BRANCH   3  27
ATOM     27  C   UNL     1       3.957   3.030  -0.090  0.00  0.00    +0.101 C 
BRANCH  27  28
ATOM     28  C   UNL     1       5.037   2.284  -0.831  0.00  0.00    -0.034 A 
ATOM     29  C   UNL     1       6.335   2.294  -0.351  0.00  0.00    +0.006 A 
ATOM     30  C   UNL     1       7.326   1.607  -1.024  0.00  0.00    +0.023 A 
ATOM     31  C   UNL     1       7.022   0.916  -2.189  0.00  0.00    +0.029 A 
ATOM     32  C   UNL     1       5.719   0.913  -2.672  0.00  0.00    +0.023 A 
ATOM     33  C   UNL     1       4.731   1.597  -1.991  0.00  0.00    +0.006 A 
BRANCH  31  34
ATOM     34  N   UNL     1       8.023   0.226  -2.876  0.00  0.00    -0.336 N 
ATOM     35  C   UNL     1       7.701  -0.502  -4.106  0.00  0.00    +0.129 C 
ATOM     36  C   UNL     1       9.397   0.230  -2.366  0.00  0.00    +0.129 C 
ENDBRANCH  31  34
ENDBRANCH  27  28
BRANCH  27  37
ATOM     37  C   UNL     1       2.681   2.229  -0.125  0.00  0.00    +0.053 A 
ATOM     38  C   UNL     1       2.737   0.850  -0.050  0.00  0.00    +0.024 A 
ATOM     39  C   UNL     1       1.557   0.123  -0.083  0.00  0.00    +0.003 A 
ATOM     40  C   UNL     1       0.359   0.813  -0.190  0.00  0.00    +0.020 A 
ATOM     41  C   UNL     1       0.381   2.193  -0.260  0.00  0.00    +0.111 A 
ATOM     42  N   UNL     1       1.523   2.852  -0.226  0.00  0.00    -0.259 NA
ENDBRANCH  27  37
ENDBRANCH   3  27
TORSDOF 10
