REMARK  Name = ZINC06894828
REMARK  6 active torsions:
REMARK  status: ('A' for Active; 'I' for Inactive)
REMARK    1  A    between atoms: C_1  and  N_2
REMARK    2  A    between atoms: C_12  and  C_20
REMARK    3  A    between atoms: N_22  and  C_23
REMARK    4  A    between atoms: C_28  and  C_29
REMARK    5  A    between atoms: C_29  and  O_31
REMARK    6  A    between atoms: O_31  and  C_32
REMARK                            x       y       z     vdW  Elec       q    Type
REMARK                         _______ _______ _______ _____ _____    ______ ____
ROOT
ATOM      1  C   UNL     1       5.861  -0.382   0.075  0.00  0.00    +0.138 C 
ATOM      2  N   UNL     1       6.017   1.058  -0.142  0.00  0.00    -0.275 N 
ATOM      3  C   UNL     1       6.609   1.615  -1.277  0.00  0.00    +0.038 A 
ATOM      4  C   UNL     1       7.161   1.012  -2.405  0.00  0.00    +0.024 A 
ATOM      5  C   UNL     1       7.697   1.787  -3.413  0.00  0.00    +0.002 A 
ATOM      6  C   UNL     1       7.691   3.166  -3.313  0.00  0.00    +0.000 A 
ATOM      7  C   UNL     1       7.144   3.773  -2.196  0.00  0.00    +0.004 A 
ATOM      8  C   UNL     1       6.608   3.004  -1.188  0.00  0.00    -0.027 A 
ATOM      9  C   UNL     1       5.952   3.335   0.126  0.00  0.00    +0.052 C 
ATOM     10  C   UNL     1       5.606   1.998   0.729  0.00  0.00    +0.214 C 
ATOM     11  O   UNL     1       5.061   1.806   1.796  0.00  0.00    -0.276 OA
ATOM     12  C   UNL     1       4.686   4.176  -0.094  0.00  0.00    +0.076 C 
ATOM     13  C   UNL     1       4.695   5.146   1.119  0.00  0.00    -0.003 C 
ATOM     14  C   UNL     1       6.210   5.399   1.308  0.00  0.00    -0.066 C 
ATOM     15  C   UNL     1       6.999   3.398   2.306  0.00  0.00    -0.077 C 
ATOM     16  C   UNL     1       7.351   4.536   3.295  0.00  0.00    -0.020 C 
ATOM     17  C   UNL     1       6.490   5.714   2.786  0.00  0.00    -0.017 C 
ATOM     18  N   UNL     1       6.834   4.110   1.026  0.00  0.00    +0.394 N 
ATOM     19  H   UNL     1       7.749   4.249   0.581  0.00  0.00    -0.079 HD
ENDROOT
BRANCH  12  20
ATOM     20  C   UNL     1       3.456   3.305  -0.071  0.00  0.00    +0.220 C 
ATOM     21  O   UNL     1       2.977   2.959   0.988  0.00  0.00    -0.275 OA
ATOM     22  N   UNL     1       2.889   2.910  -1.228  0.00  0.00    -0.285 N 
ATOM     23  H   UNL     1       3.302   3.141  -2.075  0.00  0.00    +0.155 HD
BRANCH  22  24
ATOM     24  C   UNL     1       1.708   2.171  -1.208  0.00  0.00    +0.047 A 
ATOM     25  C   UNL     1       1.487   1.237  -0.205  0.00  0.00    +0.024 A 
ATOM     26  C   UNL     1       0.317   0.506  -0.187  0.00  0.00    +0.002 A 
ATOM     27  C   UNL     1      -0.643   0.693  -1.170  0.00  0.00    +0.001 A 
ATOM     28  C   UNL     1      -0.444   1.620  -2.170  0.00  0.00    +0.017 A 
ATOM     29  C   UNL     1       0.737   2.368  -2.201  0.00  0.00    +0.080 A 
BRANCH  29  30
ATOM     30  C   UNL     1       0.959   3.357  -3.271  0.00  0.00    +0.341 C 
ATOM     31  O   UNL     1       2.021   3.942  -3.346  0.00  0.00    -0.245 OA
BRANCH  30  32
ATOM     32  O   UNL     1      -0.015   3.612  -4.166  0.00  0.00    -0.464 OA
ATOM     33  C   UNL     1       0.274   4.597  -5.193  0.00  0.00    +0.280 C 
ENDBRANCH  30  32
ENDBRANCH  29  30
ENDBRANCH  22  24
ENDBRANCH  12  20
TORSDOF 4
