REMARK  Name = ZINC16400821
REMARK  5 active torsions:
REMARK  status: ('A' for Active; 'I' for Inactive)
REMARK    1  A    between atoms: C_4  and  C_7
REMARK    2  A    between atoms: C_7  and  C_8
REMARK    3  A    between atoms: C_8  and  N_9
REMARK    4  A    between atoms: C_18  and  C_23
REMARK    5  A    between atoms: C_18  and  C_27
REMARK                            x       y       z     vdW  Elec       q    Type
REMARK                         _______ _______ _______ _____ _____    ______ ____
ROOT
ATOM      1  N   UNL     1       1.166   3.545   0.010  0.00  0.00    -0.309 N 
ATOM      2  C   UNL     1       1.174   2.172   0.003  0.00  0.00    +0.119 A 
ATOM      3  C   UNL     1      -0.018   1.506   0.010  0.00  0.00    +0.096 A 
ATOM      4  C   UNL     1      -1.220   2.222   0.031  0.00  0.00    +0.260 A 
ATOM      5  O   UNL     1      -2.289   1.636   0.043  0.00  0.00    -0.267 OA
ATOM      6  N   UNL     1      -1.180   3.572   0.032  0.00  0.00    -0.302 N 
ATOM      7  H   UNL     1      -2.007   4.079   0.041  0.00  0.00    +0.171 HD
ATOM      8  C   UNL     1       0.000   4.217   0.024  0.00  0.00    +0.162 A 
ATOM      9  S   UNL     1       0.020   5.929   0.033  0.00  0.00    -0.013 S 
ATOM     10  C   UNL     1       0.002  -0.004   0.002  0.00  0.00    +0.260 C 
ATOM     11  N   UNL     1       1.329  -0.647  -0.014  0.00  0.00    -0.274 N 
ATOM     12  C   UNL     1       2.424   0.138  -0.020  0.00  0.00    +0.306 C 
ATOM     13  O   UNL     1       3.519  -0.389  -0.034  0.00  0.00    -0.252 OA
ATOM     14  N   UNL     1       2.356   1.476  -0.012  0.00  0.00    -0.255 N 
ATOM     15  H   UNL     1       1.412  -1.613  -0.020  0.00  0.00    +0.152 HD
ATOM     16  H   UNL     1       3.185   1.978  -0.017  0.00  0.00    +0.158 HD
ENDROOT
BRANCH  10  17
ATOM     17  C   UNL     1      -0.746  -0.494   1.243  0.00  0.00    +0.424 C 
ATOM     18  F   UNL     1      -2.065  -0.029   1.206  0.00  0.00    -0.168 F 
ATOM     19  F   UNL     1      -0.746  -1.893   1.266  0.00  0.00    -0.168 F 
ATOM     20  F   UNL     1      -0.112  -0.009   2.392  0.00  0.00    -0.168 F 
ENDBRANCH  10  17
BRANCH  10  21
ATOM     21  C   UNL     1      -0.769  -0.481  -1.230  0.00  0.00    +0.424 C 
ATOM     22  F   UNL     1      -0.156   0.017  -2.385  0.00  0.00    -0.168 F 
ATOM     23  F   UNL     1      -0.769  -1.880  -1.268  0.00  0.00    -0.168 F 
ATOM     24  F   UNL     1      -2.087  -0.016  -1.164  0.00  0.00    -0.168 F 
ENDBRANCH  10  21
BRANCH   1  25
ATOM     25  C   UNL     1       2.433   4.282   0.002  0.00  0.00    +0.130 C 
BRANCH  25  26
ATOM     26  C   UNL     1       2.860   4.545  -1.444  0.00  0.00    +0.057 C 
BRANCH  26  30
ATOM     27  C   UNL     1       6.553   6.693  -1.468  0.00  0.00    +0.000 A 
ATOM     28  C   UNL     1       6.557   5.310  -1.475  0.00  0.00    +0.000 A 
ATOM     29  C   UNL     1       5.362   4.615  -1.467  0.00  0.00    +0.004 A 
ATOM     30  C   UNL     1       4.163   5.303  -1.452  0.00  0.00    -0.046 A 
ATOM     31  C   UNL     1       4.159   6.685  -1.450  0.00  0.00    +0.004 A 
ATOM     32  C   UNL     1       5.354   7.380  -1.452  0.00  0.00    +0.000 A 
ENDBRANCH  26  30
ENDBRANCH  25  26
ENDBRANCH   1  25
TORSDOF 5
