REMARK  Name = ZINC08410558
REMARK  10 active torsions:
REMARK  status: ('A' for Active; 'I' for Inactive)
REMARK    1  A    between atoms: C_1  and  C_2
REMARK    2  A    between atoms: C_2  and  O_3
REMARK    3  A    between atoms: O_3  and  C_4
REMARK    4  A    between atoms: C_6  and  C_18
REMARK    5  A    between atoms: C_9  and  O_10
REMARK    6  A    between atoms: O_10  and  C_11
REMARK    7  A    between atoms: C_11  and  C_13
REMARK    8  A    between atoms: C_21  and  C_32
REMARK    9  A    between atoms: C_27  and  N_31
REMARK   10  A    between atoms: C_28  and  C_29
REMARK                            x       y       z     vdW  Elec       q    Type
REMARK                         _______ _______ _______ _____ _____    ______ ____
ROOT
ATOM      1  C   UNL     1       0.675  -4.926  -0.013  0.00  0.00    +0.102 C 
ATOM      2  C   UNL     1       0.643  -5.837   1.187  0.00  0.00    +0.054 A 
ATOM      3  C   UNL     1       0.864  -5.535   2.534  0.00  0.00    +0.100 A 
ATOM      4  N   UNL     1       0.730  -6.649   3.228  0.00  0.00    -0.171 NA
ATOM      5  N   UNL     1       0.422  -7.689   2.337  0.00  0.00    -0.246 N 
ATOM      6  H   UNL     1       0.269  -8.617   2.576  0.00  0.00    +0.192 HD
ATOM      7  C   UNL     1       0.374  -7.172   1.093  0.00  0.00    +0.223 A 
ATOM      8  O   UNL     1       0.116  -7.785  -0.090  0.00  0.00    -0.423 OA
ATOM      9  C   UNL     1       0.398  -7.106  -1.220  0.00  0.00    +0.200 C 
ATOM     10  C   UNL     1       0.667  -5.781  -1.255  0.00  0.00    +0.098 C 
ENDROOT
BRANCH   3  11
ATOM     11  C   UNL     1       1.191  -4.196   3.086  0.00  0.00    +0.006 A 
ATOM     12  C   UNL     1       1.980  -3.312   2.353  0.00  0.00    +0.014 A 
ATOM     13  C   UNL     1       2.283  -2.068   2.866  0.00  0.00    +0.050 A 
ATOM     14  C   UNL     1       1.804  -1.693   4.113  0.00  0.00    +0.166 A 
ATOM     15  C   UNL     1       1.014  -2.573   4.851  0.00  0.00    +0.167 A 
ATOM     16  C   UNL     1       0.704  -3.820   4.336  0.00  0.00    +0.059 A 
ATOM     17  O   UNL     1       0.675  -1.972   6.029  0.00  0.00    -0.453 OA
ATOM     18  C   UNL     1       1.599  -0.879   6.182  0.00  0.00    +0.466 C 
ATOM     19  O   UNL     1       1.958  -0.541   4.829  0.00  0.00    -0.453 OA
ENDBRANCH   3  11
BRANCH   1  22
ATOM     20  C   UNL     1      -1.497  -1.835   0.038  0.00  0.00    +0.163 A 
ATOM     21  C   UNL     1      -0.382  -2.659   0.030  0.00  0.00    +0.054 A 
ATOM     22  C   UNL     1      -0.538  -4.032  -0.004  0.00  0.00    -0.031 A 
ATOM     23  C   UNL     1      -1.804  -4.586  -0.029  0.00  0.00    +0.008 A 
ATOM     24  C   UNL     1      -2.920  -3.771  -0.022  0.00  0.00    +0.050 A 
ATOM     25  C   UNL     1      -2.771  -2.393   0.017  0.00  0.00    +0.173 A 
BRANCH  20  26
ATOM     26  O   UNL     1      -1.345  -0.484   0.072  0.00  0.00    -0.489 OA
BRANCH  26  28
ATOM     27  C   UNL     1      -0.038   1.548   0.129  0.00  0.00    +0.048 C 
ATOM     28  C   UNL     1      -0.008   0.019   0.092  0.00  0.00    +0.226 C 
ENDBRANCH  26  28
ENDBRANCH  20  26
BRANCH  25  29
ATOM     29  O   UNL     1      -3.868  -1.589   0.030  0.00  0.00    -0.416 OA
BRANCH  29  30
ATOM     30  C   UNL     1      -4.261  -1.035  -1.135  0.00  0.00    +0.380 C 
ATOM     31  O   UNL     1      -3.701  -1.337  -2.171  0.00  0.00    -0.241 OA
BRANCH  30  32
ATOM     32  C   UNL     1      -5.362  -0.070  -1.152  0.00  0.00    +0.212 A 
ATOM     33  C   UNL     1      -5.862   0.559  -2.258  0.00  0.00    +0.056 A 
ATOM     34  C   UNL     1      -6.902   1.389  -1.814  0.00  0.00    +0.042 A 
ATOM     35  C   UNL     1      -6.991   1.234  -0.474  0.00  0.00    +0.196 A 
ATOM     36  O   UNL     1      -6.066   0.350  -0.080  0.00  0.00    -0.456 OA
ENDBRANCH  30  32
ENDBRANCH  29  30
ENDBRANCH  25  29
ENDBRANCH   1  22
BRANCH   9  37
ATOM     37  N   UNL     1       0.411  -7.799  -2.405  0.00  0.00    -0.328 N 
ATOM     38  H   UNL     1       0.221  -8.750  -2.412  0.00  0.00    +0.145 HD
ATOM     39  H   UNL     1       0.610  -7.338  -3.235  0.00  0.00    +0.145 HD
ENDBRANCH   9  37
BRANCH  10  40
ATOM     40  C   UNL     1       0.957  -5.167  -2.516  0.00  0.00    +0.101 C 
ATOM     41  N   UNL     1       1.187  -4.681  -3.517  0.00  0.00    -0.191 NA
ENDBRANCH  10  40
TORSDOF 9
