REMARK  Name = ZINC14922315
REMARK  10 active torsions:
REMARK  status: ('A' for Active; 'I' for Inactive)
REMARK    1  A    between atoms: C_1  and  C_2
REMARK    2  A    between atoms: N_4  and  C_34
REMARK    3  A    between atoms: C_8  and  N_9
REMARK    4  A    between atoms: N_9  and  C_10
REMARK    5  A    between atoms: C_13  and  N_19
REMARK    6  A    between atoms: C_14  and  N_16
REMARK    7  A    between atoms: C_20  and  C_21
REMARK    8  A    between atoms: C_22  and  C_33
REMARK    9  A    between atoms: N_24  and  C_27
REMARK   10  A    between atoms: C_25  and  O_26
REMARK                            x       y       z     vdW  Elec       q    Type
REMARK                         _______ _______ _______ _____ _____    ______ ____
ROOT
ATOM      1  C   UNL     1       0.078  -1.040   4.825  0.00  0.00    +0.033 A 
ATOM      2  C   UNL     1       0.331   0.282   5.172  0.00  0.00    +0.025 A 
ATOM      3  C   UNL     1       0.333   0.661   6.497  0.00  0.00    +0.032 A 
ATOM      4  C   UNL     1       0.081  -0.286   7.492  0.00  0.00    +0.094 A 
ATOM      5  C   UNL     1      -0.173  -1.614   7.140  0.00  0.00    +0.153 A 
ATOM      6  C   UNL     1      -0.179  -1.984   5.813  0.00  0.00    +0.058 A 
ENDROOT
BRANCH   5   7
ATOM      7  N   UNL     1      -0.441  -2.621   8.191  0.00  0.00    +0.059 N 
ATOM      8  O   UNL     1      -0.660  -3.770   7.886  0.00  0.00    -0.126 OA
ATOM      9  O   UNL     1      -0.440  -2.295   9.355  0.00  0.00    -0.126 OA
ENDBRANCH   5   7
BRANCH   1  10
ATOM     10  N   UNL     1       0.077  -1.421   3.480  0.00  0.00    -0.320 N 
ATOM     11  H   UNL     1      -0.103  -2.342   3.237  0.00  0.00    +0.152 HD
BRANCH  10  19
ATOM     12  C   UNL     1       0.885   1.445   0.037  0.00  0.00    +0.068 C 
ATOM     13  C   UNL     1       0.575  -0.030   0.016  0.00  0.00    +0.070 C 
ATOM     14  N   UNL     1       0.484  -0.779  -1.040  0.00  0.00    -0.176 NA
ATOM     15  N   UNL     1       0.184  -2.098  -0.702  0.00  0.00    -0.156 N 
ATOM     16  C   UNL     1       0.073  -2.220   0.637  0.00  0.00    +0.273 C 
ATOM     17  O   UNL     1      -0.181  -3.235   1.263  0.00  0.00    -0.268 OA
ATOM     18  C   UNL     1       0.326  -0.882   1.188  0.00  0.00    +0.075 C 
ATOM     19  C   UNL     1       0.327  -0.506   2.520  0.00  0.00    +0.087 C 
BRANCH  15  20
ATOM     20  C   UNL     1       0.021  -3.145  -1.618  0.00  0.00    +0.060 A 
ATOM     21  C   UNL     1      -0.283  -4.423  -1.168  0.00  0.00    +0.025 A 
ATOM     22  C   UNL     1      -0.444  -5.452  -2.075  0.00  0.00    +0.002 A 
ATOM     23  C   UNL     1      -0.302  -5.212  -3.429  0.00  0.00    +0.000 A 
ATOM     24  C   UNL     1       0.002  -3.940  -3.880  0.00  0.00    +0.002 A 
ATOM     25  C   UNL     1       0.158  -2.905  -2.979  0.00  0.00    +0.025 A 
ENDBRANCH  15  20
ENDBRANCH  10  19
ENDBRANCH   1  10
BRANCH   4  26
ATOM     26  N   UNL     1       0.082   0.086   8.809  0.00  0.00    -0.252 NA
ATOM     27  C   UNL     1      -0.582   1.144   9.190  0.00  0.00    +0.126 C 
BRANCH  27  28
ATOM     28  C   UNL     1      -0.485   1.611  10.577  0.00  0.00    +0.077 A 
ATOM     29  C   UNL     1      -1.146   2.731  11.136  0.00  0.00    +0.073 A 
ATOM     30  N   UNL     1      -0.808   2.818  12.392  0.00  0.00    -0.168 NA
ATOM     31  N   UNL     1       0.073   1.776  12.704  0.00  0.00    -0.200 N 
ATOM     32  C   UNL     1       0.267   1.032  11.594  0.00  0.00    +0.225 A 
ATOM     33  C   UNL     1      -2.078   3.663  10.405  0.00  0.00    +0.068 C 
BRANCH  31  34
ATOM     34  C   UNL     1       0.652   1.542  13.959  0.00  0.00    +0.069 A 
ATOM     35  C   UNL     1       0.882   0.241  14.387  0.00  0.00    +0.028 A 
ATOM     36  C   UNL     1       1.453   0.013  15.623  0.00  0.00    +0.002 A 
ATOM     37  C   UNL     1       1.795   1.079  16.435  0.00  0.00    +0.000 A 
ATOM     38  C   UNL     1       1.568   2.375  16.012  0.00  0.00    +0.002 A 
ATOM     39  C   UNL     1       1.002   2.610  14.774  0.00  0.00    +0.028 A 
ENDBRANCH  31  34
BRANCH  32  40
ATOM     40  O   UNL     1       1.049  -0.068  11.489  0.00  0.00    -0.492 OA
ATOM     41  H   UNL     1       1.964   0.122  11.240  0.00  0.00    +0.294 HD
ENDBRANCH  32  40
ENDBRANCH  27  28
ENDBRANCH   4  26
TORSDOF 8
