REMARK  Name = ZINC52727530
REMARK  6 active torsions:
REMARK  status: ('A' for Active; 'I' for Inactive)
REMARK    1  A    between atoms: C_4  and  N_20
REMARK    2  A    between atoms: C_6  and  C_7
REMARK    3  A    between atoms: C_7  and  O_8
REMARK    4  A    between atoms: O_8  and  C_9
REMARK    5  A    between atoms: C_12  and  N_16
REMARK    6  A    between atoms: N_20  and  N_21
REMARK                            x       y       z     vdW  Elec       q    Type
REMARK                         _______ _______ _______ _____ _____    ______ ____
ROOT
ATOM      1  C   UNL     1      -1.282  -0.792   0.011  0.00  0.00    +0.264 C 
ENDROOT
BRANCH   1   7
ATOM      2  C   UNL     1      -0.017   1.384   0.010  0.00  0.00    +0.027 A 
ATOM      3  C   UNL     1       1.178   2.077   0.002  0.00  0.00    +0.113 A 
ATOM      4  N   UNL     1       2.331   1.436  -0.013  0.00  0.00    -0.239 NA
ATOM      5  C   UNL     1       2.391   0.113  -0.020  0.00  0.00    +0.132 A 
ATOM      6  C   UNL     1       1.227  -0.648  -0.014  0.00  0.00    +0.051 A 
ATOM      7  C   UNL     1       0.002  -0.004   0.002  0.00  0.00    -0.006 A 
BRANCH   5   8
ATOM      8  N   UNL     1       3.628  -0.520  -0.035  0.00  0.00    -0.268 N 
ATOM      9  H   UNL     1       3.677  -1.489  -0.041  0.00  0.00    +0.167 HD
BRANCH   8  10
ATOM     10  N   UNL     1       4.775   0.221  -0.042  0.00  0.00    -0.255 NA
ATOM     11  H   UNL     1       4.801   0.855   0.742  0.00  0.00    +0.140 HD
ATOM     12  H   UNL     1       5.590  -0.373  -0.053  0.00  0.00    +0.140 HD
ENDBRANCH   8  10
ENDBRANCH   5   8
ENDBRANCH   1   7
BRANCH   1  13
ATOM     13  O   UNL     1      -1.702  -1.034  -1.334  0.00  0.00    -0.485 OA
BRANCH  13  14
ATOM     14  C   UNL     1      -2.852  -1.738  -1.504  0.00  0.00    +0.149 A 
ATOM     15  C   UNL     1      -2.813  -3.122  -1.598  0.00  0.00    +0.063 A 
ATOM     16  C   UNL     1      -3.985  -3.835  -1.770  0.00  0.00    +0.051 A 
ATOM     17  C   UNL     1      -5.195  -3.170  -1.851  0.00  0.00    +0.129 A 
ATOM     18  C   UNL     1      -5.237  -1.792  -1.758  0.00  0.00    +0.051 A 
ATOM     19  C   UNL     1      -4.069  -1.074  -1.580  0.00  0.00    +0.063 A 
ATOM     20 BR   UNL     1      -4.128   0.812  -1.446  0.00  0.00    -0.046 Br
ATOM     21 BR   UNL     1      -1.159  -4.031  -1.489  0.00  0.00    -0.046 Br
BRANCH  17  22
ATOM     22  N   UNL     1      -6.447  -3.937  -2.037  0.00  0.00    +0.056 N 
ATOM     23  O   UNL     1      -6.412  -5.142  -2.119  0.00  0.00    -0.126 OA
ATOM     24  O   UNL     1      -7.506  -3.357  -2.108  0.00  0.00    -0.126 OA
ENDBRANCH  17  22
ENDBRANCH  13  14
ENDBRANCH   1  13
TORSDOF 6
