REMARK  Name = ZINC43525988
REMARK  7 active torsions:
REMARK  status: ('A' for Active; 'I' for Inactive)
REMARK    1  A    between atoms: C_1  and  C_2
REMARK    2  A    between atoms: C_5  and  C_8
REMARK    3  A    between atoms: N_10  and  C_11
REMARK    4  A    between atoms: C_11  and  C_12
REMARK    5  A    between atoms: C_21  and  C_23
REMARK    6  A    between atoms: C_25  and  C_29
REMARK    7  A    between atoms: N_27  and  C_28
REMARK                            x       y       z     vdW  Elec       q    Type
REMARK                         _______ _______ _______ _____ _____    ______ ____
ROOT
ATOM      1  C   UNL     1       0.123  -7.025   2.499  0.00  0.00    -0.051 C 
ATOM      2  C   UNL     1       0.193  -8.550   2.605  0.00  0.00    -0.010 C 
ATOM      3  C   UNL     1       1.470  -8.935   3.365  0.00  0.00    -0.007 C 
ATOM      4  C   UNL     1       2.677  -8.392   2.588  0.00  0.00    -0.015 C 
ATOM      5  C   UNL     1       2.540  -6.874   2.460  0.00  0.00    -0.078 C 
ATOM      6  N   UNL     1       1.290  -6.425   3.150  0.00  0.00    +0.383 N 
ATOM      7  C   UNL     1       1.316  -6.764   4.575  0.00  0.00    -0.068 C 
ATOM      8  C   UNL     1       1.425  -8.279   4.751  0.00  0.00    +0.024 C 
ATOM      9  H   UNL     1       1.219  -5.421   3.070  0.00  0.00    -0.081 HD
ENDROOT
BRANCH   8  10
ATOM     10  C   UNL     1       2.685  -8.609   5.507  0.00  0.00    +0.041 A 
ATOM     11  C   UNL     1       3.860  -7.941   5.432  0.00  0.00    +0.048 A 
ATOM     12  C   UNL     1       4.768  -8.570   6.290  0.00  0.00    +0.066 A 
ATOM     13  N   UNL     1       4.161  -9.579   6.860  0.00  0.00    -0.176 NA
ATOM     14  N   UNL     1       2.844  -9.621   6.386  0.00  0.00    -0.271 N 
ATOM     15  C   UNL     1       1.820 -10.595   6.773  0.00  0.00    +0.172 C 
BRANCH  12  16
ATOM     16  C   UNL     1       6.199  -8.156   6.518  0.00  0.00    +0.040 C 
ATOM     17  C   UNL     1       6.336  -6.626   6.379  0.00  0.00    +0.010 C 
ATOM     18  C   UNL     1       7.710  -6.428   5.692  0.00  0.00    +0.001 C 
ATOM     19  C   UNL     1       7.761  -7.603   4.684  0.00  0.00    +0.001 C 
ATOM     20  C   UNL     1       7.106  -8.777   5.440  0.00  0.00    +0.010 C 
ENDBRANCH  12  16
ENDBRANCH   8  10
BRANCH   1  21
ATOM     21  C   UNL     1       0.101  -6.620   1.024  0.00  0.00    +0.089 C 
BRANCH  21  24
ATOM     22  C   UNL     1       0.139  -4.571  -0.295  0.00  0.00    +0.244 C 
ATOM     23  O   UNL     1       0.091  -5.252  -1.300  0.00  0.00    -0.270 OA
ATOM     24  N   UNL     1       0.149  -5.159   0.918  0.00  0.00    -0.313 N 
ATOM     25  H   UNL     1       0.187  -4.616   1.720  0.00  0.00    +0.149 HD
BRANCH  22  30
ATOM     26  C   UNL     1       0.326   1.166  -0.710  0.00  0.00    +0.044 C 
ATOM     27  C   UNL     1       0.277  -0.336  -0.601  0.00  0.00    -0.050 A 
ATOM     28  C   UNL     1       0.223  -1.109  -1.748  0.00  0.00    +0.004 A 
ATOM     29  C   UNL     1       0.178  -2.484  -1.655  0.00  0.00    +0.013 A 
ATOM     30  C   UNL     1       0.188  -3.097  -0.401  0.00  0.00    +0.037 A 
ATOM     31  C   UNL     1       0.242  -2.312   0.751  0.00  0.00    +0.013 A 
ATOM     32  C   UNL     1       0.292  -0.937   0.645  0.00  0.00    +0.004 A 
ENDBRANCH  22  30
ENDBRANCH  21  24
ENDBRANCH   1  21
TORSDOF 5
