REMARK  Name = ZINC35926168
REMARK  10 active torsions:
REMARK  status: ('A' for Active; 'I' for Inactive)
REMARK    1  A    between atoms: C_1  and  C_2
REMARK    2  A    between atoms: C_2  and  N_3
REMARK    3  A    between atoms: C_8  and  C_18
REMARK    4  A    between atoms: N_10  and  C_11
REMARK    5  A    between atoms: C_14  and  C_17
REMARK    6  A    between atoms: C_18  and  N_19
REMARK    7  A    between atoms: N_19  and  C_20
REMARK    8  A    between atoms: N_19  and  S_23
REMARK    9  A    between atoms: S_23  and  C_26
REMARK   10  A    between atoms: C_31  and  C_32
REMARK                            x       y       z     vdW  Elec       q    Type
REMARK                         _______ _______ _______ _____ _____    ______ ____
ROOT
ATOM      1  N   UNL     1       1.216  -1.065   1.159  0.00  0.00    +0.383 N 
ATOM      2  C   UNL     1       0.218  -0.177   0.549  0.00  0.00    -0.072 C 
ATOM      3  C   UNL     1       0.616   0.129  -0.903  0.00  0.00    +0.037 C 
ATOM      4  C   UNL     1       0.918  -1.185  -1.580  0.00  0.00    +0.045 A 
ATOM      5  C   UNL     1       1.128  -2.340  -0.893  0.00  0.00    -0.018 A 
ATOM      6  C   UNL     1       1.373  -3.350  -1.818  0.00  0.00    +0.081 A 
ATOM      7  N   UNL     1       1.316  -2.825  -3.019  0.00  0.00    -0.170 NA
ATOM      8  N   UNL     1       1.031  -1.457  -2.890  0.00  0.00    -0.236 N 
ATOM      9  C   UNL     1       1.090  -2.426   0.612  0.00  0.00    -0.039 C 
ATOM     10  H   UNL     1       2.140  -0.710   0.963  0.00  0.00    -0.081 HD
ENDROOT
BRANCH   8  11
ATOM     11  C   UNL     1       0.889  -0.539  -3.940  0.00  0.00    +0.066 A 
ATOM     12  C   UNL     1       1.396   0.747  -3.813  0.00  0.00    +0.028 A 
ATOM     13  C   UNL     1       1.255   1.649  -4.850  0.00  0.00    +0.005 A 
ATOM     14  C   UNL     1       0.611   1.272  -6.013  0.00  0.00    -0.050 A 
ATOM     15  C   UNL     1       0.105  -0.009  -6.143  0.00  0.00    +0.005 A 
ATOM     16  C   UNL     1       0.247  -0.917  -5.112  0.00  0.00    +0.028 A 
ATOM     17  C   UNL     1       0.458   2.258  -7.142  0.00  0.00    +0.044 C 
ENDBRANCH   8  11
BRANCH   1  19
ATOM     18  C   UNL     1       1.262   0.285   3.201  0.00  0.00    -0.017 C 
ATOM     19  C   UNL     1       1.009  -1.104   2.613  0.00  0.00    -0.082 C 
ENDBRANCH   1  19
BRANCH   6  20
ATOM     20  C   UNL     1       1.655  -4.795  -1.496  0.00  0.00    +0.167 C 
BRANCH  20  21
ATOM     21  N   UNL     1       0.430  -5.580  -1.663  0.00  0.00    -0.168 NA
BRANCH  21  22
ATOM     22  C   UNL     1      -0.481  -5.767  -0.531  0.00  0.00    +0.080 C 
ATOM     23  C   UNL     1      -0.124  -5.073   0.785  0.00  0.00    +0.022 C 
ATOM     24  C   UNL     1       0.026  -6.590   0.655  0.00  0.00    +0.022 C 
ENDBRANCH  21  22
BRANCH  21  25
ATOM     25  S   UNL     1       0.075  -6.257  -3.132  0.00  0.00    +0.063 S 
ATOM     26  O   UNL     1      -1.341  -6.242  -3.255  0.00  0.00    -0.153 OA
ATOM     27  O   UNL     1       0.928  -5.635  -4.083  0.00  0.00    -0.153 OA
BRANCH  25  28
ATOM     28  C   UNL     1       0.556  -7.950  -3.056  0.00  0.00    +0.123 A 
ATOM     29  C   UNL     1      -0.404  -8.941  -3.016  0.00  0.00    +0.030 A 
ATOM     30  C   UNL     1      -0.028 -10.271  -2.956  0.00  0.00    +0.002 A 
ATOM     31  C   UNL     1       1.311 -10.618  -2.934  0.00  0.00    +0.001 A 
ATOM     32  C   UNL     1       2.281  -9.638  -2.973  0.00  0.00    +0.021 A 
ATOM     33  C   UNL     1       1.909  -8.293  -3.040  0.00  0.00    +0.078 A 
BRANCH  33  34
ATOM     34  C   UNL     1       2.911  -7.271  -3.087  0.00  0.00    +0.101 C 
ATOM     35  N   UNL     1       3.705  -6.460  -3.123  0.00  0.00    -0.191 NA
ENDBRANCH  33  34
ENDBRANCH  25  28
ENDBRANCH  21  25
ENDBRANCH  20  21
ENDBRANCH   6  20
TORSDOF 8
