REMARK  Name = ZINC13515937
REMARK  11 active torsions:
REMARK  status: ('A' for Active; 'I' for Inactive)
REMARK    1  A    between atoms: C_1  and  C_2
REMARK    2  A    between atoms: N_9  and  C_10
REMARK    3  A    between atoms: C_13  and  O_16
REMARK    4  A    between atoms: O_16  and  C_17
REMARK    5  A    between atoms: N_18  and  C_37
REMARK    6  A    between atoms: N_21  and  C_24
REMARK    7  A    between atoms: C_24  and  C_25
REMARK    8  A    between atoms: C_25  and  C_26
REMARK    9  A    between atoms: C_26  and  N_27
REMARK   10  A    between atoms: C_28  and  C_36
REMARK   11  A    between atoms: C_33  and  C_35
REMARK                            x       y       z     vdW  Elec       q    Type
REMARK                         _______ _______ _______ _____ _____    ______ ____
ROOT
ATOM      1  C   UNL     1       1.980   0.564   0.577  0.00  0.00    +0.065 C 
ATOM      2  C   UNL     1       1.940  -0.918   0.304  0.00  0.00    +0.040 A 
ATOM      3  C   UNL     1       1.583  -1.490  -0.843  0.00  0.00    +0.116 A 
ATOM      4  N   UNL     1       1.679  -2.863  -0.693  0.00  0.00    -0.277 N 
ATOM      5  C   UNL     1       1.514  -4.086  -1.325  0.00  0.00    +0.157 A 
ATOM      6  C   UNL     1       1.855  -5.061  -0.387  0.00  0.00    +0.170 A 
ATOM      7  N   UNL     1       2.201  -4.433   0.734  0.00  0.00    -0.193 NA
ATOM      8  C   UNL     1       2.102  -3.122   0.567  0.00  0.00    +0.223 A 
ATOM      9  N   UNL     1       2.274  -1.917   1.200  0.00  0.00    -0.283 N 
ATOM     10  N   UNL     1       1.780  -6.396  -0.755  0.00  0.00    -0.279 N 
ATOM     11  C   UNL     1       1.384  -6.731  -1.997  0.00  0.00    +0.333 A 
ATOM     12  O   UNL     1       1.323  -7.906  -2.303  0.00  0.00    -0.246 OA
ATOM     13  N   UNL     1       1.053  -5.799  -2.907  0.00  0.00    -0.259 N 
ATOM     14  C   UNL     1       1.107  -4.484  -2.608  0.00  0.00    +0.283 A 
ATOM     15  O   UNL     1       0.804  -3.650  -3.444  0.00  0.00    -0.265 OA
ATOM     16  C   UNL     1       2.132  -7.442   0.209  0.00  0.00    +0.155 C 
ENDROOT
BRANCH   9  17
ATOM     17  C   UNL     1       2.708  -1.732   2.519  0.00  0.00    +0.050 A 
ATOM     18  C   UNL     1       1.958  -2.233   3.575  0.00  0.00    +0.030 A 
ATOM     19  C   UNL     1       2.386  -2.051   4.875  0.00  0.00    +0.047 A 
ATOM     20  C   UNL     1       3.566  -1.366   5.126  0.00  0.00    +0.120 A 
ATOM     21  C   UNL     1       4.316  -0.864   4.073  0.00  0.00    +0.047 A 
ATOM     22  C   UNL     1       3.892  -1.052   2.772  0.00  0.00    +0.030 A 
BRANCH  20  23
ATOM     23  O   UNL     1       3.988  -1.186   6.407  0.00  0.00    -0.495 OA
ATOM     24  C   UNL     1       5.212  -0.472   6.593  0.00  0.00    +0.277 C 
ENDBRANCH  20  23
ENDBRANCH   9  17
BRANCH  13  25
ATOM     25  C   UNL     1       0.628  -6.217  -4.245  0.00  0.00    +0.128 C 
BRANCH  25  26
ATOM     26  C   UNL     1      -0.890  -6.410  -4.261  0.00  0.00    +0.003 C 
BRANCH  26  27
ATOM     27  C   UNL     1      -1.333  -6.846  -5.659  0.00  0.00    -0.076 C 
BRANCH  27  28
ATOM     28  N   UNL     1      -2.793  -7.008  -5.681  0.00  0.00    +0.383 N 
ATOM     29  C   UNL     1      -3.187  -8.021  -4.694  0.00  0.00    -0.071 C 
ATOM     30  C   UNL     1      -4.697  -8.252  -4.769  0.00  0.00    -0.016 C 
ATOM     31  C   UNL     1      -5.425  -6.938  -4.472  0.00  0.00    -0.003 C 
ATOM     32  C   UNL     1      -4.952  -5.869  -5.462  0.00  0.00    -0.016 C 
ATOM     33  C   UNL     1      -3.432  -5.726  -5.361  0.00  0.00    -0.071 C 
ATOM     34  C   UNL     1      -2.954  -4.659  -6.348  0.00  0.00    -0.013 C 
ATOM     35  C   UNL     1      -2.456  -9.332  -4.990  0.00  0.00    -0.013 C 
ATOM     36  H   UNL     1      -3.084  -7.307  -6.600  0.00  0.00    -0.081 HD
ENDBRANCH  27  28
ENDBRANCH  26  27
ENDBRANCH  25  26
ENDBRANCH  13  25
TORSDOF 6
