REMARK  Name = ZINC03307662
REMARK  10 active torsions:
REMARK  status: ('A' for Active; 'I' for Inactive)
REMARK    1  A    between atoms: C_1  and  C_2
REMARK    2  A    between atoms: C_4  and  C_15
REMARK    3  A    between atoms: C_5  and  C_14
REMARK    4  A    between atoms: N_6  and  C_7
REMARK    5  A    between atoms: C_7  and  C_8
REMARK    6  A    between atoms: C_15  and  C_17
REMARK    7  A    between atoms: C_17  and  S_18
REMARK    8  A    between atoms: S_18  and  C_19
REMARK    9  A    between atoms: C_22  and  C_25
REMARK   10  A    between atoms: N_23  and  N_24
REMARK                            x       y       z     vdW  Elec       q    Type
REMARK                         _______ _______ _______ _____ _____    ______ ____
ROOT
ATOM      1  C   UNL     1      -0.283   1.805  -2.289  0.00  0.00    +0.209 A 
ATOM      2  N   UNL     1      -1.312   2.233  -2.986  0.00  0.00    -0.121 NA
ATOM      3  N   UNL     1      -2.374   2.216  -2.262  0.00  0.00    -0.126 NA
ATOM      4  C   UNL     1      -2.089   1.770  -1.058  0.00  0.00    +0.190 A 
ATOM      5  N   UNL     1      -0.741   1.490  -1.041  0.00  0.00    -0.223 N 
ENDROOT
BRANCH   4   6
ATOM      6  C   UNL     1      -3.033   1.602   0.059  0.00  0.00    +0.077 A 
ATOM      7  C   UNL     1      -4.364   1.866   0.082  0.00  0.00    +0.066 A 
ATOM      8  C   UNL     1      -5.108   1.623   1.306  0.00  0.00    +0.008 A 
ATOM      9  C   UNL     1      -6.489   1.823   1.555  0.00  0.00    +0.010 A 
ATOM     10  C   UNL     1      -7.022   1.538   2.773  0.00  0.00    +0.001 A 
ATOM     11  C   UNL     1      -6.242   1.044   3.810  0.00  0.00    +0.001 A 
ATOM     12  C   UNL     1      -4.892   0.835   3.607  0.00  0.00    +0.016 A 
ATOM     13  C   UNL     1      -4.337   1.120   2.378  0.00  0.00    +0.021 A 
ATOM     14  S   UNL     1      -2.702   0.996   1.702  0.00  0.00    -0.084 S 
ATOM     15 CL   UNL     1      -5.166   2.483  -1.329  0.00  0.00    -0.082 Cl
ENDBRANCH   4   6
BRANCH   5  16
ATOM     16  N   UNL     1      -0.012   1.005   0.008  0.00  0.00    -0.295 N 
ATOM     17  H   UNL     1       0.002  -0.004   0.002  0.00  0.00    +0.163 HD
ATOM     18  H   UNL     1       0.925   1.379   0.001  0.00  0.00    +0.163 HD
ENDBRANCH   5  16
BRANCH   1  19
ATOM     19  S   UNL     1       1.378   1.661  -2.861  0.00  0.00    -0.077 S 
BRANCH  19  20
ATOM     20  C   UNL     1       1.178   2.252  -4.559  0.00  0.00    +0.157 C 
BRANCH  20  21
ATOM     21  C   UNL     1       2.510   2.216  -5.264  0.00  0.00    +0.175 C 
ATOM     22  O   UNL     1       3.498   1.829  -4.674  0.00  0.00    -0.291 OA
BRANCH  21  26
ATOM     23  C   UNL     1       1.344   3.957  -9.908  0.00  0.00    +0.063 C 
ATOM     24  C   UNL     1       2.079   3.421  -8.707  0.00  0.00    +0.017 A 
ATOM     25  C   UNL     1       1.526   3.144  -7.515  0.00  0.00    +0.034 A 
ATOM     26  C   UNL     1       2.613   2.649  -6.659  0.00  0.00    +0.039 A 
ATOM     27  C   UNL     1       3.753   2.682  -7.439  0.00  0.00    +0.026 A 
ATOM     28  N   UNL     1       3.414   3.139  -8.658  0.00  0.00    -0.345 N 
ATOM     29  C   UNL     1       5.136   2.273  -7.002  0.00  0.00    +0.064 C 
BRANCH  28  30
ATOM     30  C   UNL     1       4.347   3.315  -9.773  0.00  0.00    +0.153 C 
BRANCH  30  31
ATOM     31  C   UNL     1       4.941   4.724  -9.724  0.00  0.00    +0.138 C 
ATOM     32  C   UNL     1       5.837   4.959 -10.959  0.00  0.00    +0.035 C 
ATOM     33  C   UNL     1       7.023   5.762 -10.359  0.00  0.00    +0.031 C 
ATOM     34  C   UNL     1       7.121   5.130  -8.948  0.00  0.00    +0.160 C 
ATOM     35  O   UNL     1       5.764   4.864  -8.560  0.00  0.00    -0.375 OA
ENDBRANCH  30  31
ENDBRANCH  28  30
ENDBRANCH  21  26
ENDBRANCH  20  21
ENDBRANCH  19  20
ENDBRANCH   1  19
TORSDOF 8
