REMARK  Name = ZINC39464284
REMARK  6 active torsions:
REMARK  status: ('A' for Active; 'I' for Inactive)
REMARK    1  A    between atoms: C_1  and  S_2
REMARK    2  A    between atoms: S_2  and  C_3
REMARK    3  A    between atoms: C_8  and  C_9
REMARK    4  A    between atoms: C_14  and  O_15
REMARK    5  A    between atoms: P_23  and  C_26
REMARK    6  A    between atoms: C_31  and  O_32
REMARK                            x       y       z     vdW  Elec       q    Type
REMARK                         _______ _______ _______ _____ _____    ______ ____
ROOT
ATOM      1  C   UNL     1       0.848  -0.411  -1.489  0.00  0.00    +0.016 A 
ATOM      2  C   UNL     1       1.315   0.594  -2.322  0.00  0.00    +0.021 A 
ATOM      3  C   UNL     1       1.982   0.281  -3.497  0.00  0.00    -0.022 A 
ATOM      4  C   UNL     1       2.185  -1.040  -3.843  0.00  0.00    -0.041 A 
ATOM      5  C   UNL     1       1.725  -2.054  -3.019  0.00  0.00    +0.013 A 
ATOM      6  C   UNL     1       1.059  -1.751  -1.837  0.00  0.00    -0.001 A 
ATOM      7  C   UNL     1       2.903  -1.419  -5.113  0.00  0.00    +0.052 C 
ATOM      8  C   UNL     1       3.712  -0.226  -5.622  0.00  0.00    +0.108 C 
ATOM      9  N   UNL     1       2.829   0.947  -5.698  0.00  0.00    -0.225 NA
ATOM     10  C   UNL     1       2.466   1.417  -4.361  0.00  0.00    +0.129 C 
ATOM     11  C   UNL     1       1.375   2.490  -4.432  0.00  0.00    +0.194 C 
ATOM     12  O   UNL     1       1.888   3.622  -5.161  0.00  0.00    -0.311 OA
ATOM     13  P   UNL     1       2.597   3.356  -6.600  0.00  0.00    +0.318 P 
ATOM     14  O   UNL     1       3.519   4.465  -6.930  0.00  0.00    -0.266 OA
ATOM     15  N   UNL     1       3.439   1.944  -6.428  0.00  0.00    -0.175 NA
ATOM     16  H   UNL     1       4.318   1.823  -6.819  0.00  0.00    +0.151 HD
ENDROOT
BRANCH   6  17
ATOM     17  C   UNL     1       0.571  -2.838  -0.954  0.00  0.00    +0.025 A 
ATOM     18  C   UNL     1       1.477  -3.684  -0.319  0.00  0.00    +0.012 A 
ATOM     19  C   UNL     1       1.018  -4.694   0.502  0.00  0.00    +0.001 A 
ATOM     20  C   UNL     1      -0.341  -4.869   0.697  0.00  0.00    +0.004 A 
ATOM     21  C   UNL     1      -1.249  -4.036   0.071  0.00  0.00    +0.046 A 
ATOM     22  C   UNL     1      -0.801  -3.015  -0.751  0.00  0.00    +0.125 A 
BRANCH  22  23
ATOM     23  O   UNL     1      -1.693  -2.191  -1.362  0.00  0.00    -0.506 OA
ATOM     24  H   UNL     1      -1.983  -2.501  -2.231  0.00  0.00    +0.292 HD
ENDBRANCH  22  23
ENDBRANCH   6  17
BRANCH  13  25
ATOM     25  C   UNL     1       1.338   3.183  -7.896  0.00  0.00    +0.094 A 
ATOM     26  C   UNL     1       0.812   1.939  -8.188  0.00  0.00    +0.018 A 
ATOM     27  C   UNL     1      -0.146   1.807  -9.175  0.00  0.00    +0.001 A 
ATOM     28  C   UNL     1      -0.582   2.919  -9.872  0.00  0.00    +0.004 A 
ATOM     29  C   UNL     1      -0.059   4.165  -9.584  0.00  0.00    +0.046 A 
ATOM     30  C   UNL     1       0.899   4.301  -8.590  0.00  0.00    +0.131 A 
BRANCH  30  31
ATOM     31  O   UNL     1       1.411   5.526  -8.300  0.00  0.00    -0.506 OA
ATOM     32  H   UNL     1       2.194   5.758  -8.817  0.00  0.00    +0.292 HD
ENDBRANCH  30  31
ENDBRANCH  13  25
BRANCH   1  34
ATOM     33  C   UNL     1      -0.022   1.810   0.012  0.00  0.00    +0.090 C 
ATOM     34  S   UNL     1       0.002  -0.004   0.002  0.00  0.00    -0.128 S 
ENDBRANCH   1  34
TORSDOF 5
