REMARK  Name = ZINC13959438
REMARK  7 active torsions:
REMARK  status: ('A' for Active; 'I' for Inactive)
REMARK    1  A    between atoms: C_1  and  C_2
REMARK    2  A    between atoms: C_6  and  C_41
REMARK    3  A    between atoms: C_7  and  N_8
REMARK    4  A    between atoms: N_17  and  C_20
REMARK    5  A    between atoms: C_20  and  C_21
REMARK    6  A    between atoms: C_24  and  C_35
REMARK    7  A    between atoms: C_27  and  C_29
REMARK                            x       y       z     vdW  Elec       q    Type
REMARK                         _______ _______ _______ _____ _____    ______ ____
ROOT
ATOM      1  C   UNL     1      -2.364  -0.181   5.984  0.00  0.00    +0.226 C 
ENDROOT
BRANCH   1   9
ATOM      2  N   UNL     1       0.025  -0.013   2.419  0.00  0.00    -0.206 N 
ATOM      3  C   UNL     1       1.151   0.365   3.035  0.00  0.00    +0.255 C 
ATOM      4  O   UNL     1       2.275   0.163   2.626  0.00  0.00    -0.272 OA
ATOM      5  C   UNL     1       0.804   1.082   4.320  0.00  0.00    +0.246 C 
ATOM      6  C   UNL     1      -0.748   1.060   4.335  0.00  0.00    +0.216 C 
ATOM      7  C   UNL     1      -1.099   0.329   3.059  0.00  0.00    +0.251 C 
ATOM      8  O   UNL     1      -2.224   0.088   2.677  0.00  0.00    -0.273 OA
ATOM      9  N   UNL     1      -1.036   0.198   5.496  0.00  0.00    -0.214 N 
ATOM     10  N   UNL     1       0.186  -0.190   6.045  0.00  0.00    -0.082 NA
ATOM     11  N   UNL     1       1.192   0.253   5.468  0.00  0.00    -0.156 NA
BRANCH   2  18
ATOM     12  C   UNL     1      -0.018   1.503   0.010  0.00  0.00    +0.046 C 
ATOM     13  C   UNL     1       0.002  -0.004   0.002  0.00  0.00    -0.028 A 
ATOM     14  C   UNL     1       0.006  -0.689  -1.198  0.00  0.00    +0.005 A 
ATOM     15  C   UNL     1       0.025  -2.071  -1.206  0.00  0.00    +0.001 A 
ATOM     16  C   UNL     1       0.040  -2.773  -0.014  0.00  0.00    +0.005 A 
ATOM     17  C   UNL     1       0.037  -2.093   1.188  0.00  0.00    -0.028 A 
ATOM     18  C   UNL     1       0.023  -0.705   1.200  0.00  0.00    +0.050 A 
ATOM     19  C   UNL     1       0.054  -2.858   2.487  0.00  0.00    +0.046 C 
ENDBRANCH   2  18
ENDBRANCH   1   9
BRANCH   1  20
ATOM     20  C   UNL     1      -2.803  -1.454   5.307  0.00  0.00    +0.254 C 
ATOM     21  O   UNL     1      -2.078  -1.992   4.497  0.00  0.00    -0.272 OA
ATOM     22  N   UNL     1      -4.002  -1.996   5.602  0.00  0.00    -0.184 N 
ATOM     23  C   UNL     1      -4.549  -3.232   5.022  0.00  0.00    +0.137 C 
ATOM     24  C   UNL     1      -5.923  -3.375   5.706  0.00  0.00    +0.087 C 
ATOM     25  C   UNL     1      -6.002  -2.174   6.620  0.00  0.00    +0.069 C 
ATOM     26  N   UNL     1      -4.923  -1.479   6.511  0.00  0.00    -0.181 NA
BRANCH  25  27
ATOM     27  C   UNL     1      -7.137  -1.850   7.504  0.00  0.00    -0.002 A 
ATOM     28  C   UNL     1      -8.255  -2.687   7.546  0.00  0.00    +0.010 A 
ATOM     29  C   UNL     1      -9.313  -2.378   8.375  0.00  0.00    +0.001 A 
ATOM     30  C   UNL     1      -9.269  -1.242   9.164  0.00  0.00    +0.000 A 
ATOM     31  C   UNL     1      -8.166  -0.407   9.127  0.00  0.00    +0.001 A 
ATOM     32  C   UNL     1      -7.098  -0.708   8.307  0.00  0.00    +0.010 A 
ENDBRANCH  25  27
BRANCH  23  33
ATOM     33  C   UNL     1      -4.708  -3.093   3.530  0.00  0.00    -0.025 A 
ATOM     34  C   UNL     1      -5.133  -1.894   2.989  0.00  0.00    +0.005 A 
ATOM     35  C   UNL     1      -5.278  -1.766   1.620  0.00  0.00    +0.000 A 
ATOM     36  C   UNL     1      -4.998  -2.837   0.792  0.00  0.00    +0.000 A 
ATOM     37  C   UNL     1      -4.573  -4.036   1.333  0.00  0.00    +0.000 A 
ATOM     38  C   UNL     1      -4.423  -4.162   2.702  0.00  0.00    +0.005 A 
ENDBRANCH  23  33
ENDBRANCH   1  20
TORSDOF 5
