REMARK  Name = ZINC24631404
REMARK  7 active torsions:
REMARK  status: ('A' for Active; 'I' for Inactive)
REMARK    1  A    between atoms: C_1  and  C_2
REMARK    2  A    between atoms: C_2  and  C_4
REMARK    3  A    between atoms: C_2  and  N_15
REMARK    4  A    between atoms: N_9  and  C_10
REMARK    5  A    between atoms: C_10  and  C_11
REMARK    6  A    between atoms: N_18  and  C_21
REMARK    7  A    between atoms: C_21  and  C_22
REMARK                            x       y       z     vdW  Elec       q    Type
REMARK                         _______ _______ _______ _____ _____    ______ ____
ROOT
ATOM      1  C   UNL     1       5.322  -1.434   2.178  0.00  0.00    +0.034 C 
ATOM      2  C   UNL     1       6.006  -0.984   0.885  0.00  0.00    +0.140 C 
ENDROOT
BRANCH   2   3
ATOM      3  C   UNL     1       5.784  -2.019  -0.188  0.00  0.00    +0.237 C 
ATOM      4  O   UNL     1       4.830  -1.927  -0.931  0.00  0.00    -0.274 OA
ATOM      5  N   UNL     1       6.645  -3.048  -0.321  0.00  0.00    -0.239 N 
ATOM      6  C   UNL     1       6.446  -3.973  -1.280  0.00  0.00    +0.306 C 
ATOM      7  O   UNL     1       5.490  -3.881  -2.025  0.00  0.00    -0.252 OA
ATOM      8  N   UNL     1       7.307  -5.002  -1.413  0.00  0.00    -0.291 N 
ATOM      9  H   UNL     1       7.510  -3.131   0.353  0.00  0.00    +0.159 HD
ATOM     10  H   UNL     1       8.172  -5.085  -0.739  0.00  0.00    +0.151 HD
BRANCH   8  11
ATOM     11  C   UNL     1       7.091  -6.008  -2.456  0.00  0.00    +0.219 C 
BRANCH  11  12
ATOM     12  C   UNL     1       8.203  -7.057  -2.391  0.00  0.00    +0.405 C 
ATOM     13  F   UNL     1       8.187  -7.675  -1.136  0.00  0.00    -0.169 F 
ATOM     14  F   UNL     1       7.996  -8.018  -3.386  0.00  0.00    -0.169 F 
ATOM     15  F   UNL     1       9.441  -6.437  -2.590  0.00  0.00    -0.169 F 
ENDBRANCH  11  12
ENDBRANCH   8  11
ENDBRANCH   2   3
BRANCH   2  16
ATOM     16  N   UNL     1       5.439   0.299   0.452  0.00  0.00    -0.295 NA
ATOM     17  C   UNL     1       5.911   0.657  -0.893  0.00  0.00    +0.066 C 
ATOM     18  C   UNL     1       5.362   2.034  -1.274  0.00  0.00    -0.063 C 
ATOM     19  N   UNL     1       3.893   2.004  -1.225  0.00  0.00    +0.387 N 
ATOM     20  C   UNL     1       3.421   1.646   0.120  0.00  0.00    -0.063 C 
ATOM     21  C   UNL     1       3.970   0.269   0.501  0.00  0.00    +0.066 C 
ATOM     22  H   UNL     1       3.546   1.229  -1.925  0.00  0.00    -0.081 HD
BRANCH  19  23
ATOM     23  C   UNL     1       3.326   3.288  -1.658  0.00  0.00    +0.019 C 
BRANCH  23  24
ATOM     24  C   UNL     1       1.835   3.145  -1.831  0.00  0.00    +0.199 C 
ATOM     25  O   UNL     1       1.299   2.079  -1.615  0.00  0.00    -0.278 OA
ATOM     26  N   UNL     1       1.099   4.201  -2.232  0.00  0.00    -0.303 N 
ATOM     27  C   UNL     1       1.617   5.546  -2.521  0.00  0.00    +0.108 C 
ATOM     28  C   UNL     1       0.413   6.425  -2.918  0.00  0.00    +0.020 C 
ATOM     29  C   UNL     1      -0.786   5.679  -2.275  0.00  0.00    +0.020 C 
ATOM     30  C   UNL     1      -0.359   4.200  -2.445  0.00  0.00    +0.108 C 
ENDBRANCH  23  24
ENDBRANCH  19  23
ENDBRANCH   2  16
TORSDOF 6
