REMARK  Name = ZINC36807296
REMARK  10 active torsions:
REMARK  status: ('A' for Active; 'I' for Inactive)
REMARK    1  A    between atoms: C_1  and  C_2
REMARK    2  A    between atoms: C_5  and  C_33
REMARK    3  A    between atoms: C_6  and  C_8
REMARK    4  A    between atoms: C_8  and  S_9
REMARK    5  A    between atoms: S_9  and  C_10
REMARK    6  A    between atoms: N_20  and  C_21
REMARK    7  A    between atoms: C_21  and  C_22
REMARK    8  A    between atoms: C_22  and  C_23
REMARK    9  A    between atoms: C_26  and  S_29
REMARK   10  A    between atoms: S_29  and  N_32
REMARK                            x       y       z     vdW  Elec       q    Type
REMARK                         _______ _______ _______ _____ _____    ______ ____
ROOT
ATOM      1  C   UNL     1       1.622  -4.015   4.517  0.00  0.00    +0.172 A 
ATOM      2  N   UNL     1       0.421  -4.293   4.962  0.00  0.00    -0.223 NA
ATOM      3  C   UNL     1       0.234  -4.969   6.114  0.00  0.00    +0.079 A 
ATOM      4  C   UNL     1      -1.047  -5.267   6.588  0.00  0.00    +0.028 A 
ATOM      5  C   UNL     1      -1.190  -5.954   7.761  0.00  0.00    +0.002 A 
ATOM      6  C   UNL     1      -0.082  -6.363   8.490  0.00  0.00    +0.001 A 
ATOM      7  C   UNL     1       1.184  -6.087   8.052  0.00  0.00    +0.015 A 
ATOM      8  C   UNL     1       1.360  -5.387   6.859  0.00  0.00    +0.065 A 
ATOM      9  C   UNL     1       2.696  -5.063   6.339  0.00  0.00    +0.262 A 
ATOM     10  O   UNL     1       3.703  -5.396   6.934  0.00  0.00    -0.267 OA
ATOM     11  N   UNL     1       2.763  -4.385   5.169  0.00  0.00    -0.287 N 
ENDROOT
BRANCH   1  12
ATOM     12  S   UNL     1       1.770  -3.127   3.002  0.00  0.00    -0.083 S 
BRANCH  12  13
ATOM     13  C   UNL     1       0.054  -2.845   2.489  0.00  0.00    +0.112 C 
BRANCH  13  19
ATOM     14  C   UNL     1      -0.018   1.503   0.010  0.00  0.00    +0.044 C 
ATOM     15  C   UNL     1       0.002  -0.004   0.002  0.00  0.00    -0.050 A 
ATOM     16  C   UNL     1       0.006  -0.689  -1.199  0.00  0.00    +0.003 A 
ATOM     17  C   UNL     1       0.025  -2.071  -1.207  0.00  0.00    +0.004 A 
ATOM     18  C   UNL     1       0.040  -2.768  -0.013  0.00  0.00    -0.046 A 
ATOM     19  C   UNL     1       0.037  -2.084   1.188  0.00  0.00    -0.034 A 
ATOM     20  C   UNL     1       0.023  -0.702   1.195  0.00  0.00    +0.008 A 
ATOM     21  C   UNL     1       0.059  -4.275  -0.021  0.00  0.00    +0.044 C 
ENDBRANCH  13  19
ENDBRANCH  12  13
ENDBRANCH   1  12
BRANCH  11  22
ATOM     22  C   UNL     1       4.069  -4.041   4.602  0.00  0.00    +0.132 C 
BRANCH  22  23
ATOM     23  C   UNL     1       4.512  -2.676   5.132  0.00  0.00    +0.057 C 
BRANCH  23  24
ATOM     24  C   UNL     1       5.856  -2.322   4.549  0.00  0.00    -0.046 A 
ATOM     25  C   UNL     1       7.014  -2.699   5.202  0.00  0.00    +0.005 A 
ATOM     26  C   UNL     1       8.246  -2.374   4.667  0.00  0.00    +0.029 A 
ATOM     27  C   UNL     1       8.321  -1.673   3.478  0.00  0.00    +0.105 A 
ATOM     28  C   UNL     1       7.162  -1.297   2.825  0.00  0.00    +0.029 A 
ATOM     29  C   UNL     1       5.930  -1.625   3.357  0.00  0.00    +0.005 A 
BRANCH  27  30
ATOM     30  S   UNL     1       9.892  -1.258   2.797  0.00  0.00    +0.056 S 
ATOM     31  O   UNL     1       9.686  -0.128   1.961  0.00  0.00    -0.153 OA
ATOM     32  O   UNL     1      10.814  -1.249   3.878  0.00  0.00    -0.153 OA
BRANCH  30  33
ATOM     33  N   UNL     1      10.340  -2.506   1.804  0.00  0.00    -0.204 NA
ATOM     34  H   UNL     1      10.899  -2.333   1.031  0.00  0.00    +0.144 HD
ATOM     35  H   UNL     1      10.043  -3.409   1.996  0.00  0.00    +0.144 HD
ENDBRANCH  30  33
ENDBRANCH  27  30
ENDBRANCH  23  24
ENDBRANCH  22  23
ENDBRANCH  11  22
TORSDOF 8
