REMARK  Name = ZINC63589041
REMARK  6 active torsions:
REMARK  status: ('A' for Active; 'I' for Inactive)
REMARK    1  A    between atoms: C_4  and  C_7
REMARK    2  A    between atoms: C_7  and  N_9
REMARK    3  A    between atoms: N_11  and  C_12
REMARK    4  A    between atoms: N_19  and  C_20
REMARK    5  A    between atoms: C_20  and  C_21
REMARK    6  A    between atoms: C_21  and  C_22
REMARK                            x       y       z     vdW  Elec       q    Type
REMARK                         _______ _______ _______ _____ _____    ______ ____
ROOT
ATOM      1  N   UNL     1       3.638  -2.876   0.389  0.00  0.00    -0.143 NA
ATOM      2  C   UNL     1       4.893  -2.502   0.584  0.00  0.00    +0.194 C 
ATOM      3  N   UNL     1       5.416  -1.465  -0.133  0.00  0.00    -0.328 N 
ATOM      4  N   UNL     1       5.664  -3.154   1.501  0.00  0.00    -0.357 N 
ATOM      5  H   UNL     1       4.975  -0.601  -0.129  0.00  0.00    +0.169 HD
ATOM      6  H   UNL     1       5.308  -3.921   1.977  0.00  0.00    +0.162 HD
ENDROOT
BRANCH   3   7
ATOM      7  C   UNL     1       6.588  -1.648  -0.875  0.00  0.00    +0.042 A 
ATOM      8  C   UNL     1       6.826  -2.858  -1.513  0.00  0.00    +0.027 A 
ATOM      9  C   UNL     1       7.984  -3.036  -2.245  0.00  0.00    +0.017 A 
ATOM     10  C   UNL     1       8.906  -2.010  -2.342  0.00  0.00    +0.018 A 
ATOM     11  C   UNL     1       8.672  -0.803  -1.707  0.00  0.00    +0.017 A 
ATOM     12  C   UNL     1       7.513  -0.618  -0.979  0.00  0.00    +0.027 A 
ATOM     13 BR   UNL     1      10.491  -2.257  -3.345  0.00  0.00    -0.050 Br
ENDBRANCH   3   7
BRANCH   1  14
ATOM     14  C   UNL     1       2.923  -2.331  -0.605  0.00  0.00    +0.270 C 
ATOM     15  O   UNL     1       3.396  -1.427  -1.270  0.00  0.00    -0.268 OA
BRANCH  14  19
ATOM     16  C   UNL     1      -0.993  -3.757  -1.435  0.00  0.00    +0.000 A 
ATOM     17  C   UNL     1      -0.459  -2.730  -2.193  0.00  0.00    +0.001 A 
ATOM     18  C   UNL     1       0.812  -2.262  -1.928  0.00  0.00    +0.013 A 
ATOM     19  C   UNL     1       1.558  -2.828  -0.894  0.00  0.00    +0.039 A 
ATOM     20  C   UNL     1       1.014  -3.863  -0.134  0.00  0.00    +0.013 A 
ATOM     21  C   UNL     1      -0.258  -4.322  -0.408  0.00  0.00    +0.001 A 
ENDBRANCH  14  19
ENDBRANCH   1  14
BRANCH   4  22
ATOM     22  C   UNL     1       7.030  -2.696   1.768  0.00  0.00    +0.120 C 
BRANCH  22  23
ATOM     23  C   UNL     1       7.669  -3.591   2.833  0.00  0.00    +0.054 C 
BRANCH  23  24
ATOM     24  C   UNL     1       9.027  -3.048   3.196  0.00  0.00    -0.040 C 
ATOM     25  C   UNL     1       9.319  -2.194   4.203  0.00  0.00    -0.001 A 
ATOM     26  C   UNL     1       8.491  -1.540   5.223  0.00  0.00    +0.010 A 
ATOM     27  C   UNL     1       9.082  -0.718   6.120  0.00  0.00    +0.001 A 
ATOM     28  C   UNL     1      10.462  -0.475   6.099  0.00  0.00    +0.002 A 
ATOM     29  C   UNL     1      11.288  -1.039   5.193  0.00  0.00    +0.026 A 
ATOM     30  C   UNL     1      10.774  -1.922   4.203  0.00  0.00    +0.043 A 
ATOM     31  N   UNL     1      11.359  -2.581   3.233  0.00  0.00    -0.380 N 
ATOM     32  C   UNL     1      10.341  -3.352   2.511  0.00  0.00    +0.144 C 
ATOM     33  H   UNL     1      12.307  -2.565   3.029  0.00  0.00    +0.160 HD
ENDBRANCH  23  24
ENDBRANCH  22  23
ENDBRANCH   4  22
TORSDOF 6
