REMARK  Name = ZINC12833212
REMARK  13 active torsions:
REMARK  status: ('A' for Active; 'I' for Inactive)
REMARK    1  A    between atoms: C_1  and  C_2
REMARK    2  A    between atoms: C_2  and  O_3
REMARK    3  A    between atoms: O_3  and  C_4
REMARK    4  A    between atoms: C_4  and  C_6
REMARK    5  A    between atoms: C_6  and  N_7
REMARK    6  A    between atoms: C_8  and  C_12
REMARK    7  A    between atoms: C_12  and  N_62
REMARK    8  A    between atoms: C_13  and  C_14
REMARK    9  A    between atoms: C_13  and  N_62
REMARK   10  A    between atoms: C_21  and  C_22
REMARK   11  A    between atoms: C_21  and  N_62
REMARK   12  A    between atoms: C_26  and  C_35
REMARK   13  A    between atoms: C_27  and  C_34
REMARK                            x       y       z     vdW  Elec       q    Type
REMARK                         _______ _______ _______ _____ _____    ______ ____
ROOT
ATOM      1  N   UNL     1      -6.078   3.699  -0.602  0.00  0.00    +0.390 N 
ATOM      2  H   UNL     1      -5.985   2.693  -0.782  0.00  0.00    -0.080 HD
ENDROOT
BRANCH   1   3
ATOM      3  C   UNL     1      -7.247   4.214  -1.347  0.00  0.00    +0.001 C 
BRANCH   3   5
ATOM      4  N   UNL     1      -6.711   4.502  -3.824  0.00  0.00    -0.220 N 
ATOM      5  C   UNL     1      -7.143   3.767  -2.782  0.00  0.00    +0.136 A 
ATOM      6  N   UNL     1      -7.460   2.588  -3.260  0.00  0.00    -0.115 NA
ATOM      7  N   UNL     1      -7.231   2.597  -4.528  0.00  0.00    -0.023 NA
ATOM      8  N   UNL     1      -6.775   3.751  -4.871  0.00  0.00    -0.043 NA
BRANCH   4   9
ATOM      9  C   UNL     1      -6.252   5.893  -3.777  0.00  0.00    +0.267 C 
BRANCH   9  10
ATOM     10  C   UNL     1      -4.750   5.930  -3.892  0.00  0.00    +0.329 C 
ATOM     11  O   UNL     1      -4.137   4.917  -4.132  0.00  0.00    -0.249 OA
BRANCH  10  12
ATOM     12  O   UNL     1      -4.093   7.088  -3.727  0.00  0.00    -0.464 OA
BRANCH  12  14
ATOM     13  C   UNL     1      -2.078   8.453  -3.635  0.00  0.00    +0.048 C 
ATOM     14  C   UNL     1      -2.647   7.050  -3.852  0.00  0.00    +0.229 C 
ENDBRANCH  12  14
ENDBRANCH  10  12
ENDBRANCH   9  10
ENDBRANCH   4   9
ENDBRANCH   3   5
ENDBRANCH   1   3
BRANCH   1  15
ATOM     15  C   UNL     1      -4.849   4.384  -1.055  0.00  0.00    -0.042 C 
BRANCH  15  16
ATOM     16  C   UNL     1      -3.654   3.637  -0.521  0.00  0.00    -0.064 A 
ATOM     17  C   UNL     1      -3.033   4.064   0.638  0.00  0.00    +0.004 A 
ATOM     18  C   UNL     1      -1.940   3.377   1.131  0.00  0.00    +0.038 A 
ATOM     19  C   UNL     1      -1.460   2.267   0.457  0.00  0.00    +0.123 A 
ATOM     20  C   UNL     1      -2.079   1.843  -0.707  0.00  0.00    +0.038 A 
ATOM     21  C   UNL     1      -3.175   2.528  -1.194  0.00  0.00    +0.004 A 
ATOM     22  F   UNL     1      -0.388   1.597   0.935  0.00  0.00    -0.205 F 
ENDBRANCH  15  16
ENDBRANCH   1  15
BRANCH   1  23
ATOM     23  C   UNL     1      -6.270   3.912   0.848  0.00  0.00    -0.036 C 
BRANCH  23  24
ATOM     24  C   UNL     1      -7.223   2.866   1.368  0.00  0.00    +0.001 A 
ATOM     25  C   UNL     1      -6.740   1.705   1.875  0.00  0.00    +0.017 A 
ATOM     26  C   UNL     1      -7.692   0.708   2.367  0.00  0.00    -0.001 A 
ATOM     27  C   UNL     1      -7.255  -0.516   2.885  0.00  0.00    +0.013 A 
ATOM     28  C   UNL     1      -8.168  -1.426   3.336  0.00  0.00    -0.047 A 
ATOM     29  C   UNL     1      -9.528  -1.147   3.283  0.00  0.00    -0.046 A 
ATOM     30  C   UNL     1      -9.981   0.051   2.776  0.00  0.00    +0.030 A 
ATOM     31  C   UNL     1      -9.069   0.991   2.306  0.00  0.00    +0.049 A 
ATOM     32  N   UNL     1      -9.495   2.196   1.788  0.00  0.00    -0.322 N 
ATOM     33  H   UNL     1     -10.445   2.391   1.751  0.00  0.00    +0.169 HD
ATOM     34  C   UNL     1      -8.614   3.103   1.335  0.00  0.00    +0.251 A 
ATOM     35  O   UNL     1      -9.026   4.158   0.883  0.00  0.00    -0.268 OA
ATOM     36  C   UNL     1     -10.518  -2.167   3.786  0.00  0.00    +0.044 C 
ATOM     37  C   UNL     1      -7.697  -2.743   3.895  0.00  0.00    +0.044 C 
ENDBRANCH  23  24
ENDBRANCH   1  23
TORSDOF 10
