REMARK  Name = ZINC56795092
REMARK  8 active torsions:
REMARK  status: ('A' for Active; 'I' for Inactive)
REMARK    1  A    between atoms: C_1  and  C_2
REMARK    2  A    between atoms: C_2  and  C_3
REMARK    3  A    between atoms: C_2  and  C_4
REMARK    4  A    between atoms: C_2  and  N_21
REMARK    5  A    between atoms: C_4  and  N_5
REMARK    6  A    between atoms: C_12  and  C_14
REMARK    7  A    between atoms: N_21  and  C_22
REMARK    8  A    between atoms: N_21  and  C_23
REMARK                            x       y       z     vdW  Elec       q    Type
REMARK                         _______ _______ _______ _____ _____    ______ ____
ROOT
ATOM      1  N   UNL     1      -1.558  -1.740  -0.246  0.00  0.00    -0.301 N 
ATOM      2  C   UNL     1      -2.771  -2.267  -0.505  0.00  0.00    +0.303 C 
ATOM      3  O   UNL     1      -3.751  -1.548  -0.546  0.00  0.00    -0.253 OA
ATOM      4  N   UNL     1      -2.899  -3.592  -0.717  0.00  0.00    -0.279 N 
ATOM      5  C   UNL     1      -1.802  -4.576  -0.690  0.00  0.00    +0.110 C 
ATOM      6  C   UNL     1      -2.303  -5.753  -1.563  0.00  0.00    +0.021 C 
ATOM      7  C   UNL     1      -3.812  -5.787  -1.204  0.00  0.00    +0.029 C 
ATOM      8  C   UNL     1      -4.157  -4.296  -1.007  0.00  0.00    +0.108 C 
ATOM      9  H   UNL     1      -0.777  -2.314  -0.213  0.00  0.00    +0.150 HD
ENDROOT
BRANCH   8  10
ATOM     10  C   UNL     1      -5.112  -4.136   0.147  0.00  0.00    -0.027 A 
ATOM     11  C   UNL     1      -4.638  -4.163   1.445  0.00  0.00    +0.006 A 
ATOM     12  C   UNL     1      -5.514  -4.015   2.504  0.00  0.00    +0.015 A 
ATOM     13  C   UNL     1      -6.865  -3.840   2.264  0.00  0.00    +0.018 A 
ATOM     14  C   UNL     1      -7.339  -3.813   0.965  0.00  0.00    +0.015 A 
ATOM     15  C   UNL     1      -6.462  -3.955  -0.093  0.00  0.00    +0.006 A 
ATOM     16 BR   UNL     1      -8.065  -3.639   3.713  0.00  0.00    -0.050 Br
ENDBRANCH   8  10
BRANCH   1  17
ATOM     17  C   UNL     1      -1.419  -0.300  -0.016  0.00  0.00    +0.093 C 
BRANCH  17  19
ATOM     18  C   UNL     1       0.811  -0.220  -1.140  0.00  0.00    -0.008 C 
ATOM     19  C   UNL     1       0.060   0.047   0.166  0.00  0.00    -0.056 C 
ATOM     20  C   UNL     1       0.195   1.525   0.538  0.00  0.00    -0.008 C 
BRANCH  19  21
ATOM     21  N   UNL     1       0.629  -0.781   1.237  0.00  0.00    +0.380 N 
ATOM     22  C   UNL     1       2.044  -0.433   1.426  0.00  0.00    -0.096 C 
ATOM     23  C   UNL     1      -0.106  -0.541   2.486  0.00  0.00    -0.096 C 
ATOM     24  H   UNL     1       0.554  -1.756   0.985  0.00  0.00    -0.082 HD
ENDBRANCH  19  21
ENDBRANCH  17  19
ENDBRANCH   1  17
TORSDOF 4
