REMARK  Name = ZINC12489207
REMARK  10 active torsions:
REMARK  status: ('A' for Active; 'I' for Inactive)
REMARK    1  A    between atoms: C_4  and  C_7
REMARK    2  A    between atoms: C_7  and  C_9
REMARK    3  A    between atoms: C_7  and  N_19
REMARK    4  A    between atoms: N_11  and  C_12
REMARK    5  A    between atoms: C_12  and  C_13
REMARK    6  A    between atoms: N_19  and  C_20
REMARK    7  A    between atoms: C_20  and  C_21
REMARK    8  A    between atoms: C_28  and  C_30
REMARK    9  A    between atoms: C_30  and  N_31
REMARK   10  A    between atoms: C_32  and  C_34
REMARK                            x       y       z     vdW  Elec       q    Type
REMARK                         _______ _______ _______ _____ _____    ______ ____
ROOT
ATOM      1  N   UNL     1      -1.382  -2.473  -0.455  0.00  0.00    -0.280 N 
ATOM      2  C   UNL     1      -2.075  -3.033  -1.467  0.00  0.00    +0.234 C 
ATOM      3  O   UNL     1      -2.524  -2.336  -2.353  0.00  0.00    -0.274 OA
ENDROOT
BRANCH   1   4
ATOM      4  C   UNL     1      -1.296  -1.015  -0.345  0.00  0.00    +0.193 C 
BRANCH   4   8
ATOM      5  C   UNL     1       0.894   0.536  -3.669  0.00  0.00    +0.000 A 
ATOM      6  C   UNL     1       0.665   1.330  -2.561  0.00  0.00    +0.000 A 
ATOM      7  C   UNL     1      -0.043   0.828  -1.485  0.00  0.00    +0.006 A 
ATOM      8  C   UNL     1      -0.523  -0.468  -1.518  0.00  0.00    -0.018 A 
ATOM      9  C   UNL     1      -0.290  -1.264  -2.623  0.00  0.00    +0.006 A 
ATOM     10  C   UNL     1       0.414  -0.760  -3.701  0.00  0.00    +0.000 A 
ENDBRANCH   4   8
BRANCH   4  11
ATOM     11  C   UNL     1      -2.684  -0.428  -0.340  0.00  0.00    +0.238 C 
ATOM     12  O   UNL     1      -3.650  -1.157  -0.420  0.00  0.00    -0.273 OA
ATOM     13  N   UNL     1      -2.851   0.906  -0.246  0.00  0.00    -0.311 N 
ATOM     14  H   UNL     1      -2.078   1.488  -0.177  0.00  0.00    +0.149 HD
BRANCH  13  15
ATOM     15  C   UNL     1      -4.200   1.476  -0.240  0.00  0.00    +0.135 C 
BRANCH  15  16
ATOM     16  C   UNL     1      -4.110   2.999  -0.126  0.00  0.00    +0.135 C 
ATOM     17  C   UNL     1      -5.525   3.609  -0.119  0.00  0.00    +0.035 C 
ATOM     18  C   UNL     1      -5.599   4.382   1.220  0.00  0.00    +0.031 C 
ATOM     19  C   UNL     1      -4.101   4.587   1.560  0.00  0.00    +0.160 C 
ATOM     20  O   UNL     1      -3.484   3.359   1.117  0.00  0.00    -0.375 OA
ENDBRANCH  15  16
ENDBRANCH  13  15
ENDBRANCH   4  11
ENDBRANCH   1   4
BRANCH   1  21
ATOM     21  C   UNL     1      -0.717  -3.324   0.535  0.00  0.00    +0.145 C 
BRANCH  21  22
ATOM     22  C   UNL     1      -1.704  -3.721   1.602  0.00  0.00    -0.012 A 
ATOM     23  C   UNL     1      -2.297  -4.969   1.565  0.00  0.00    +0.006 A 
ATOM     24  C   UNL     1      -3.203  -5.334   2.543  0.00  0.00    +0.000 A 
ATOM     25  C   UNL     1      -3.517  -4.450   3.559  0.00  0.00    +0.001 A 
ATOM     26  C   UNL     1      -2.925  -3.202   3.597  0.00  0.00    +0.020 A 
ATOM     27  C   UNL     1      -2.014  -2.838   2.621  0.00  0.00    +0.046 A 
ATOM     28 CL   UNL     1      -1.264  -1.274   2.673  0.00  0.00    -0.083 Cl
ENDBRANCH  21  22
ENDBRANCH   1  21
BRANCH   2  29
ATOM     29  C   UNL     1      -2.290  -4.524  -1.498  0.00  0.00    +0.200 C 
BRANCH  29  30
ATOM     30  N   UNL     1      -3.065  -4.880  -2.690  0.00  0.00    -0.302 N 
ATOM     31  C   UNL     1      -3.381  -6.169  -2.928  0.00  0.00    +0.251 C 
ATOM     32  O   UNL     1      -3.022  -7.036  -2.154  0.00  0.00    -0.270 OA
ATOM     33  H   UNL     1      -3.351  -4.189  -3.307  0.00  0.00    +0.150 HD
BRANCH  31  34
ATOM     34  C   UNL     1      -4.156  -6.525  -4.120  0.00  0.00    +0.074 A 
ATOM     35  C   UNL     1      -4.581  -7.774  -4.545  0.00  0.00    +0.021 A 
ATOM     36  C   UNL     1      -5.301  -7.826  -5.712  0.00  0.00    +0.008 A 
ATOM     37  C   UNL     1      -5.561  -6.673  -6.383  0.00  0.00    +0.046 A 
ATOM     38  S   UNL     1      -4.806  -5.463  -5.398  0.00  0.00    -0.092 S 
ENDBRANCH  31  34
ENDBRANCH  29  30
ENDBRANCH   2  29
TORSDOF 10
