REMARK  Name = ZINC52005803
REMARK  7 active torsions:
REMARK  status: ('A' for Active; 'I' for Inactive)
REMARK    1  A    between atoms: C_1  and  C_2
REMARK    2  A    between atoms: C_2  and  C_3
REMARK    3  A    between atoms: C_3  and  N_4
REMARK    4  A    between atoms: C_5  and  N_23
REMARK    5  A    between atoms: C_6  and  N_13
REMARK    6  A    between atoms: N_13  and  C_14
REMARK    7  A    between atoms: C_20  and  O_22
REMARK                            x       y       z     vdW  Elec       q    Type
REMARK                         _______ _______ _______ _____ _____    ______ ____
ROOT
ATOM      1  N   UNL     1       0.924  -1.999   1.494  0.00  0.00    -0.281 N 
ATOM      2  C   UNL     1      -0.119  -2.698   2.057  0.00  0.00    +0.127 A 
ATOM      3  C   UNL     1      -0.208  -4.049   1.858  0.00  0.00    +0.131 A 
ATOM      4  C   UNL     1       0.774  -4.689   1.081  0.00  0.00    +0.277 A 
ATOM      5  O   UNL     1       0.717  -5.892   0.889  0.00  0.00    -0.266 OA
ATOM      6  N   UNL     1       1.779  -3.965   0.549  0.00  0.00    -0.273 N 
ATOM      7  H   UNL     1       2.456  -4.405   0.013  0.00  0.00    +0.173 HD
ATOM      8  C   UNL     1       1.847  -2.637   0.751  0.00  0.00    +0.331 A 
ATOM      9  O   UNL     1       2.760  -2.003   0.257  0.00  0.00    -0.246 OA
ENDROOT
BRANCH   2  10
ATOM     10  N   UNL     1      -1.065  -2.044   2.814  0.00  0.00    -0.343 N 
ATOM     11  H   UNL     1      -0.998  -1.086   2.952  0.00  0.00    +0.144 HD
ATOM     12  H   UNL     1      -1.799  -2.541   3.208  0.00  0.00    +0.144 HD
ENDBRANCH   2  10
BRANCH   3  13
ATOM     13  N   UNL     1      -1.270  -4.790   2.426  0.00  0.00    -0.332 N 
ATOM     14  H   UNL     1      -1.987  -4.332   2.892  0.00  0.00    +0.147 HD
BRANCH  13  15
ATOM     15  C   UNL     1      -1.287  -6.250   2.311  0.00  0.00    +0.099 C 
ATOM     16  C   UNL     1      -1.853  -6.648   0.946  0.00  0.00    +0.025 C 
ATOM     17  C   UNL     1      -3.278  -6.109   0.809  0.00  0.00    +0.002 C 
ATOM     18  C   UNL     1      -4.156  -6.697   1.916  0.00  0.00    +0.003 C 
ATOM     19  C   UNL     1      -3.590  -6.299   3.280  0.00  0.00    +0.033 C 
ATOM     20  C   UNL     1      -2.164  -6.839   3.418  0.00  0.00    +0.135 C 
BRANCH  20  21
ATOM     21  O   UNL     1      -1.636  -6.468   4.693  0.00  0.00    -0.390 OA
ATOM     22  H   UNL     1      -2.143  -6.807   5.443  0.00  0.00    +0.210 HD
ENDBRANCH  20  21
ENDBRANCH  13  15
ENDBRANCH   3  13
BRANCH   1  23
ATOM     23  C   UNL     1       1.028  -0.553   1.701  0.00  0.00    +0.128 C 
BRANCH  23  25
ATOM     24  C   UNL     1       0.376   1.687   0.806  0.00  0.00    +0.005 C 
ATOM     25  C   UNL     1       0.268   0.176   0.591  0.00  0.00    +0.018 C 
ENDBRANCH  23  25
ENDBRANCH   1  23
TORSDOF 6
