REMARK  Name = ZINC21654872
REMARK  8 active torsions:
REMARK  status: ('A' for Active; 'I' for Inactive)
REMARK    1  A    between atoms: C_1  and  C_2
REMARK    2  A    between atoms: C_2  and  C_3
REMARK    3  A    between atoms: C_6  and  N_9
REMARK    4  A    between atoms: C_10  and  C_12
REMARK    5  A    between atoms: C_12  and  N_13
REMARK    6  A    between atoms: C_15  and  C_25
REMARK    7  A    between atoms: C_21  and  C_24
REMARK    8  A    between atoms: C_27  and  C_30
REMARK                            x       y       z     vdW  Elec       q    Type
REMARK                         _______ _______ _______ _____ _____    ______ ____
ROOT
ATOM      1  N   UNL     1       0.992   3.551   0.008  0.00  0.00    -0.322 N 
ATOM      2  C   UNL     1       0.952   4.209  -1.161  0.00  0.00    +0.105 A 
ATOM      3  C   UNL     1       0.684   5.558  -1.238  0.00  0.00    +0.103 A 
ATOM      4  C   UNL     1       0.444   6.305   0.007  0.00  0.00    +0.203 A 
ATOM      5  O   UNL     1       0.207   7.500  -0.005  0.00  0.00    -0.286 OA
ATOM      6  C   UNL     1       0.502   5.545   1.267  0.00  0.00    +0.065 A 
ATOM      7  C   UNL     1       0.780   4.168   1.218  0.00  0.00    +0.145 A 
ATOM      8  N   UNL     1       0.836   3.469   2.346  0.00  0.00    -0.234 NA
ATOM      9  C   UNL     1       0.638   4.032   3.520  0.00  0.00    +0.041 A 
ATOM     10  C   UNL     1       0.360   5.384   3.640  0.00  0.00    +0.024 A 
ATOM     11  C   UNL     1       0.289   6.165   2.501  0.00  0.00    +0.017 A 
ATOM     12  C   UNL     1       0.715   3.184   4.763  0.00  0.00    +0.065 C 
ENDROOT
BRANCH   3  13
ATOM     13  C   UNL     1       0.644   6.242  -2.543  0.00  0.00    +0.264 A 
ATOM     14  N   UNL     1       0.399   7.524  -2.754  0.00  0.00    -0.187 NA
ATOM     15  C   UNL     1       0.469   7.689  -4.091  0.00  0.00    +0.202 A 
ATOM     16  N   UNL     1       0.740   6.521  -4.616  0.00  0.00    -0.056 NA
ATOM     17  O   UNL     1       0.843   5.681  -3.747  0.00  0.00    -0.332 OA
BRANCH  15  18
ATOM     18  C   UNL     1       0.271   8.960  -4.831  0.00  0.00    +0.023 A 
ATOM     19  C   UNL     1      -0.020  10.134  -4.138  0.00  0.00    +0.013 A 
ATOM     20  C   UNL     1      -0.198  11.314  -4.830  0.00  0.00    +0.021 A 
ATOM     21  C   UNL     1      -0.100  11.331  -6.211  0.00  0.00    +0.041 A 
ATOM     22  C   UNL     1       0.183  10.167  -6.904  0.00  0.00    +0.021 A 
ATOM     23  C   UNL     1       0.368   8.982  -6.220  0.00  0.00    +0.013 A 
ATOM     24 CL   UNL     1      -0.334  12.818  -7.077  0.00  0.00    -0.084 Cl
ENDBRANCH  15  18
ENDBRANCH   3  13
BRANCH   1  25
ATOM     25  C   UNL     1       1.279   2.115  -0.006  0.00  0.00    +0.219 C 
BRANCH  25  27
ATOM     26  N   UNL     1       0.002  -0.004   0.002  0.00  0.00    -0.284 N 
ATOM     27  C   UNL     1      -0.016   1.343   0.011  0.00  0.00    +0.237 C 
ATOM     28  O   UNL     1      -1.074   1.936   0.027  0.00  0.00    -0.274 OA
ATOM     29  H   UNL     1       0.958  -0.541  -0.094  0.00  0.00    +0.155 HD
BRANCH  26  33
ATOM     30  C   UNL     1      -3.560  -2.138   0.339  0.00  0.00    -0.048 A 
ATOM     31  C   UNL     1      -3.537  -0.938  -0.349  0.00  0.00    +0.005 A 
ATOM     32  C   UNL     1      -2.357  -0.229  -0.462  0.00  0.00    +0.023 A 
ATOM     33  C   UNL     1      -1.194  -0.721   0.115  0.00  0.00    +0.033 A 
ATOM     34  C   UNL     1      -1.220  -1.928   0.800  0.00  0.00    +0.023 A 
ATOM     35  C   UNL     1      -2.404  -2.631   0.915  0.00  0.00    +0.005 A 
BRANCH  30  37
ATOM     36  C   UNL     1      -4.979  -3.876  -0.718  0.00  0.00    +0.009 C 
ATOM     37  C   UNL     1      -4.849  -2.909   0.461  0.00  0.00    +0.032 C 
ENDBRANCH  30  37
ENDBRANCH  26  33
ENDBRANCH  25  27
ENDBRANCH   1  25
TORSDOF 6
