REMARK  Name = ZINC39360970
REMARK  6 active torsions:
REMARK  status: ('A' for Active; 'I' for Inactive)
REMARK    1  A    between atoms: C_1  and  C_2
REMARK    2  A    between atoms: C_2  and  O_3
REMARK    3  A    between atoms: O_3  and  C_4
REMARK    4  A    between atoms: C_4  and  C_6
REMARK    5  A    between atoms: C_8  and  N_16
REMARK    6  A    between atoms: C_17  and  C_19
REMARK                            x       y       z     vdW  Elec       q    Type
REMARK                         _______ _______ _______ _____ _____    ______ ____
ROOT
ATOM      1  C   UNL     1       1.497  -2.392   2.391  0.00  0.00    +0.234 C 
ATOM      2  C   UNL     1       2.997  -2.467   2.211  0.00  0.00    +0.053 C 
ATOM      3  C   UNL     1       3.328  -3.803   2.369  0.00  0.00    +0.018 A 
ATOM      4  C   UNL     1       4.562  -4.494   2.316  0.00  0.00    +0.011 A 
ATOM      5  C   UNL     1       4.590  -5.835   2.514  0.00  0.00    +0.001 A 
ATOM      6  C   UNL     1       3.425  -6.562   2.772  0.00  0.00    +0.002 A 
ATOM      7  C   UNL     1       2.210  -5.967   2.838  0.00  0.00    +0.026 A 
ATOM      8  C   UNL     1       2.098  -4.566   2.642  0.00  0.00    +0.045 A 
ATOM      9  N   UNL     1       1.051  -3.763   2.655  0.00  0.00    -0.367 N 
ATOM     10  H   UNL     1       0.134  -4.036   2.814  0.00  0.00    +0.161 HD
ENDROOT
BRANCH   2  11
ATOM     11  N   UNL     1       3.845  -1.437   1.947  0.00  0.00    -0.282 N 
ATOM     12  C   UNL     1       3.397  -0.167   1.989  0.00  0.00    +0.255 C 
ATOM     13  O   UNL     1       2.264   0.066   2.366  0.00  0.00    -0.270 OA
ATOM     14  H   UNL     1       4.773  -1.616   1.728  0.00  0.00    +0.155 HD
BRANCH  12  15
ATOM     15  C   UNL     1       4.277   0.939   1.580  0.00  0.00    +0.122 A 
ATOM     16  C   UNL     1       3.845   2.259   1.619  0.00  0.00    +0.031 A 
ATOM     17  C   UNL     1       4.740   3.267   1.178  0.00  0.00    +0.018 A 
ATOM     18  C   UNL     1       4.439   4.622   1.379  0.00  0.00    +0.011 A 
ATOM     19  C   UNL     1       5.330   5.580   0.987  0.00  0.00    +0.001 A 
ATOM     20  C   UNL     1       6.529   5.224   0.383  0.00  0.00    +0.004 A 
ATOM     21  C   UNL     1       6.836   3.898   0.158  0.00  0.00    +0.047 A 
ATOM     22  C   UNL     1       5.942   2.908   0.542  0.00  0.00    +0.139 A 
ATOM     23  O   UNL     1       6.213   1.605   0.287  0.00  0.00    -0.422 OA
ATOM     24  C   UNL     1       5.655   0.691   1.119  0.00  0.00    +0.350 A 
ATOM     25  O   UNL     1       6.267  -0.301   1.468  0.00  0.00    -0.244 OA
ENDBRANCH  12  15
ENDBRANCH   2  11
BRANCH   1  26
ATOM     26  C   UNL     1       0.849  -1.868   1.135  0.00  0.00    +0.336 C 
ATOM     27  O   UNL     1       0.451  -2.639   0.294  0.00  0.00    -0.248 OA
BRANCH  26  28
ATOM     28  O   UNL     1       0.714  -0.545   0.951  0.00  0.00    -0.463 OA
BRANCH  28  30
ATOM     29  C   UNL     1       0.026   1.409  -0.294  0.00  0.00    +0.048 C 
ATOM     30  C   UNL     1       0.091  -0.120  -0.263  0.00  0.00    +0.229 C 
ENDBRANCH  28  30
ENDBRANCH  26  28
ENDBRANCH   1  26
TORSDOF 5
