REMARK  Name = ZINC33276652
REMARK  7 active torsions:
REMARK  status: ('A' for Active; 'I' for Inactive)
REMARK    1  A    between atoms: C_1  and  C_2
REMARK    2  A    between atoms: C_2  and  C_3
REMARK    3  A    between atoms: C_4  and  C_15
REMARK    4  A    between atoms: C_18  and  C_32
REMARK    5  A    between atoms: C_19  and  S_21
REMARK    6  A    between atoms: S_21  and  N_24
REMARK    7  A    between atoms: C_29  and  C_31
REMARK                            x       y       z     vdW  Elec       q    Type
REMARK                         _______ _______ _______ _____ _____    ______ ____
ROOT
ATOM      1  C   UNL     1      -3.510   1.068  -0.948  0.00  0.00    -0.011 A 
ATOM      2  C   UNL     1      -4.679   1.814  -0.803  0.00  0.00    +0.009 A 
ATOM      3  C   UNL     1      -5.486   2.046  -1.899  0.00  0.00    +0.006 A 
ATOM      4  C   UNL     1      -5.141   1.533  -3.136  0.00  0.00    -0.024 A 
ATOM      5  C   UNL     1      -3.985   0.788  -3.284  0.00  0.00    +0.109 A 
ATOM      6  C   UNL     1      -3.168   0.553  -2.197  0.00  0.00    +0.037 A 
ATOM      7  C   UNL     1      -6.029   1.785  -4.327  0.00  0.00    +0.046 C 
ENDROOT
BRANCH   1   9
ATOM      8  C   UNL     1      -2.373  -0.431   0.816  0.00  0.00    +0.073 A 
ATOM      9  C   UNL     1      -2.637   0.819   0.225  0.00  0.00    +0.045 A 
ATOM     10  C   UNL     1      -1.929   1.777   0.942  0.00  0.00    +0.139 A 
ATOM     11  N   UNL     1      -1.206   1.113   1.879  0.00  0.00    -0.185 N 
ATOM     12  N   UNL     1      -1.548  -0.252   1.805  0.00  0.00    -0.167 NA
ATOM     13  C   UNL     1      -0.258   1.575   2.724  0.00  0.00    +0.250 C 
ATOM     14  O   UNL     1       0.179   0.826   3.565  0.00  0.00    -0.271 OA
ATOM     15  C   UNL     1       0.268   2.950   2.665  0.00  0.00    +0.110 C 
ATOM     16  C   UNL     1       0.330   3.540   1.281  0.00  0.00    +0.105 C 
ATOM     17  C   UNL     1      -1.009   4.013   0.821  0.00  0.00    +0.219 C 
ATOM     18  O   UNL     1      -1.189   5.187   0.574  0.00  0.00    -0.275 OA
ATOM     19  N   UNL     1      -2.020   3.129   0.680  0.00  0.00    -0.270 N 
ATOM     20  H   UNL     1      -2.970   3.559   0.329  0.00  0.00    +0.156 HD
BRANCH   8  22
ATOM     21  C   UNL     1      -4.259  -2.011   1.125  0.00  0.00    +0.010 C 
ATOM     22  C   UNL     1      -2.950  -1.752   0.377  0.00  0.00    +0.054 C 
ENDBRANCH   8  22
ENDBRANCH   1   9
BRANCH   5  23
ATOM     23  S   UNL     1      -3.554   0.138  -4.864  0.00  0.00    +0.061 S 
ATOM     24  O   UNL     1      -3.743   1.190  -5.801  0.00  0.00    -0.153 OA
ATOM     25  O   UNL     1      -2.307  -0.525  -4.705  0.00  0.00    -0.153 OA
BRANCH  23  26
ATOM     26  N   UNL     1      -4.667  -1.031  -5.234  0.00  0.00    -0.174 NA
ATOM     27  C   UNL     1      -5.800  -0.733  -6.121  0.00  0.00    +0.110 C 
ATOM     28  C   UNL     1      -7.099  -1.121  -5.418  0.00  0.00    +0.017 C 
ATOM     29  C   UNL     1      -7.018  -2.583  -4.972  0.00  0.00    +0.003 C 
ATOM     30  C   UNL     1      -5.862  -2.753  -3.983  0.00  0.00    +0.020 C 
ATOM     31  C   UNL     1      -4.545  -2.384  -4.675  0.00  0.00    +0.077 C 
ATOM     32  C   UNL     1      -3.402  -2.418  -3.658  0.00  0.00    +0.026 C 
ENDBRANCH  23  26
ENDBRANCH   5  23
TORSDOF 4
