REMARK  Name = ZINC33530124
REMARK  11 active torsions:
REMARK  status: ('A' for Active; 'I' for Inactive)
REMARK    1  A    between atoms: C_1  and  C_2
REMARK    2  A    between atoms: N_8  and  C_9
REMARK    3  A    between atoms: C_9  and  C_10
REMARK    4  A    between atoms: C_10  and  C_11
REMARK    5  A    between atoms: C_11  and  N_12
REMARK    6  A    between atoms: C_13  and  C_15
REMARK    7  A    between atoms: C_15  and  C_16
REMARK    8  A    between atoms: C_16  and  C_17
REMARK    9  A    between atoms: C_17  and  S_18
REMARK   10  A    between atoms: S_18  and  C_19
REMARK   11  A    between atoms: N_29  and  C_30
REMARK                            x       y       z     vdW  Elec       q    Type
REMARK                         _______ _______ _______ _____ _____    ______ ____
ROOT
ATOM      1  S   UNL     1      -7.681  11.133  -6.772  0.00  0.00    -0.087 S 
ENDROOT
BRANCH   1   2
ATOM      2  C   UNL     1      -9.062  10.840  -7.825  0.00  0.00    +0.177 A 
ATOM      3  N   UNL     1      -9.270   9.621  -8.260  0.00  0.00    -0.223 NA
ATOM      4  C   UNL     1     -10.316   9.327  -9.067  0.00  0.00    +0.079 A 
ATOM      5  C   UNL     1     -10.543   8.026  -9.527  0.00  0.00    +0.028 A 
ATOM      6  C   UNL     1     -11.607   7.774 -10.346  0.00  0.00    +0.002 A 
ATOM      7  C   UNL     1     -12.470   8.793 -10.729  0.00  0.00    +0.001 A 
ATOM      8  C   UNL     1     -12.275  10.075 -10.296  0.00  0.00    +0.015 A 
ATOM      9  C   UNL     1     -11.196  10.361  -9.459  0.00  0.00    +0.065 A 
ATOM     10  C   UNL     1     -10.937  11.719  -8.963  0.00  0.00    +0.267 A 
ATOM     11  O   UNL     1     -11.660  12.650  -9.267  0.00  0.00    -0.267 OA
ATOM     12  N   UNL     1      -9.865  11.897  -8.157  0.00  0.00    -0.255 N 
BRANCH  12  13
ATOM     13  C   UNL     1      -9.576  13.173  -7.657  0.00  0.00    +0.055 A 
ATOM     14  C   UNL     1      -9.760  13.450  -6.309  0.00  0.00    +0.026 A 
ATOM     15  C   UNL     1      -9.469  14.707  -5.817  0.00  0.00    +0.005 A 
ATOM     16  C   UNL     1      -9.004  15.694  -6.667  0.00  0.00    +0.038 A 
ATOM     17  C   UNL     1      -8.825  15.424  -8.013  0.00  0.00    +0.125 A 
ATOM     18  C   UNL     1      -9.110  14.164  -8.510  0.00  0.00    +0.064 A 
ATOM     19  F   UNL     1      -8.372  16.390  -8.841  0.00  0.00    -0.205 F 
ENDBRANCH  12  13
ENDBRANCH   1   2
BRANCH   1  20
ATOM     20  C   UNL     1      -7.002   9.458  -6.671  0.00  0.00    +0.078 C 
BRANCH  20  21
ATOM     21  C   UNL     1      -5.758   9.464  -5.781  0.00  0.00    +0.020 C 
BRANCH  21  22
ATOM     22  C   UNL     1      -5.184   8.048  -5.696  0.00  0.00    +0.096 C 
BRANCH  22  24
ATOM     23  N   UNL     1      -3.282   6.910  -4.598  0.00  0.00    -0.315 N 
ATOM     24  C   UNL     1      -3.959   8.055  -4.819  0.00  0.00    +0.213 C 
ATOM     25  O   UNL     1      -3.581   9.090  -4.312  0.00  0.00    -0.276 OA
ATOM     26  H   UNL     1      -3.624   5.971  -5.058  0.00  0.00    +0.149 HD
BRANCH  23  27
ATOM     27  C   UNL     1      -2.091   6.917  -3.746  0.00  0.00    +0.102 C 
BRANCH  27  28
ATOM     28  C   UNL     1      -1.517   5.501  -3.660  0.00  0.00    +0.000 C 
BRANCH  28  29
ATOM     29  C   UNL     1      -0.273   5.507  -2.770  0.00  0.00    -0.077 C 
BRANCH  29  36
ATOM     30  C   UNL     1       0.410   4.434  -0.260  0.00  0.00    -0.013 C 
ATOM     31  C   UNL     1       1.161   4.007  -1.523  0.00  0.00    -0.072 C 
ATOM     32  C   UNL     1       1.600   2.547  -1.387  0.00  0.00    -0.016 C 
ATOM     33  C   UNL     1       2.332   2.118  -2.661  0.00  0.00    -0.003 C 
ATOM     34  C   UNL     1       1.408   2.320  -3.865  0.00  0.00    -0.019 C 
ATOM     35  C   UNL     1       0.975   3.787  -3.929  0.00  0.00    -0.078 C 
ATOM     36  N   UNL     1       0.278   4.148  -2.688  0.00  0.00    +0.381 N 
ATOM     37  H   UNL     1      -0.561   3.449  -2.560  0.00  0.00    -0.081 HD
ENDBRANCH  29  36
ENDBRANCH  28  29
ENDBRANCH  27  28
ENDBRANCH  23  27
ENDBRANCH  22  24
ENDBRANCH  21  22
ENDBRANCH  20  21
ENDBRANCH   1  20
TORSDOF 10
