REMARK  Name = ZINC09292884
REMARK  12 active torsions:
REMARK  status: ('A' for Active; 'I' for Inactive)
REMARK    1  A    between atoms: C_1  and  C_2
REMARK    2  A    between atoms: C_2  and  O_3
REMARK    3  A    between atoms: O_3  and  C_4
REMARK    4  A    between atoms: C_7  and  C_12
REMARK    5  A    between atoms: C_9  and  O_10
REMARK    6  A    between atoms: O_10  and  C_11
REMARK    7  A    between atoms: C_19  and  N_34
REMARK    8  A    between atoms: C_20  and  C_32
REMARK    9  A    between atoms: C_21  and  C_23
REMARK   10  A    between atoms: C_26  and  N_29
REMARK   11  A    between atoms: N_29  and  C_30
REMARK   12  A    between atoms: N_29  and  C_31
REMARK                            x       y       z     vdW  Elec       q    Type
REMARK                         _______ _______ _______ _____ _____    ______ ____
ROOT
ATOM      1  C   UNL     1      -1.994  -6.073  -0.011  0.00  0.00    +0.074 A 
ATOM      2  C   UNL     1      -1.320  -6.957  -0.787  0.00  0.00    +0.054 A 
ATOM      3  C   UNL     1      -1.784  -8.251  -0.479  0.00  0.00    +0.245 A 
ATOM      4  N   UNL     1      -2.699  -8.150   0.443  0.00  0.00    -0.135 NA
ATOM      5  N   UNL     1      -2.855  -6.793   0.767  0.00  0.00    -0.273 N 
ATOM      6  H   UNL     1      -3.467  -6.431   1.427  0.00  0.00    +0.189 HD
ATOM      7  O   UNL     1      -1.291  -9.359  -1.097  0.00  0.00    -0.421 OA
ATOM      8  C   UNL     1      -0.160  -9.218  -1.816  0.00  0.00    +0.201 C 
ATOM      9  C   UNL     1       0.372  -8.033  -2.180  0.00  0.00    +0.098 C 
ATOM     10  C   UNL     1      -0.252  -6.708  -1.821  0.00  0.00    +0.102 C 
ENDROOT
BRANCH   1  14
ATOM     11  C   UNL     1      -1.498  -1.849   0.006  0.00  0.00    +0.162 A 
ATOM     12  C   UNL     1      -0.386  -2.677  -0.003  0.00  0.00    +0.050 A 
ATOM     13  C   UNL     1      -0.543  -4.048  -0.009  0.00  0.00    +0.014 A 
ATOM     14  C   UNL     1      -1.823  -4.604  -0.005  0.00  0.00    +0.004 A 
ATOM     15  C   UNL     1      -2.942  -3.770   0.005  0.00  0.00    +0.059 A 
ATOM     16  C   UNL     1      -2.779  -2.397   0.016  0.00  0.00    +0.162 A 
BRANCH  16  17
ATOM     17  O   UNL     1      -3.867  -1.582   0.030  0.00  0.00    -0.491 OA
ATOM     18  C   UNL     1      -5.150  -2.213   0.039  0.00  0.00    +0.277 C 
ENDBRANCH  16  17
BRANCH  11  19
ATOM     19  O   UNL     1      -1.339  -0.499   0.012  0.00  0.00    -0.489 OA
BRANCH  19  21
ATOM     20  C   UNL     1      -0.019   1.526   0.010  0.00  0.00    +0.048 C 
ATOM     21  C   UNL     1       0.002  -0.004   0.002  0.00  0.00    +0.226 C 
ENDBRANCH  19  21
ENDBRANCH  11  19
ENDBRANCH   1  14
BRANCH  10  22
ATOM     22  C   UNL     1      -0.868  -6.087  -3.049  0.00  0.00    -0.034 A 
ATOM     23  C   UNL     1      -1.856  -6.762  -3.742  0.00  0.00    +0.006 A 
ATOM     24  C   UNL     1      -2.422  -6.196  -4.867  0.00  0.00    +0.023 A 
ATOM     25  C   UNL     1      -1.998  -4.947  -5.302  0.00  0.00    +0.029 A 
ATOM     26  C   UNL     1      -1.006  -4.271  -4.604  0.00  0.00    +0.023 A 
ATOM     27  C   UNL     1      -0.448  -4.841  -3.476  0.00  0.00    +0.006 A 
BRANCH  25  28
ATOM     28  N   UNL     1      -2.569  -4.372  -6.440  0.00  0.00    -0.336 N 
ATOM     29  C   UNL     1      -3.615  -5.086  -7.176  0.00  0.00    +0.129 C 
ATOM     30  C   UNL     1      -2.120  -3.054  -6.898  0.00  0.00    +0.129 C 
ENDBRANCH  25  28
ENDBRANCH  10  22
BRANCH   8  31
ATOM     31  N   UNL     1       0.496 -10.359  -2.204  0.00  0.00    -0.328 N 
ATOM     32  H   UNL     1       0.143 -11.229  -1.960  0.00  0.00    +0.145 HD
ATOM     33  H   UNL     1       1.314 -10.296  -2.722  0.00  0.00    +0.145 HD
ENDBRANCH   8  31
BRANCH   9  34
ATOM     34  C   UNL     1       1.585  -8.033  -2.942  0.00  0.00    +0.101 C 
ATOM     35  N   UNL     1       2.547  -8.033  -3.546  0.00  0.00    -0.191 NA
ENDBRANCH   9  34
TORSDOF 8
