REMARK  Name = ZINC24964118
REMARK  10 active torsions:
REMARK  status: ('A' for Active; 'I' for Inactive)
REMARK    1  A    between atoms: C_1  and  C_2
REMARK    2  A    between atoms: C_2  and  C_3
REMARK    3  A    between atoms: C_2  and  O_4
REMARK    4  A    between atoms: O_4  and  C_5
REMARK    5  A    between atoms: C_5  and  C_7
REMARK    6  A    between atoms: C_11  and  N_12
REMARK    7  A    between atoms: C_13  and  C_15
REMARK    8  A    between atoms: C_15  and  N_16
REMARK    9  A    between atoms: C_19  and  C_23
REMARK   10  A    between atoms: C_19  and  C_24
REMARK                            x       y       z     vdW  Elec       q    Type
REMARK                         _______ _______ _______ _____ _____    ______ ____
ROOT
ATOM      1  N   UNL     1      -0.288   1.272  -2.443  0.00  0.00    -0.278 N 
ATOM      2  C   UNL     1      -0.742   1.585  -1.213  0.00  0.00    +0.236 C 
ATOM      3  O   UNL     1      -1.736   2.268  -1.088  0.00  0.00    -0.274 OA
ATOM      4  H   UNL     1       0.614   0.653  -2.556  0.00  0.00    +0.155 HD
ENDROOT
BRANCH   1   9
ATOM      5  C   UNL     1      -0.647   1.522  -4.903  0.00  0.00    +0.091 A 
ATOM      6  C   UNL     1      -1.524   2.117  -5.898  0.00  0.00    -0.021 A 
ATOM      7  C   UNL     1      -2.558   2.829  -5.401  0.00  0.00    -0.004 A 
ATOM      8  S   UNL     1      -2.385   2.712  -3.643  0.00  0.00    -0.077 S 
ATOM      9  C   UNL     1      -0.959   1.732  -3.566  0.00  0.00    +0.086 A 
ATOM     10  C   UNL     1      -3.613   3.554  -6.179  0.00  0.00    +0.043 C 
ATOM     11  C   UNL     1      -3.136   3.685  -7.633  0.00  0.00    +0.005 C 
ATOM     12  C   UNL     1      -2.631   2.321  -8.111  0.00  0.00    +0.005 C 
ATOM     13  C   UNL     1      -1.321   1.974  -7.401  0.00  0.00    +0.037 C 
BRANCH   5  14
ATOM     14  C   UNL     1       0.520   0.730  -5.296  0.00  0.00    +0.342 C 
ATOM     15  O   UNL     1       0.412  -0.470  -5.461  0.00  0.00    -0.245 OA
BRANCH  14  16
ATOM     16  O   UNL     1       1.715   1.330  -5.474  0.00  0.00    -0.458 OA
BRANCH  16  18
ATOM     17  C   UNL     1       3.813   1.291  -6.709  0.00  0.00    +0.052 C 
ATOM     18  C   UNL     1       2.827   0.483  -5.863  0.00  0.00    +0.171 C 
ATOM     19  C   UNL     1       3.536  -0.035  -4.610  0.00  0.00    +0.052 C 
ENDBRANCH  16  18
ENDBRANCH  14  16
ENDBRANCH   5  14
ENDBRANCH   1   9
BRANCH   2  20
ATOM     20  C   UNL     1      -0.013   1.086   0.008  0.00  0.00    +0.214 C 
BRANCH  20  21
ATOM     21  N   UNL     1      -0.698   1.558   1.213  0.00  0.00    -0.215 N 
ATOM     22  C   UNL     1      -1.684   0.883   1.837  0.00  0.00    +0.254 C 
ATOM     23  O   UNL     1      -2.154  -0.188   1.518  0.00  0.00    -0.272 OA
ATOM     24  C   UNL     1      -2.084   1.743   3.020  0.00  0.00    +0.168 C 
ATOM     25  N   UNL     1      -1.194   2.912   2.915  0.00  0.00    -0.279 N 
ATOM     26  C   UNL     1      -0.420   2.710   1.834  0.00  0.00    +0.310 C 
ATOM     27  O   UNL     1       0.435   3.489   1.460  0.00  0.00    -0.252 OA
ATOM     28  C   UNL     1      -3.549   2.170   2.905  0.00  0.00    +0.050 C 
ATOM     29  H   UNL     1      -1.262   3.723   3.655  0.00  0.00    +0.152 HD
BRANCH  24  30
ATOM     30  C   UNL     1      -1.848   1.007   4.314  0.00  0.00    +0.137 A 
ATOM     31  C   UNL     1      -1.536   1.572   5.494  0.00  0.00    +0.047 A 
ATOM     32  C   UNL     1      -1.409   0.520   6.431  0.00  0.00    +0.041 A 
ATOM     33  C   UNL     1      -1.643  -0.625   5.764  0.00  0.00    +0.195 A 
ATOM     34  O   UNL     1      -1.909  -0.324   4.483  0.00  0.00    -0.465 OA
ENDBRANCH  24  30
ENDBRANCH  20  21
ENDBRANCH   2  20
TORSDOF 7
