REMARK  Name = ZINC16651954
REMARK  16 active torsions:
REMARK  status: ('A' for Active; 'I' for Inactive)
REMARK    1  A    between atoms: C_1  and  C_2
REMARK    2  A    between atoms: C_2  and  O_3
REMARK    3  A    between atoms: O_3  and  C_4
REMARK    4  A    between atoms: C_4  and  C_5
REMARK    5  A    between atoms: C_5  and  C_6
REMARK    6  A    between atoms: C_6  and  N_7
REMARK    7  A    between atoms: N_7  and  C_8
REMARK    8  A    between atoms: C_8  and  C_9
REMARK    9  A    between atoms: N_11  and  C_12
REMARK   10  A    between atoms: N_11  and  C_22
REMARK   11  A    between atoms: C_12  and  C_13
REMARK   12  A    between atoms: C_22  and  C_23
REMARK   13  A    between atoms: C_26  and  C_28
REMARK   14  A    between atoms: N_31  and  C_32
REMARK   15  A    between atoms: C_36  and  C_39
REMARK   16  A    between atoms: C_37  and  C_38
REMARK                            x       y       z     vdW  Elec       q    Type
REMARK                         _______ _______ _______ _____ _____    ______ ____
ROOT
ATOM      1  C   UNL     1      -2.933  -0.671   3.430  0.00  0.00    +0.205 C 
ENDROOT
BRANCH   1   2
ATOM      2  N   UNL     1      -2.364  -1.942   3.885  0.00  0.00    -0.277 N 
ATOM      3  C   UNL     1      -1.160  -1.963   4.491  0.00  0.00    +0.307 C 
ATOM      4  O   UNL     1      -0.547  -0.927   4.661  0.00  0.00    -0.252 OA
ATOM      5  N   UNL     1      -0.636  -3.132   4.909  0.00  0.00    -0.269 N 
ATOM      6  H   UNL     1      -1.159  -3.947   4.848  0.00  0.00    +0.156 HD
BRANCH   5   7
ATOM      7  C   UNL     1       0.661  -3.171   5.431  0.00  0.00    +0.038 A 
ATOM      8  C   UNL     1       1.585  -2.197   5.073  0.00  0.00    +0.023 A 
ATOM      9  C   UNL     1       2.865  -2.238   5.590  0.00  0.00    +0.002 A 
ATOM     10  C   UNL     1       3.227  -3.246   6.465  0.00  0.00    +0.004 A 
ATOM     11  C   UNL     1       2.310  -4.217   6.823  0.00  0.00    -0.046 A 
ATOM     12  C   UNL     1       1.027  -4.179   6.313  0.00  0.00    -0.026 A 
ATOM     13  C   UNL     1       0.026  -5.234   6.709  0.00  0.00    +0.046 C 
ATOM     14  C   UNL     1       2.709  -5.314   7.776  0.00  0.00    +0.044 C 
ENDBRANCH   5   7
BRANCH   2  15
ATOM     15  C   UNL     1      -3.102  -3.191   3.680  0.00  0.00    +0.112 C 
BRANCH  15  16
ATOM     16  C   UNL     1      -2.717  -3.795   2.328  0.00  0.00    +0.047 C 
BRANCH  16  17
ATOM     17  C   UNL     1      -3.489  -5.099   2.114  0.00  0.00    +0.161 C 
BRANCH  17  18
ATOM     18  O   UNL     1      -3.130  -5.664   0.852  0.00  0.00    -0.380 OA
BRANCH  18  20
ATOM     19  C   UNL     1      -3.339  -7.401  -0.815  0.00  0.00    +0.034 C 
ATOM     20  C   UNL     1      -3.798  -6.891   0.553  0.00  0.00    +0.156 C 
ENDBRANCH  18  20
ENDBRANCH  17  18
ENDBRANCH  16  17
ENDBRANCH  15  16
ENDBRANCH   2  15
ENDBRANCH   1   2
BRANCH   1  21
ATOM     21  C   UNL     1      -2.496  -0.403   2.013  0.00  0.00    +0.234 C 
ATOM     22  O   UNL     1      -1.779  -1.195   1.439  0.00  0.00    -0.274 OA
ATOM     23  N   UNL     1      -2.901   0.718   1.384  0.00  0.00    -0.289 N 
BRANCH  23  24
ATOM     24  C   UNL     1      -2.476   0.979   0.006  0.00  0.00    +0.143 C 
BRANCH  24  25
ATOM     25  C   UNL     1      -1.184   1.754   0.018  0.00  0.00    -0.026 A 
ATOM     26  C   UNL     1      -1.210   3.137   0.034  0.00  0.00    +0.009 A 
ATOM     27  C   UNL     1      -0.027   3.853   0.037  0.00  0.00    +0.050 A 
ATOM     28  C   UNL     1       1.187   3.186   0.032  0.00  0.00    +0.166 A 
ATOM     29  C   UNL     1       1.213   1.794   0.023  0.00  0.00    +0.167 A 
ATOM     30  C   UNL     1       0.024   1.083   0.018  0.00  0.00    +0.054 A 
ATOM     31  O   UNL     1       2.514   1.381   0.019  0.00  0.00    -0.453 OA
ATOM     32  C   UNL     1       3.280   2.531  -0.386  0.00  0.00    +0.466 C 
ATOM     33  O   UNL     1       2.472   3.646   0.034  0.00  0.00    -0.453 OA
ENDBRANCH  24  25
ENDBRANCH  23  24
BRANCH  23  34
ATOM     34  C   UNL     1      -3.767   1.675   2.077  0.00  0.00    +0.182 C 
BRANCH  34  35
ATOM     35  C   UNL     1      -5.210   1.317   1.831  0.00  0.00    +0.122 A 
ATOM     36  C   UNL     1      -5.957   0.494   2.589  0.00  0.00    +0.046 A 
ATOM     37  C   UNL     1      -7.240   0.444   1.998  0.00  0.00    +0.045 A 
ATOM     38  C   UNL     1      -7.201   1.239   0.914  0.00  0.00    +0.102 A 
ATOM     39  O   UNL     1      -5.970   1.770   0.821  0.00  0.00    -0.463 OA
ATOM     40  C   UNL     1      -8.345   1.496  -0.033  0.00  0.00    +0.086 C 
ENDBRANCH  34  35
ENDBRANCH  23  34
ENDBRANCH   1  21
TORSDOF 12
