REMARK  Name = ZINC51178326
REMARK  6 active torsions:
REMARK  status: ('A' for Active; 'I' for Inactive)
REMARK    1  A    between atoms: C_1  and  C_2
REMARK    2  A    between atoms: C_2  and  C_3
REMARK    3  A    between atoms: C_2  and  C_4
REMARK    4  A    between atoms: C_2  and  C_16
REMARK    5  A    between atoms: C_4  and  N_5
REMARK    6  A    between atoms: C_9  and  C_11
REMARK                            x       y       z     vdW  Elec       q    Type
REMARK                         _______ _______ _______ _____ _____    ______ ____
ROOT
ATOM      1  N   UNL     1      -2.097  -1.035   0.104  0.00  0.00    +0.382 N 
ATOM      2  C   UNL     1      -1.694  -1.856   1.266  0.00  0.00    -0.078 C 
ATOM      3  C   UNL     1      -2.955  -2.681   1.624  0.00  0.00    -0.020 C 
ATOM      4  C   UNL     1      -3.538  -2.988   0.219  0.00  0.00    -0.017 C 
ATOM      5  C   UNL     1      -3.220  -1.705  -0.577  0.00  0.00    -0.065 C 
ATOM      6  H   UNL     1      -2.388  -0.122   0.421  0.00  0.00    -0.081 HD
ENDROOT
BRANCH   5   7
ATOM      7  C   UNL     1      -4.443  -0.785  -0.593  0.00  0.00    -0.025 C 
ATOM      8  C   UNL     1      -5.618  -1.481  -1.310  0.00  0.00    +0.002 C 
ATOM      9  C   UNL     1      -6.320  -0.338  -2.085  0.00  0.00    +0.000 C 
ATOM     10  C   UNL     1      -5.130   0.527  -2.570  0.00  0.00    +0.000 C 
ATOM     11  C   UNL     1      -4.133   0.491  -1.393  0.00  0.00    +0.002 C 
ENDBRANCH   5   7
BRANCH   1  12
ATOM     12  C   UNL     1      -0.965  -0.900  -0.823  0.00  0.00    -0.065 C 
BRANCH  12  14
ATOM     13  C   UNL     1       1.252   0.194  -1.177  0.00  0.00    +0.016 C 
ATOM     14  C   UNL     1       0.142  -0.078  -0.160  0.00  0.00    +0.006 C 
ATOM     15  C   UNL     1      -0.436   1.250   0.333  0.00  0.00    +0.016 C 
BRANCH  14  16
ATOM     16  C   UNL     1       0.707  -0.845   1.008  0.00  0.00    +0.227 C 
ATOM     17  O   UNL     1       1.715  -1.494   0.872  0.00  0.00    -0.301 OA
ENDBRANCH  14  16
ENDBRANCH  12  14
ENDBRANCH   1  12
TORSDOF 4
