REMARK  Name = ZINC08846397
REMARK  8 active torsions:
REMARK  status: ('A' for Active; 'I' for Inactive)
REMARK    1  A    between atoms: C_1  and  O_2
REMARK    2  A    between atoms: O_2  and  C_3
REMARK    3  A    between atoms: C_6  and  C_11
REMARK    4  A    between atoms: C_8  and  O_9
REMARK    5  A    between atoms: O_9  and  C_10
REMARK    6  A    between atoms: C_14  and  C_25
REMARK    7  A    between atoms: C_20  and  N_24
REMARK    8  A    between atoms: C_21  and  C_22
REMARK                            x       y       z     vdW  Elec       q    Type
REMARK                         _______ _______ _______ _____ _____    ______ ____
ROOT
ATOM      1  C   UNL     1      -4.790  -2.620   0.236  0.00  0.00    +0.101 C 
ATOM      2  C   UNL     1      -5.587  -2.096  -0.930  0.00  0.00    +0.050 A 
ATOM      3  C   UNL     1      -5.415  -2.329  -2.288  0.00  0.00    +0.077 A 
ATOM      4  N   UNL     1      -6.342  -1.664  -2.936  0.00  0.00    -0.175 NA
ATOM      5  N   UNL     1      -7.136  -0.983  -2.000  0.00  0.00    -0.246 N 
ATOM      6  H   UNL     1      -7.895  -0.414  -2.201  0.00  0.00    +0.192 HD
ATOM      7  C   UNL     1      -6.658  -1.261  -0.776  0.00  0.00    +0.222 A 
ATOM      8  O   UNL     1      -7.091  -0.841   0.439  0.00  0.00    -0.423 OA
ATOM      9  C   UNL     1      -6.613  -1.479   1.527  0.00  0.00    +0.200 C 
ATOM     10  C   UNL     1      -5.553  -2.319   1.502  0.00  0.00    +0.098 C 
ENDROOT
BRANCH   3  11
ATOM     11  C   UNL     1      -4.350  -3.195  -2.909  0.00  0.00    +0.016 C 
ATOM     12  C   UNL     1      -2.979  -2.550  -2.697  0.00  0.00    +0.016 C 
ATOM     13  C   UNL     1      -1.898  -3.429  -3.328  0.00  0.00    -0.010 C 
ATOM     14  C   UNL     1      -1.918  -4.811  -2.671  0.00  0.00    +0.007 C 
ATOM     15  C   UNL     1      -3.288  -5.457  -2.884  0.00  0.00    -0.010 C 
ATOM     16  C   UNL     1      -4.370  -4.577  -2.253  0.00  0.00    +0.016 C 
ATOM     17  C   UNL     1      -3.558  -5.600  -4.383  0.00  0.00    +0.007 C 
ATOM     18  C   UNL     1      -3.538  -4.218  -5.039  0.00  0.00    -0.010 C 
ATOM     19  C   UNL     1      -2.167  -3.573  -4.827  0.00  0.00    +0.007 C 
ATOM     20  C   UNL     1      -4.619  -3.339  -4.408  0.00  0.00    +0.016 C 
ENDBRANCH   3  11
BRANCH   1  24
ATOM     21  C   UNL     1      -0.975  -0.692   0.358  0.00  0.00    +0.162 A 
ATOM     22  C   UNL     1      -2.124   0.051   0.137  0.00  0.00    +0.050 A 
ATOM     23  C   UNL     1      -3.355  -0.575   0.098  0.00  0.00    +0.008 A 
ATOM     24  C   UNL     1      -3.445  -1.943   0.279  0.00  0.00    -0.031 A 
ATOM     25  C   UNL     1      -2.303  -2.690   0.501  0.00  0.00    +0.054 A 
ATOM     26  C   UNL     1      -1.065  -2.069   0.535  0.00  0.00    +0.162 A 
BRANCH  21  28
ATOM     27  C   UNL     1       0.253   1.339   0.206  0.00  0.00    +0.277 C 
ATOM     28  O   UNL     1       0.237  -0.077   0.396  0.00  0.00    -0.491 OA
ENDBRANCH  21  28
BRANCH  26  29
ATOM     29  O   UNL     1       0.060  -2.803   0.746  0.00  0.00    -0.491 OA
ATOM     30  C   UNL     1      -0.097  -4.221   0.830  0.00  0.00    +0.277 C 
ENDBRANCH  26  29
ENDBRANCH   1  24
BRANCH   9  31
ATOM     31  N   UNL     1      -7.239  -1.264   2.729  0.00  0.00    -0.328 N 
ATOM     32  H   UNL     1      -8.002  -0.667   2.779  0.00  0.00    +0.145 HD
ATOM     33  H   UNL     1      -6.918  -1.709   3.529  0.00  0.00    +0.145 HD
ENDBRANCH   9  31
BRANCH  10  34
ATOM     34  C   UNL     1      -5.139  -2.944   2.722  0.00  0.00    +0.101 C 
ATOM     35  N   UNL     1      -4.810  -3.440   3.690  0.00  0.00    -0.191 NA
ENDBRANCH  10  34
TORSDOF 6
