REMARK  Name = ZINC31052395
REMARK  8 active torsions:
REMARK  status: ('A' for Active; 'I' for Inactive)
REMARK    1  A    between atoms: C_4  and  N_16
REMARK    2  A    between atoms: C_5  and  C_7
REMARK    3  A    between atoms: N_9  and  C_10
REMARK    4  A    between atoms: C_10  and  C_11
REMARK    5  A    between atoms: C_17  and  C_19
REMARK    6  A    between atoms: N_24  and  C_26
REMARK    7  A    between atoms: C_26  and  C_27
REMARK    8  A    between atoms: C_29  and  C_32
REMARK                            x       y       z     vdW  Elec       q    Type
REMARK                         _______ _______ _______ _____ _____    ______ ____
ROOT
ATOM      1  N   UNL     1       0.182  -2.931   0.171  0.00  0.00    -0.285 N 
ATOM      2  C   UNL     1       0.265  -4.263   0.357  0.00  0.00    +0.219 C 
ATOM      3  O   UNL     1       1.346  -4.786   0.529  0.00  0.00    -0.275 OA
ATOM      4  H   UNL     1      -0.802  -2.445   0.102  0.00  0.00    +0.155 HD
ENDROOT
BRANCH   2   5
ATOM      5  C   UNL     1      -0.986  -5.103   0.354  0.00  0.00    +0.059 C 
ATOM      6  C   UNL     1      -1.921  -4.634   1.472  0.00  0.00    +0.009 C 
ATOM      7  C   UNL     1      -3.162  -5.531   1.500  0.00  0.00    -0.018 C 
ATOM      8  C   UNL     1      -2.729  -6.985   1.698  0.00  0.00    -0.078 C 
ATOM      9  N   UNL     1      -1.838  -7.386   0.603  0.00  0.00    +0.386 N 
ATOM     10  C   UNL     1      -0.617  -6.570   0.585  0.00  0.00    -0.065 C 
ATOM     11  H   UNL     1      -2.371  -7.213  -0.344  0.00  0.00    -0.081 HD
BRANCH   9  12
ATOM     12  C   UNL     1      -1.514  -8.817   0.685  0.00  0.00    +0.022 C 
BRANCH  12  13
ATOM     13  C   UNL     1      -2.762  -9.629   0.454  0.00  0.00    +0.211 A 
ATOM     14  N   UNL     1      -3.206 -10.062  -0.700  0.00  0.00    -0.193 NA
ATOM     15  C   UNL     1      -4.344 -10.737  -0.420  0.00  0.00    +0.202 A 
ATOM     16  N   UNL     1      -4.522 -10.675   0.874  0.00  0.00    -0.056 NA
ATOM     17  O   UNL     1      -3.621 -10.048   1.389  0.00  0.00    -0.340 OA
BRANCH  15  18
ATOM     18  C   UNL     1      -5.226 -11.421  -1.399  0.00  0.00    +0.024 A 
ATOM     19  C   UNL     1      -4.912 -11.399  -2.757  0.00  0.00    +0.012 A 
ATOM     20  C   UNL     1      -5.733 -12.039  -3.663  0.00  0.00    +0.002 A 
ATOM     21  C   UNL     1      -6.871 -12.694  -3.227  0.00  0.00    +0.020 A 
ATOM     22  C   UNL     1      -7.190 -12.715  -1.881  0.00  0.00    +0.042 A 
ATOM     23  C   UNL     1      -6.373 -12.081  -0.965  0.00  0.00    +0.031 A 
ATOM     24 CL   UNL     1      -8.620 -13.539  -1.341  0.00  0.00    -0.084 Cl
ENDBRANCH  15  18
ENDBRANCH  12  13
ENDBRANCH   9  12
ENDBRANCH   2   5
BRANCH   1  28
ATOM     25  C   UNL     1       3.661  -0.653  -0.148  0.00  0.00    +0.001 A 
ATOM     26  C   UNL     1       3.619  -1.940  -0.659  0.00  0.00    +0.002 A 
ATOM     27  C   UNL     1       2.469  -2.696  -0.555  0.00  0.00    +0.024 A 
ATOM     28  C   UNL     1       1.344  -2.169   0.065  0.00  0.00    +0.046 A 
ATOM     29  C   UNL     1       1.383  -0.867   0.584  0.00  0.00    +0.058 A 
ATOM     30  C   UNL     1       2.552  -0.112   0.466  0.00  0.00    +0.015 A 
BRANCH  29  31
ATOM     31  C   UNL     1       0.194  -0.295   1.244  0.00  0.00    +0.246 C 
ATOM     32  O   UNL     1      -0.851  -0.918   1.260  0.00  0.00    -0.270 OA
ATOM     33  N   UNL     1       0.265   0.917   1.829  0.00  0.00    -0.304 N 
ATOM     34  H   UNL     1       1.211   1.478   1.818  0.00  0.00    +0.149 HD
BRANCH  33  35
ATOM     35  C   UNL     1      -0.917   1.487   2.479  0.00  0.00    +0.179 C 
BRANCH  35  36
ATOM     36  C   UNL     1      -0.574   2.838   3.050  0.00  0.00    +0.122 A 
ATOM     37  C   UNL     1      -0.685   4.015   2.408  0.00  0.00    +0.046 A 
ATOM     38  C   UNL     1      -0.258   5.016   3.310  0.00  0.00    +0.041 A 
ATOM     39  C   UNL     1       0.088   4.392   4.450  0.00  0.00    +0.195 A 
ATOM     40  O   UNL     1      -0.111   3.073   4.289  0.00  0.00    -0.466 OA
ENDBRANCH  35  36
ENDBRANCH  33  35
ENDBRANCH  29  31
ENDBRANCH   1  28
TORSDOF 8
