REMARK  Name = ZINC36490589
REMARK  9 active torsions:
REMARK  status: ('A' for Active; 'I' for Inactive)
REMARK    1  A    between atoms: C_1  and  C_2
REMARK    2  A    between atoms: C_5  and  C_8
REMARK    3  A    between atoms: C_8  and  C_10
REMARK    4  A    between atoms: C_8  and  N_19
REMARK    5  A    between atoms: N_12  and  C_13
REMARK    6  A    between atoms: N_19  and  C_20
REMARK    7  A    between atoms: C_26  and  C_28
REMARK    8  A    between atoms: C_28  and  N_29
REMARK    9  A    between atoms: C_30  and  C_32
REMARK                            x       y       z     vdW  Elec       q    Type
REMARK                         _______ _______ _______ _____ _____    ______ ____
ROOT
ATOM      1  N   UNL     1      -0.990  -4.759   0.888  0.00  0.00    -0.282 N 
ATOM      2  C   UNL     1      -1.997  -5.561   0.488  0.00  0.00    +0.234 C 
ATOM      3  O   UNL     1      -2.010  -6.000  -0.642  0.00  0.00    -0.274 OA
ENDROOT
BRANCH   1   4
ATOM      4  C   UNL     1      -0.912  -4.323   2.284  0.00  0.00    +0.077 C 
ATOM      5  C   UNL     1       0.200  -3.282   2.432  0.00  0.00    +0.022 C 
ATOM      6  C   UNL     1       0.281  -2.825   3.890  0.00  0.00    +0.002 C 
ATOM      7  C   UNL     1       0.588  -4.029   4.784  0.00  0.00    +0.000 C 
ATOM      8  C   UNL     1      -0.524  -5.070   4.637  0.00  0.00    +0.002 C 
ATOM      9  C   UNL     1      -0.606  -5.526   3.179  0.00  0.00    +0.022 C 
ENDBRANCH   1   4
BRANCH   1  10
ATOM     10  C   UNL     1       0.027  -4.325  -0.073  0.00  0.00    +0.192 C 
BRANCH  10  15
ATOM     11  C   UNL     1       0.275   1.448  -0.142  0.00  0.00    +0.044 C 
ATOM     12  C   UNL     1       0.210  -0.058  -0.124  0.00  0.00    -0.050 A 
ATOM     13  C   UNL     1       1.370  -0.798   0.007  0.00  0.00    +0.004 A 
ATOM     14  C   UNL     1       1.311  -2.179   0.024  0.00  0.00    +0.006 A 
ATOM     15  C   UNL     1       0.091  -2.820  -0.090  0.00  0.00    -0.018 A 
ATOM     16  C   UNL     1      -1.069  -2.079  -0.221  0.00  0.00    +0.006 A 
ATOM     17  C   UNL     1      -1.010  -0.698  -0.233  0.00  0.00    +0.004 A 
ENDBRANCH  10  15
BRANCH  10  18
ATOM     18  C   UNL     1       1.369  -4.881   0.329  0.00  0.00    +0.238 C 
ATOM     19  O   UNL     1       1.490  -5.470   1.382  0.00  0.00    -0.273 OA
ATOM     20  N   UNL     1       2.434  -4.723  -0.481  0.00  0.00    -0.311 N 
ATOM     21  H   UNL     1       2.337  -4.252  -1.323  0.00  0.00    +0.149 HD
BRANCH  20  22
ATOM     22  C   UNL     1       3.738  -5.263  -0.090  0.00  0.00    +0.073 C 
ATOM     23  C   UNL     1       4.458  -4.257   0.809  0.00  0.00    +0.022 C 
ATOM     24  C   UNL     1       5.820  -4.821   1.218  0.00  0.00    +0.002 C 
ATOM     25  C   UNL     1       6.662  -5.080  -0.034  0.00  0.00    +0.000 C 
ATOM     26  C   UNL     1       5.941  -6.086  -0.933  0.00  0.00    +0.002 C 
ATOM     27  C   UNL     1       4.579  -5.522  -1.342  0.00  0.00    +0.022 C 
ENDBRANCH  20  22
ENDBRANCH  10  18
ENDBRANCH   1  10
BRANCH   2  28
ATOM     28  C   UNL     1      -3.107  -5.911   1.445  0.00  0.00    +0.200 C 
BRANCH  28  29
ATOM     29  N   UNL     1      -4.087  -6.763   0.766  0.00  0.00    -0.303 N 
ATOM     30  C   UNL     1      -5.173  -7.202   1.432  0.00  0.00    +0.244 C 
ATOM     31  O   UNL     1      -5.340  -6.892   2.595  0.00  0.00    -0.270 OA
ATOM     32  H   UNL     1      -3.953  -7.011  -0.162  0.00  0.00    +0.150 HD
BRANCH  30  33
ATOM     33  C   UNL     1      -6.162  -8.062   0.747  0.00  0.00    +0.037 A 
ATOM     34  C   UNL     1      -5.970  -8.425  -0.587  0.00  0.00    +0.013 A 
ATOM     35  C   UNL     1      -6.896  -9.228  -1.221  0.00  0.00    +0.001 A 
ATOM     36  C   UNL     1      -8.013  -9.673  -0.536  0.00  0.00    +0.000 A 
ATOM     37  C   UNL     1      -8.210  -9.317   0.786  0.00  0.00    +0.001 A 
ATOM     38  C   UNL     1      -7.288  -8.519   1.433  0.00  0.00    +0.013 A 
ENDBRANCH  30  33
ENDBRANCH  28  29
ENDBRANCH   2  28
TORSDOF 8
