REMARK  Name = ZINC62569512
REMARK  10 active torsions:
REMARK  status: ('A' for Active; 'I' for Inactive)
REMARK    1  A    between atoms: C_1  and  C_2
REMARK    2  A    between atoms: C_2  and  N_3
REMARK    3  A    between atoms: N_3  and  C_4
REMARK    4  A    between atoms: N_3  and  C_6
REMARK    5  A    between atoms: C_4  and  C_5
REMARK    6  A    between atoms: C_6  and  C_7
REMARK    7  A    between atoms: C_7  and  N_8
REMARK    8  A    between atoms: N_8  and  C_9
REMARK    9  A    between atoms: C_9  and  C_10
REMARK   10  A    between atoms: N_20  and  C_21
REMARK                            x       y       z     vdW  Elec       q    Type
REMARK                         _______ _______ _______ _____ _____    ______ ____
ROOT
ATOM      1  N   UNL     1      -2.390  -3.909   0.386  0.00  0.00    -0.283 N 
ATOM      2  C   UNL     1      -2.305  -4.727  -0.682  0.00  0.00    +0.307 C 
ATOM      3  O   UNL     1      -2.134  -5.920  -0.521  0.00  0.00    -0.252 OA
ATOM      4  N   UNL     1      -2.408  -4.223  -1.927  0.00  0.00    -0.268 N 
ATOM      5  H   UNL     1      -2.475  -3.264  -2.058  0.00  0.00    +0.156 HD
ENDROOT
BRANCH   4   6
ATOM      6  C   UNL     1      -2.420  -5.084  -3.033  0.00  0.00    +0.057 A 
ATOM      7  C   UNL     1      -1.803  -6.325  -2.952  0.00  0.00    +0.072 A 
ATOM      8  C   UNL     1      -1.816  -7.173  -4.045  0.00  0.00    +0.144 A 
ATOM      9  C   UNL     1      -2.449  -6.780  -5.223  0.00  0.00    +0.077 A 
ATOM     10  C   UNL     1      -3.064  -5.541  -5.302  0.00  0.00    +0.048 A 
ATOM     11  C   UNL     1      -3.055  -4.696  -4.207  0.00  0.00    +0.064 A 
ATOM     12 CL   UNL     1      -3.832  -3.147  -4.301  0.00  0.00    -0.082 Cl
ATOM     13  N   UNL     1      -2.452  -7.652  -6.324  0.00  0.00    -0.280 N 
ATOM     14  C   UNL     1      -2.134  -8.950  -6.130  0.00  0.00    +0.255 C 
ATOM     15  O   UNL     1      -2.100  -9.716  -7.071  0.00  0.00    -0.272 OA
ATOM     16  C   UNL     1      -1.819  -9.444  -4.741  0.00  0.00    +0.325 C 
ATOM     17  O   UNL     1      -1.217  -8.393  -3.982  0.00  0.00    -0.481 OA
ATOM     18  H   UNL     1      -2.680  -7.327  -7.209  0.00  0.00    +0.155 HD
ENDBRANCH   4   6
BRANCH   1  19
ATOM     19  C   UNL     1      -2.596  -2.471   0.193  0.00  0.00    +0.091 C 
BRANCH  19  20
ATOM     20  C   UNL     1      -1.240  -1.772   0.087  0.00  0.00    -0.060 C 
BRANCH  20  21
ATOM     21  N   UNL     1      -1.444  -0.353  -0.233  0.00  0.00    +0.380 N 
ATOM     22  H   UNL     1      -1.995  -0.274  -1.075  0.00  0.00    -0.082 HD
BRANCH  21  24
ATOM     23  C   UNL     1      -2.472   1.748   0.491  0.00  0.00    -0.017 C 
ATOM     24  C   UNL     1      -2.149   0.303   0.876  0.00  0.00    -0.082 C 
ENDBRANCH  21  24
BRANCH  21  25
ATOM     25  C   UNL     1      -0.142   0.296  -0.438  0.00  0.00    -0.082 C 
ATOM     26  C   UNL     1       0.535  -0.300  -1.674  0.00  0.00    -0.017 C 
ENDBRANCH  21  25
ENDBRANCH  20  21
ENDBRANCH  19  20
ENDBRANCH   1  19
BRANCH   1  27
ATOM     27  C   UNL     1      -2.278  -4.457   1.740  0.00  0.00    +0.144 C 
BRANCH  27  28
ATOM     28  C   UNL     1      -3.646  -4.842   2.242  0.00  0.00    -0.029 A 
ATOM     29  C   UNL     1      -4.417  -3.918   2.923  0.00  0.00    +0.007 A 
ATOM     30  C   UNL     1      -5.671  -4.269   3.384  0.00  0.00    +0.022 A 
ATOM     31  C   UNL     1      -6.157  -5.546   3.163  0.00  0.00    +0.059 A 
ATOM     32  C   UNL     1      -5.385  -6.471   2.481  0.00  0.00    +0.060 A 
ATOM     33  C   UNL     1      -4.132  -6.115   2.015  0.00  0.00    +0.026 A 
ATOM     34 CL   UNL     1      -5.993  -8.073   2.203  0.00  0.00    -0.082 Cl
ATOM     35 CL   UNL     1      -7.732  -5.988   3.743  0.00  0.00    -0.082 Cl
ENDBRANCH  27  28
ENDBRANCH   1  27
TORSDOF 8
