REMARK  Name = ZINC01065557
REMARK  5 active torsions:
REMARK  status: ('A' for Active; 'I' for Inactive)
REMARK    1  A    between atoms: C_6  and  C_7
REMARK    2  A    between atoms: C_7  and  C_8
REMARK    3  A    between atoms: C_7  and  C_15
REMARK    4  A    between atoms: C_7  and  O_25
REMARK    5  A    between atoms: N_17  and  N_18
REMARK                            x       y       z     vdW  Elec       q    Type
REMARK                         _______ _______ _______ _____ _____    ______ ____
ROOT
ATOM      1  C   UNL     1      -4.342   6.270   2.582  0.00  0.00    +0.194 C 
ENDROOT
BRANCH   1   7
ATOM      2  C   UNL     1      -4.033   8.753   2.638  0.00  0.00    +0.009 A 
ATOM      3  C   UNL     1      -4.013   9.959   3.313  0.00  0.00    +0.020 A 
ATOM      4  C   UNL     1      -4.264   9.995   4.673  0.00  0.00    +0.041 A 
ATOM      5  C   UNL     1      -4.540   8.823   5.356  0.00  0.00    +0.020 A 
ATOM      6  C   UNL     1      -4.565   7.619   4.679  0.00  0.00    +0.009 A 
ATOM      7  C   UNL     1      -4.314   7.584   3.320  0.00  0.00    -0.003 A 
ATOM      8 CL   UNL     1      -4.232  11.508   5.522  0.00  0.00    -0.084 Cl
ENDBRANCH   1   7
BRANCH   1   9
ATOM      9  C   UNL     1      -4.926   5.205   3.474  0.00  0.00    -0.003 A 
ATOM     10  C   UNL     1      -6.290   5.162   3.697  0.00  0.00    +0.009 A 
ATOM     11  C   UNL     1      -6.827   4.182   4.511  0.00  0.00    +0.020 A 
ATOM     12  C   UNL     1      -5.998   3.252   5.112  0.00  0.00    +0.041 A 
ATOM     13  C   UNL     1      -4.633   3.299   4.893  0.00  0.00    +0.020 A 
ATOM     14  C   UNL     1      -4.098   4.275   4.075  0.00  0.00    +0.009 A 
ATOM     15 CL   UNL     1      -6.671   2.025   6.139  0.00  0.00    -0.084 Cl
ENDBRANCH   1   9
BRANCH   1  16
ATOM     16  C   UNL     1      -5.189   6.407   1.343  0.00  0.00    +0.273 C 
ATOM     17  O   UNL     1      -6.059   7.251   1.293  0.00  0.00    -0.270 OA
ATOM     18  N   UNL     1      -4.979   5.592   0.290  0.00  0.00    -0.204 N 
ATOM     19  H   UNL     1      -4.284   4.917   0.330  0.00  0.00    +0.177 HD
BRANCH  18  20
ATOM     20  N   UNL     1      -5.767   5.719  -0.862  0.00  0.00    -0.189 NA
ATOM     21  C   UNL     1      -5.644   4.877  -1.817  0.00  0.00    +0.037 C 
ATOM     22  C   UNL     1      -6.594   4.894  -2.994  0.00  0.00    +0.052 C 
ATOM     23  C   UNL     1      -7.146   3.479  -3.195  0.00  0.00    +0.006 C 
ATOM     24  C   UNL     1      -5.984   2.496  -3.339  0.00  0.00    +0.001 C 
ATOM     25  C   UNL     1      -5.173   2.462  -2.042  0.00  0.00    +0.006 C 
ATOM     26  C   UNL     1      -4.544   3.838  -1.799  0.00  0.00    +0.052 C 
ENDBRANCH  18  20
ENDBRANCH   1  16
BRANCH   1  27
ATOM     27  O   UNL     1      -3.011   5.903   2.212  0.00  0.00    -0.371 OA
ATOM     28  H   UNL     1      -2.573   6.545   1.636  0.00  0.00    +0.212 HD
ENDBRANCH   1  27
TORSDOF 5
