REMARK  Name = ZINC39665308
REMARK  12 active torsions:
REMARK  status: ('A' for Active; 'I' for Inactive)
REMARK    1  A    between atoms: C_1  and  C_2
REMARK    2  A    between atoms: C_2  and  C_3
REMARK    3  A    between atoms: C_8  and  C_12
REMARK    4  A    between atoms: C_12  and  C_14
REMARK    5  A    between atoms: C_14  and  S_15
REMARK    6  A    between atoms: S_15  and  C_16
REMARK    7  A    between atoms: C_20  and  C_31
REMARK    8  A    between atoms: N_22  and  C_23
REMARK    9  A    between atoms: C_23  and  C_25
REMARK   10  A    between atoms: C_23  and  C_28
REMARK   11  A    between atoms: C_25  and  C_26
REMARK   12  A    between atoms: C_25  and  C_27
REMARK                            x       y       z     vdW  Elec       q    Type
REMARK                         _______ _______ _______ _____ _____    ______ ____
ROOT
ATOM      1  C   UNL     1      -0.562  -2.202  10.546  0.00  0.00    +0.079 C 
ATOM      2  N   UNL     1      -1.319  -3.219   9.780  0.00  0.00    -0.262 NA
ATOM      3  N   UNL     1      -2.689  -2.686   9.718  0.00  0.00    -0.266 NA
ATOM      4  C   UNL     1      -2.474  -1.225   9.547  0.00  0.00    +0.057 C 
ATOM      5  N   UNL     1      -1.297  -0.929  10.398  0.00  0.00    +0.420 N 
ATOM      6  H   UNL     1      -1.300  -4.112  10.248  0.00  0.00    +0.140 HD
ATOM      7  H   UNL     1      -3.192  -3.072   8.932  0.00  0.00    +0.139 HD
ATOM      8  H   UNL     1      -0.710  -0.241   9.950  0.00  0.00    -0.074 HD
ENDROOT
BRANCH   4   9
ATOM      9  C   UNL     1      -3.679  -0.455  10.024  0.00  0.00    -0.009 A 
ATOM     10  C   UNL     1      -4.990  -0.792   9.951  0.00  0.00    +0.011 A 
ATOM     11  C   UNL     1      -5.934   0.080  10.461  0.00  0.00    +0.008 A 
ATOM     12  C   UNL     1      -5.522   1.245  11.017  0.00  0.00    +0.045 A 
ATOM     13  S   UNL     1      -3.749   1.132  10.837  0.00  0.00    -0.102 S 
ENDBRANCH   4   9
BRANCH   1  14
ATOM     14  S   UNL     1       1.113  -2.036   9.870  0.00  0.00    -0.152 S 
BRANCH  14  15
ATOM     15  C   UNL     1       0.843  -1.588   8.133  0.00  0.00    +0.148 C 
BRANCH  15  16
ATOM     16  C   UNL     1       2.173  -1.417   7.445  0.00  0.00    +0.171 C 
ATOM     17  O   UNL     1       3.203  -1.581   8.067  0.00  0.00    -0.291 OA
BRANCH  16  23
ATOM     18  C   UNL     1       3.976  -0.266   2.931  0.00  0.00    -0.024 A 
ATOM     19  C   UNL     1       5.270  -0.367   3.303  0.00  0.00    +0.005 A 
ATOM     20  C   UNL     1       5.642  -0.705   4.614  0.00  0.00    +0.001 A 
ATOM     21  C   UNL     1       4.735  -0.950   5.586  0.00  0.00    +0.010 A 
ATOM     22  C   UNL     1       3.351  -0.872   5.305  0.00  0.00    +0.006 A 
ATOM     23  C   UNL     1       2.221  -1.066   6.079  0.00  0.00    +0.024 C 
ATOM     24  C   UNL     1       1.048  -0.824   5.155  0.00  0.00    +0.152 C 
ATOM     25  N   UNL     1       1.623  -0.491   3.848  0.00  0.00    -0.380 N 
ATOM     26  C   UNL     1       2.923  -0.511   3.931  0.00  0.00    +0.046 A 
ATOM     27  H   UNL     1       1.115  -0.283   3.048  0.00  0.00    +0.160 HD
BRANCH  18  29
ATOM     28  C   UNL     1       3.383   1.609   1.420  0.00  0.00    +0.009 C 
ATOM     29  C   UNL     1       3.614   0.099   1.514  0.00  0.00    +0.034 C 
ENDBRANCH  18  29
ENDBRANCH  16  23
ENDBRANCH  15  16
ENDBRANCH  14  15
ENDBRANCH   1  14
BRANCH   5  30
ATOM     30  C   UNL     1      -1.734  -0.443  11.713  0.00  0.00    +0.056 C 
BRANCH  30  31
ATOM     31  C   UNL     1      -2.564  -1.525  12.407  0.00  0.00    -0.020 C 
ATOM     32  C   UNL     1      -3.911  -1.669  11.694  0.00  0.00    +0.006 C 
ATOM     33  C   UNL     1      -1.814  -2.857  12.352  0.00  0.00    +0.006 C 
ENDBRANCH  30  31
BRANCH  30  34
ATOM     34  C   UNL     1      -0.527  -0.120  12.556  0.00  0.00    +0.343 C 
ATOM     35  O   UNL     1       0.592  -0.363  12.136  0.00  0.00    -0.248 OA
ATOM     36  O   UNL     1      -0.669   0.385  13.656  0.00  0.00    -0.248 OA
ENDBRANCH  30  34
ENDBRANCH   5  30
TORSDOF 9
