REMARK  Name = ZINC42014755
REMARK  4 active torsions:
REMARK  status: ('A' for Active; 'I' for Inactive)
REMARK    1  A    between atoms: C_6  and  N_7
REMARK    2  A    between atoms: C_8  and  C_12
REMARK    3  A    between atoms: C_14  and  N_19
REMARK    4  A    between atoms: C_16  and  N_18
REMARK                            x       y       z     vdW  Elec       q    Type
REMARK                         _______ _______ _______ _____ _____    ______ ____
ROOT
ATOM      1  N   UNL     1      -1.286  -0.620  -0.153  0.00  0.00    -0.193 N 
ATOM      2  C   UNL     1      -1.494  -1.859  -0.685  0.00  0.00    +0.187 A 
ATOM      3  N   UNL     1      -2.650  -2.286  -0.221  0.00  0.00    -0.108 NA
ATOM      4  N   UNL     1      -3.174  -1.409   0.557  0.00  0.00    -0.022 NA
ATOM      5  N   UNL     1      -2.411  -0.376   0.655  0.00  0.00    -0.039 NA
ENDROOT
BRANCH   1  11
ATOM      6  C   UNL     1       0.328   0.392  -1.641  0.00  0.00    +0.029 A 
ATOM      7  C   UNL     1       1.410   1.225  -1.844  0.00  0.00    +0.022 A 
ATOM      8  C   UNL     1       1.982   1.891  -0.774  0.00  0.00    +0.041 A 
ATOM      9  C   UNL     1       1.471   1.725   0.501  0.00  0.00    +0.022 A 
ATOM     10  C   UNL     1       0.389   0.894   0.709  0.00  0.00    +0.029 A 
ATOM     11  C   UNL     1      -0.187   0.224  -0.362  0.00  0.00    +0.070 A 
ATOM     12 CL   UNL     1       3.344   2.937  -1.033  0.00  0.00    -0.084 Cl
ENDBRANCH   1  11
BRANCH   2  13
ATOM     13  C   UNL     1      -0.592  -2.584  -1.607  0.00  0.00    +0.025 A 
ATOM     14  C   UNL     1       0.787  -2.395  -1.529  0.00  0.00    +0.034 A 
ATOM     15  C   UNL     1       1.629  -3.077  -2.395  0.00  0.00    +0.027 A 
ATOM     16  C   UNL     1       1.101  -3.947  -3.339  0.00  0.00    +0.045 A 
ATOM     17  C   UNL     1      -0.273  -4.138  -3.420  0.00  0.00    +0.027 A 
ATOM     18  C   UNL     1      -1.120  -3.463  -2.553  0.00  0.00    +0.034 A 
BRANCH  17  19
ATOM     19  N   UNL     1      -0.801  -5.013  -4.371  0.00  0.00    -0.358 N 
ATOM     20  H   UNL     1      -0.209  -5.488  -4.975  0.00  0.00    +0.142 HD
ATOM     21  H   UNL     1      -1.760  -5.147  -4.428  0.00  0.00    +0.142 HD
ENDBRANCH  17  19
BRANCH  15  22
ATOM     22  N   UNL     1       3.011  -2.887  -2.318  0.00  0.00    -0.358 N 
ATOM     23  H   UNL     1       3.381  -2.279  -1.659  0.00  0.00    +0.142 HD
ATOM     24  H   UNL     1       3.601  -3.363  -2.923  0.00  0.00    +0.142 HD
ENDBRANCH  15  22
ENDBRANCH   2  13
TORSDOF 4
