REMARK  Name = ZINC16058614
REMARK  8 active torsions:
REMARK  status: ('A' for Active; 'I' for Inactive)
REMARK    1  A    between atoms: C_1  and  C_2
REMARK    2  A    between atoms: C_2  and  C_4
REMARK    3  A    between atoms: C_2  and  S_19
REMARK    4  A    between atoms: C_16  and  C_17
REMARK    5  A    between atoms: C_16  and  C_18
REMARK    6  A    between atoms: S_19  and  C_20
REMARK    7  A    between atoms: C_22  and  C_32
REMARK    8  A    between atoms: C_23  and  C_26
REMARK                            x       y       z     vdW  Elec       q    Type
REMARK                         _______ _______ _______ _____ _____    ______ ____
ROOT
ATOM      1  S   UNL     1      -4.001   2.375  -3.032  0.00  0.00    -0.072 S 
ENDROOT
BRANCH   1   2
ATOM      2  C   UNL     1      -3.536   0.978  -4.000  0.00  0.00    +0.211 A 
ATOM      3  N   UNL     1      -4.234   0.675  -5.087  0.00  0.00    -0.218 NA
ATOM      4  C   UNL     1      -3.879  -0.377  -5.821  0.00  0.00    +0.102 A 
ATOM      5  C   UNL     1      -2.772  -1.143  -5.405  0.00  0.00    +0.119 A 
ATOM      6  N   UNL     1      -2.120  -0.787  -4.304  0.00  0.00    -0.145 NA
ATOM      7  N   UNL     1      -2.495   0.242  -3.627  0.00  0.00    -0.122 NA
BRANCH   5   8
ATOM      8  C   UNL     1      -2.341  -2.327  -6.185  0.00  0.00    +0.004 A 
ATOM      9  C   UNL     1      -3.289  -3.133  -6.815  0.00  0.00    +0.010 A 
ATOM     10  C   UNL     1      -2.881  -4.231  -7.545  0.00  0.00    +0.001 A 
ATOM     11  C   UNL     1      -1.537  -4.540  -7.641  0.00  0.00    +0.000 A 
ATOM     12  C   UNL     1      -0.592  -3.749  -7.013  0.00  0.00    +0.001 A 
ATOM     13  C   UNL     1      -0.987  -2.644  -6.286  0.00  0.00    +0.010 A 
ENDBRANCH   5   8
BRANCH   4  14
ATOM     14  C   UNL     1      -4.635  -0.738  -7.043  0.00  0.00    +0.003 A 
ATOM     15  C   UNL     1      -3.969  -1.271  -8.146  0.00  0.00    +0.010 A 
ATOM     16  C   UNL     1      -4.678  -1.610  -9.279  0.00  0.00    +0.001 A 
ATOM     17  C   UNL     1      -6.047  -1.412  -9.327  0.00  0.00    +0.000 A 
ATOM     18  C   UNL     1      -6.713  -0.879  -8.238  0.00  0.00    +0.001 A 
ATOM     19  C   UNL     1      -6.014  -0.541  -7.096  0.00  0.00    +0.010 A 
ENDBRANCH   4  14
ENDBRANCH   1   2
BRANCH   1  21
ATOM     20  C   UNL     1      -2.945   1.010  -0.914  0.00  0.00    +0.029 C 
ATOM     21  C   UNL     1      -2.745   2.288  -1.731  0.00  0.00    +0.137 C 
BRANCH  21  22
ATOM     22  C   UNL     1      -2.874   3.487  -0.828  0.00  0.00    +0.234 C 
ATOM     23  O   UNL     1      -3.972   3.898  -0.518  0.00  0.00    -0.274 OA
ATOM     24  N   UNL     1      -1.769   4.102  -0.363  0.00  0.00    -0.255 N 
ATOM     25  C   UNL     1      -0.487   3.647  -0.708  0.00  0.00    +0.059 A 
ATOM     26  C   UNL     1      -0.255   2.314  -0.994  0.00  0.00    +0.025 A 
ATOM     27  C   UNL     1       1.022   1.893  -1.320  0.00  0.00    +0.002 A 
ATOM     28  C   UNL     1       2.062   2.804  -1.371  0.00  0.00    +0.002 A 
ATOM     29  C   UNL     1       1.836   4.139  -1.094  0.00  0.00    +0.025 A 
ATOM     30  C   UNL     1       0.560   4.569  -0.762  0.00  0.00    +0.055 A 
ATOM     31  N   UNL     1       0.309   5.917  -0.483  0.00  0.00    -0.282 N 
ATOM     32  C   UNL     1      -0.843   6.295   0.103  0.00  0.00    +0.241 C 
ATOM     33  O   UNL     1      -1.059   7.473   0.295  0.00  0.00    -0.273 OA
ATOM     34  C   UNL     1      -1.867   5.272   0.523  0.00  0.00    +0.113 C 
ATOM     35  C   UNL     1      -1.600   4.844   1.968  0.00  0.00    +0.042 C 
ATOM     36  C   UNL     1      -3.268   5.878   0.420  0.00  0.00    +0.042 C 
ATOM     37  H   UNL     1       0.972   6.586  -0.714  0.00  0.00    +0.155 HD
ENDBRANCH  21  22
ENDBRANCH   1  21
TORSDOF 5
