REMARK  Name = ZINC40344081
REMARK  7 active torsions:
REMARK  status: ('A' for Active; 'I' for Inactive)
REMARK    1  A    between atoms: C_1  and  O_2
REMARK    2  A    between atoms: O_2  and  C_3
REMARK    3  A    between atoms: C_6  and  C_9
REMARK    4  A    between atoms: N_17  and  C_27
REMARK    5  A    between atoms: C_18  and  C_20
REMARK    6  A    between atoms: C_23  and  O_26
REMARK    7  A    between atoms: C_27  and  C_28
REMARK                            x       y       z     vdW  Elec       q    Type
REMARK                         _______ _______ _______ _____ _____    ______ ____
ROOT
ATOM      1  C   UNL     1       2.496  -2.495  -4.367  0.00  0.00    +0.099 A 
ATOM      2  C   UNL     1       3.223  -3.689  -4.335  0.00  0.00    +0.035 A 
ATOM      3  C   UNL     1       3.643  -3.909  -5.633  0.00  0.00    +0.126 A 
ATOM      4  N   UNL     1       3.163  -2.864  -6.369  0.00  0.00    -0.272 N 
ATOM      5  H   UNL     1       3.300  -2.745  -7.322  0.00  0.00    +0.189 HD
ATOM      6  N   UNL     1       2.498  -2.064  -5.613  0.00  0.00    -0.173 NA
ATOM      7  C   UNL     1       4.416  -5.156  -5.668  0.00  0.00    +0.266 C 
ATOM      8  O   UNL     1       4.927  -5.628  -6.666  0.00  0.00    -0.268 OA
ATOM      9  N   UNL     1       4.481  -5.701  -4.440  0.00  0.00    -0.283 N 
ATOM     10  C   UNL     1       3.745  -4.835  -3.511  0.00  0.00    +0.141 C 
ENDROOT
BRANCH   1  14
ATOM     11  C   UNL     1       0.606  -0.607  -1.056  0.00  0.00    +0.120 A 
ATOM     12  C   UNL     1       1.173   0.164  -2.062  0.00  0.00    +0.046 A 
ATOM     13  C   UNL     1       1.786  -0.446  -3.136  0.00  0.00    +0.013 A 
ATOM     14  C   UNL     1       1.837  -1.836  -3.211  0.00  0.00    +0.003 A 
ATOM     15  C   UNL     1       1.267  -2.607  -2.200  0.00  0.00    +0.013 A 
ATOM     16  C   UNL     1       0.659  -1.992  -1.125  0.00  0.00    +0.046 A 
BRANCH  11  18
ATOM     17  C   UNL     1      -0.017   1.425   0.010  0.00  0.00    +0.277 C 
ATOM     18  O   UNL     1       0.002  -0.004   0.002  0.00  0.00    -0.495 OA
ENDBRANCH  11  18
ENDBRANCH   1  14
BRANCH  10  19
ATOM     19  C   UNL     1       2.599  -5.593  -2.892  0.00  0.00    -0.022 A 
ATOM     20  C   UNL     1       1.878  -6.495  -3.652  0.00  0.00    +0.009 A 
ATOM     21  C   UNL     1       0.827  -7.191  -3.087  0.00  0.00    +0.046 A 
ATOM     22  C   UNL     1       0.496  -6.985  -1.756  0.00  0.00    +0.117 A 
ATOM     23  C   UNL     1       1.222  -6.080  -0.995  0.00  0.00    +0.046 A 
ATOM     24  C   UNL     1       2.275  -5.390  -1.563  0.00  0.00    +0.009 A 
BRANCH  22  25
ATOM     25  O   UNL     1      -0.538  -7.669  -1.198  0.00  0.00    -0.507 OA
ATOM     26  H   UNL     1      -0.282  -8.512  -0.799  0.00  0.00    +0.292 HD
ENDBRANCH  22  25
ENDBRANCH  10  19
BRANCH   9  27
ATOM     27  C   UNL     1       5.169  -6.947  -4.090  0.00  0.00    +0.140 C 
BRANCH  27  28
ATOM     28  C   UNL     1       6.616  -6.638  -3.701  0.00  0.00    +0.136 C 
ATOM     29  C   UNL     1       7.383  -7.954  -3.447  0.00  0.00    +0.035 C 
ATOM     30  C   UNL     1       8.265  -7.591  -2.223  0.00  0.00    +0.031 C 
ATOM     31  C   UNL     1       7.327  -6.620  -1.462  0.00  0.00    +0.160 C 
ATOM     32  O   UNL     1       6.642  -5.879  -2.487  0.00  0.00    -0.375 OA
ENDBRANCH  27  28
ENDBRANCH   9  27
TORSDOF 6
