REMARK  Name = ZINC13668865
REMARK  14 active torsions:
REMARK  status: ('A' for Active; 'I' for Inactive)
REMARK    1  A    between atoms: C_1  and  C_2
REMARK    2  A    between atoms: C_5  and  S_8
REMARK    3  A    between atoms: S_8  and  N_11
REMARK    4  A    between atoms: N_11  and  C_12
REMARK    5  A    between atoms: N_11  and  C_29
REMARK    6  A    between atoms: C_12  and  C_13
REMARK    7  A    between atoms: N_15  and  C_16
REMARK    8  A    between atoms: C_16  and  C_18
REMARK    9  A    between atoms: C_16  and  C_19
REMARK   10  A    between atoms: C_22  and  C_25
REMARK   11  A    between atoms: C_25  and  C_26
REMARK   12  A    between atoms: C_25  and  C_27
REMARK   13  A    between atoms: C_25  and  C_28
REMARK   14  A    between atoms: C_34  and  C_35
REMARK                            x       y       z     vdW  Elec       q    Type
REMARK                         _______ _______ _______ _____ _____    ______ ____
ROOT
ATOM      1  N   UNL     1      -0.748   3.548   0.068  0.00  0.00    -0.194 N 
ENDROOT
BRANCH   1   2
ATOM      2  C   UNL     1      -0.584   3.925   1.403  0.00  0.00    +0.055 A 
ATOM      3  C   UNL     1       0.647   3.760   2.026  0.00  0.00    +0.026 A 
ATOM      4  C   UNL     1       0.807   4.133   3.346  0.00  0.00    +0.022 A 
ATOM      5  C   UNL     1      -0.257   4.671   4.048  0.00  0.00    +0.041 A 
ATOM      6  C   UNL     1      -1.484   4.836   3.431  0.00  0.00    +0.025 A 
ATOM      7  C   UNL     1      -1.648   4.470   2.109  0.00  0.00    -0.026 A 
ATOM      8  C   UNL     1      -2.983   4.657   1.435  0.00  0.00    +0.046 C 
ATOM      9 CL   UNL     1      -0.052   5.139   5.707  0.00  0.00    -0.084 Cl
ENDBRANCH   1   2
BRANCH   1  10
ATOM     10  S   UNL     1      -0.519   4.658  -1.140  0.00  0.00    +0.075 S 
ATOM     11  O   UNL     1       0.189   5.746  -0.562  0.00  0.00    -0.150 OA
ATOM     12  O   UNL     1      -0.027   3.940  -2.263  0.00  0.00    -0.150 OA
BRANCH  10  17
ATOM     13  C   UNL     1      -5.957   6.763  -2.687  0.00  0.00    +0.044 C 
ATOM     14  C   UNL     1      -4.599   6.238  -2.301  0.00  0.00    -0.050 A 
ATOM     15  C   UNL     1      -3.811   6.945  -1.413  0.00  0.00    +0.005 A 
ATOM     16  C   UNL     1      -2.565   6.463  -1.058  0.00  0.00    +0.029 A 
ATOM     17  C   UNL     1      -2.107   5.273  -1.592  0.00  0.00    +0.109 A 
ATOM     18  C   UNL     1      -2.893   4.567  -2.483  0.00  0.00    +0.029 A 
ATOM     19  C   UNL     1      -4.141   5.048  -2.834  0.00  0.00    +0.005 A 
ENDBRANCH  10  17
ENDBRANCH   1  10
BRANCH   1  20
ATOM     20  C   UNL     1      -1.124   2.172  -0.264  0.00  0.00    +0.227 C 
BRANCH  20  21
ATOM     21  C   UNL     1       0.113   1.314  -0.326  0.00  0.00    +0.233 C 
ATOM     22  O   UNL     1       1.202   1.805  -0.118  0.00  0.00    -0.274 OA
ATOM     23  N   UNL     1       0.010   0.002  -0.617  0.00  0.00    -0.307 N 
ATOM     24  H   UNL     1      -0.861  -0.391  -0.783  0.00  0.00    +0.149 HD
BRANCH  23  25
ATOM     25  C   UNL     1       1.213  -0.831  -0.682  0.00  0.00    +0.100 C 
ATOM     26  C   UNL     1       1.834  -0.721  -2.076  0.00  0.00    +0.033 C 
BRANCH  25  27
ATOM     27  C   UNL     1       0.847  -2.266  -0.408  0.00  0.00    -0.027 A 
ATOM     28  C   UNL     1      -0.322  -2.792  -0.926  0.00  0.00    +0.006 A 
ATOM     29  C   UNL     1      -0.656  -4.111  -0.679  0.00  0.00    +0.004 A 
ATOM     30  C   UNL     1       0.173  -4.900   0.096  0.00  0.00    -0.042 A 
ATOM     31  C   UNL     1       1.339  -4.372   0.619  0.00  0.00    +0.004 A 
ATOM     32  C   UNL     1       1.676  -3.056   0.367  0.00  0.00    +0.006 A 
BRANCH  30  33
ATOM     33  C   UNL     1      -0.194  -6.336   0.370  0.00  0.00    -0.013 C 
ATOM     34  C   UNL     1      -0.337  -6.546   1.879  0.00  0.00    +0.015 C 
ATOM     35  C   UNL     1      -1.519  -6.664  -0.319  0.00  0.00    +0.015 C 
ATOM     36  C   UNL     1       0.904  -7.255  -0.171  0.00  0.00    +0.015 C 
ENDBRANCH  30  33
ENDBRANCH  25  27
ENDBRANCH  23  25
ENDBRANCH  20  21
ENDBRANCH   1  20
TORSDOF 8
