REMARK  Name = ZINC59535223
REMARK  11 active torsions:
REMARK  status: ('A' for Active; 'I' for Inactive)
REMARK    1  A    between atoms: C_1  and  C_2
REMARK    2  A    between atoms: C_3  and  C_30
REMARK    3  A    between atoms: C_4  and  C_23
REMARK    4  A    between atoms: C_10  and  C_11
REMARK    5  A    between atoms: C_14  and  O_18
REMARK    6  A    between atoms: C_15  and  O_17
REMARK    7  A    between atoms: O_18  and  C_19
REMARK    8  A    between atoms: C_30  and  O_32
REMARK    9  A    between atoms: O_32  and  C_33
REMARK   10  A    between atoms: C_33  and  C_34
REMARK   11  A    between atoms: C_33  and  C_35
REMARK                            x       y       z     vdW  Elec       q    Type
REMARK                         _______ _______ _______ _____ _____    ______ ____
ROOT
ATOM      1  C   UNL     1      -0.004   1.336  -1.619  0.00  0.00    +0.066 C 
ATOM      2  C   UNL     1       0.029  -0.157  -1.415  0.00  0.00    +0.053 C 
ATOM      3  C   UNL     1      -1.104  -0.893  -1.617  0.00  0.00    +0.085 C 
ATOM      4  C   UNL     1      -1.029  -2.387  -1.401  0.00  0.00    +0.162 C 
ATOM      5  N   UNL     1       0.286  -2.949  -0.982  0.00  0.00    -0.275 N 
ATOM      6  C   UNL     1       0.550  -4.240  -0.744  0.00  0.00    +0.268 A 
ATOM      7  O   UNL     1      -0.315  -5.089  -0.861  0.00  0.00    -0.266 OA
ATOM      8  C   UNL     1       1.915  -4.601  -0.338  0.00  0.00    +0.081 A 
ATOM      9  C   UNL     1       2.433  -5.822  -0.043  0.00  0.00    +0.028 C 
ATOM     10  S   UNL     1       2.708  -3.001  -0.338  0.00  0.00    -0.046 S 
ATOM     11  C   UNL     1       1.299  -2.030  -0.836  0.00  0.00    +0.178 A 
ATOM     12  N   UNL     1       1.160  -0.745  -1.046  0.00  0.00    -0.228 NA
ENDROOT
BRANCH   4  13
ATOM     13  C   UNL     1      -1.431  -3.062  -2.688  0.00  0.00    -0.020 A 
ATOM     14  C   UNL     1      -0.518  -3.184  -3.718  0.00  0.00    +0.007 A 
ATOM     15  C   UNL     1      -0.886  -3.803  -4.898  0.00  0.00    +0.020 A 
ATOM     16  C   UNL     1      -2.169  -4.299  -5.048  0.00  0.00    +0.041 A 
ATOM     17  C   UNL     1      -3.082  -4.176  -4.016  0.00  0.00    +0.020 A 
ATOM     18  C   UNL     1      -2.711  -3.562  -2.835  0.00  0.00    +0.007 A 
ATOM     19 CL   UNL     1      -2.632  -5.075  -6.530  0.00  0.00    -0.084 Cl
ENDBRANCH   4  13
BRANCH   9  20
ATOM     20  C   UNL     1       1.548  -6.988   0.066  0.00  0.00    -0.020 A 
ATOM     21  C   UNL     1       0.295  -6.865   0.679  0.00  0.00    +0.012 A 
ATOM     22  C   UNL     1      -0.533  -7.961   0.779  0.00  0.00    +0.050 A 
ATOM     23  C   UNL     1      -0.128  -9.190   0.275  0.00  0.00    +0.161 A 
ATOM     24  C   UNL     1       1.118  -9.321  -0.337  0.00  0.00    +0.159 A 
ATOM     25  C   UNL     1       1.952  -8.227  -0.448  0.00  0.00    +0.057 A 
BRANCH  24  26
ATOM     26  O   UNL     1       1.510 -10.527  -0.829  0.00  0.00    -0.503 OA
ATOM     27  H   UNL     1       1.262 -10.675  -1.751  0.00  0.00    +0.292 HD
ENDBRANCH  24  26
BRANCH  23  28
ATOM     28  O   UNL     1      -0.949 -10.267   0.377  0.00  0.00    -0.491 OA
ATOM     29  C   UNL     1      -2.211 -10.063   1.015  0.00  0.00    +0.277 C 
ENDBRANCH  23  28
ENDBRANCH   9  20
BRANCH   3  30
ATOM     30  C   UNL     1      -2.304  -0.280  -2.012  0.00  0.00    +0.339 C 
ATOM     31  O   UNL     1      -2.345   0.926  -2.180  0.00  0.00    -0.245 OA
BRANCH  30  32
ATOM     32  O   UNL     1      -3.413  -1.026  -2.206  0.00  0.00    -0.459 OA
BRANCH  32  33
ATOM     33  C   UNL     1      -4.598  -0.336  -2.607  0.00  0.00    +0.171 C 
ATOM     34  C   UNL     1      -4.657  -0.271  -4.135  0.00  0.00    +0.052 C 
ATOM     35  C   UNL     1      -5.826  -1.082  -2.081  0.00  0.00    +0.052 C 
ENDBRANCH  32  33
ENDBRANCH  30  32
ENDBRANCH   3  30
TORSDOF 7
