REMARK  Name = ZINC15857156
REMARK  7 active torsions:
REMARK  status: ('A' for Active; 'I' for Inactive)
REMARK    1  A    between atoms: C_1  and  C_2
REMARK    2  A    between atoms: C_3  and  N_9
REMARK    3  A    between atoms: C_19  and  S_20
REMARK    4  A    between atoms: S_20  and  C_21
REMARK    5  A    between atoms: C_21  and  C_23
REMARK    6  A    between atoms: C_21  and  C_24
REMARK    7  A    between atoms: N_29  and  C_30
REMARK                            x       y       z     vdW  Elec       q    Type
REMARK                         _______ _______ _______ _____ _____    ______ ____
ROOT
ATOM      1  N   UNL     1      11.639   4.219   1.179  0.00  0.00    -0.255 N 
ATOM      2  C   UNL     1      12.855   4.174   0.588  0.00  0.00    +0.267 A 
ATOM      3  O   UNL     1      13.737   4.952   0.900  0.00  0.00    -0.267 OA
ATOM      4  C   UNL     1      13.072   3.152  -0.445  0.00  0.00    +0.065 A 
ATOM      5  C   UNL     1      14.290   3.025  -1.112  0.00  0.00    +0.015 A 
ATOM      6  C   UNL     1      14.438   2.056  -2.065  0.00  0.00    +0.001 A 
ATOM      7  C   UNL     1      13.390   1.198  -2.375  0.00  0.00    +0.002 A 
ATOM      8  C   UNL     1      12.186   1.301  -1.737  0.00  0.00    +0.028 A 
ATOM      9  C   UNL     1      12.002   2.282  -0.758  0.00  0.00    +0.079 A 
ATOM     10  N   UNL     1      10.828   2.415  -0.098  0.00  0.00    -0.223 NA
ATOM     11  C   UNL     1      10.657   3.338   0.816  0.00  0.00    +0.177 A 
ENDROOT
BRANCH   1  14
ATOM     12  C   UNL     1      10.610   6.748   0.374  0.00  0.00    +0.047 C 
ATOM     13  C   UNL     1      10.880   6.421   1.821  0.00  0.00    -0.008 A 
ATOM     14  C   UNL     1      11.382   5.175   2.170  0.00  0.00    +0.056 A 
ATOM     15  C   UNL     1      11.636   4.880   3.503  0.00  0.00    +0.027 A 
ATOM     16  C   UNL     1      11.382   5.825   4.479  0.00  0.00    +0.003 A 
ATOM     17  C   UNL     1      10.876   7.063   4.130  0.00  0.00    +0.020 A 
ATOM     18  C   UNL     1      10.622   7.360   2.802  0.00  0.00    +0.046 A 
ATOM     19 CL   UNL     1       9.986   8.916   2.368  0.00  0.00    -0.083 Cl
ENDBRANCH   1  14
BRANCH  11  20
ATOM     20  S   UNL     1       9.093   3.444   1.621  0.00  0.00    -0.075 S 
BRANCH  20  21
ATOM     21  C   UNL     1       8.218   2.098   0.785  0.00  0.00    +0.137 C 
ATOM     22  C   UNL     1       8.883   0.764   1.132  0.00  0.00    +0.029 C 
BRANCH  21  23
ATOM     23  C   UNL     1       6.781   2.076   1.238  0.00  0.00    +0.233 C 
ATOM     24  O   UNL     1       6.464   2.617   2.276  0.00  0.00    -0.274 OA
ATOM     25  N   UNL     1       5.848   1.455   0.490  0.00  0.00    -0.239 N 
ATOM     26  C   UNL     1       4.563   1.435   0.895  0.00  0.00    +0.306 C 
ATOM     27  O   UNL     1       4.245   1.978   1.935  0.00  0.00    -0.252 OA
ATOM     28  N   UNL     1       3.630   0.814   0.146  0.00  0.00    -0.296 N 
ATOM     29  H   UNL     1       6.101   1.022  -0.341  0.00  0.00    +0.159 HD
ATOM     30  H   UNL     1       3.883   0.381  -0.684  0.00  0.00    +0.151 HD
BRANCH  28  31
ATOM     31  C   UNL     1       2.232   0.792   0.586  0.00  0.00    +0.074 C 
ATOM     32  C   UNL     1       1.453   1.995  -0.001  0.00  0.00    +0.022 C 
ATOM     33  C   UNL     1      -0.019   1.534   0.011  0.00  0.00    +0.002 C 
ATOM     34  C   UNL     1       0.002  -0.004   0.002  0.00  0.00    +0.002 C 
ATOM     35  C   UNL     1       1.486  -0.425  -0.014  0.00  0.00    +0.022 C 
ENDBRANCH  28  31
ENDBRANCH  21  23
ENDBRANCH  20  21
ENDBRANCH  11  20
TORSDOF 5
