REMARK  Name = ZINC13720246
REMARK  6 active torsions:
REMARK  status: ('A' for Active; 'I' for Inactive)
REMARK    1  A    between atoms: C_1  and  C_2
REMARK    2  A    between atoms: C_10  and  C_12
REMARK    3  A    between atoms: C_16  and  O_18
REMARK    4  A    between atoms: O_18  and  C_19
REMARK    5  A    between atoms: C_23  and  C_25
REMARK    6  A    between atoms: C_23  and  C_26
REMARK                            x       y       z     vdW  Elec       q    Type
REMARK                         _______ _______ _______ _____ _____    ______ ____
ROOT
ATOM      1  C   UNL     1      -0.018   1.503   0.010  0.00  0.00    +0.069 C 
ATOM      2  C   UNL     1       0.002  -0.004   0.002  0.00  0.00    +0.087 A 
ATOM      3  C   UNL     1       0.008  -0.816  -1.130  0.00  0.00    +0.049 A 
ATOM      4  C   UNL     1       0.030  -2.118  -0.716  0.00  0.00    +0.226 A 
ATOM      5  O   UNL     1       0.033  -2.127   0.616  0.00  0.00    -0.339 OA
ATOM      6  N   UNL     1       0.023  -0.778   1.057  0.00  0.00    -0.081 NA
ATOM      7  N   UNL     1       0.048  -3.163  -1.623  0.00  0.00    -0.286 N 
ATOM      8  C   UNL     1       0.343  -2.890  -2.936  0.00  0.00    +0.019 C 
ATOM      9  C   UNL     1       0.340  -1.635  -3.431  0.00  0.00    +0.024 C 
ATOM     10  C   UNL     1      -0.008  -0.431  -2.583  0.00  0.00    +0.091 C 
ATOM     11  C   UNL     1       0.667  -1.389  -4.777  0.00  0.00    +0.162 C 
ATOM     12  O   UNL     1       0.642  -0.247  -5.195  0.00  0.00    -0.292 OA
ATOM     13  C   UNL     1       1.048  -2.503  -5.711  0.00  0.00    +0.086 C 
ATOM     14  C   UNL     1       1.673  -3.642  -4.897  0.00  0.00    -0.023 C 
ATOM     15  C   UNL     1       0.672  -4.070  -3.823  0.00  0.00    +0.058 C 
ATOM     16  C   UNL     1       2.963  -3.155  -4.235  0.00  0.00    +0.011 C 
ATOM     17  C   UNL     1       1.979  -4.825  -5.818  0.00  0.00    +0.011 C 
ATOM     18  H   UNL     1      -0.143  -4.070  -1.336  0.00  0.00    +0.155 HD
ENDROOT
BRANCH  10  19
ATOM     19  C   UNL     1      -1.381   0.066  -2.955  0.00  0.00    -0.032 A 
ATOM     20  C   UNL     1      -2.478  -0.764  -2.812  0.00  0.00    +0.005 A 
ATOM     21  C   UNL     1      -3.739  -0.311  -3.153  0.00  0.00    +0.004 A 
ATOM     22  C   UNL     1      -3.906   0.972  -3.638  0.00  0.00    +0.045 A 
ATOM     23  C   UNL     1      -2.807   1.806  -3.783  0.00  0.00    +0.120 A 
ATOM     24  C   UNL     1      -1.543   1.351  -3.434  0.00  0.00    +0.050 A 
BRANCH  23  25
ATOM     25  O   UNL     1      -2.969   3.068  -4.260  0.00  0.00    -0.495 OA
ATOM     26  C   UNL     1      -4.299   3.470  -4.593  0.00  0.00    +0.277 C 
ENDBRANCH  23  25
ENDBRANCH  10  19
TORSDOF 2
