REMARK  Name = ZINC00734330
REMARK  11 active torsions:
REMARK  status: ('A' for Active; 'I' for Inactive)
REMARK    1  A    between atoms: C_1  and  C_2
REMARK    2  A    between atoms: C_2  and  C_3
REMARK    3  A    between atoms: C_3  and  N_4
REMARK    4  A    between atoms: N_4  and  C_5
REMARK    5  A    between atoms: C_5  and  C_7
REMARK    6  A    between atoms: C_5  and  C_8
REMARK    7  A    between atoms: N_18  and  C_19
REMARK    8  A    between atoms: C_19  and  C_20
REMARK    9  A    between atoms: C_22  and  C_24
REMARK   10  A    between atoms: C_27  and  C_33
REMARK   11  A    between atoms: C_28  and  N_30
REMARK                            x       y       z     vdW  Elec       q    Type
REMARK                         _______ _______ _______ _____ _____    ______ ____
ROOT
ATOM      1  N   UNL     1      -0.315   0.493   1.170  0.00  0.00    -0.288 N 
ATOM      2  C   UNL     1      -0.864   0.177   2.360  0.00  0.00    +0.247 C 
ATOM      3  O   UNL     1      -1.850   0.770   2.751  0.00  0.00    -0.270 OA
ENDROOT
BRANCH   2   4
ATOM      4  C   UNL     1      -0.266  -0.891   3.189  0.00  0.00    +0.039 A 
ATOM      5  C   UNL     1       1.121  -1.028   3.262  0.00  0.00    +0.013 A 
ATOM      6  C   UNL     1       1.673  -2.023   4.042  0.00  0.00    +0.006 A 
ATOM      7  C   UNL     1       0.854  -2.891   4.743  0.00  0.00    -0.020 A 
ATOM      8  C   UNL     1      -0.522  -2.764   4.670  0.00  0.00    +0.130 A 
ATOM      9  C   UNL     1      -1.086  -1.770   3.898  0.00  0.00    +0.046 A 
ATOM     10  C   UNL     1       1.463  -3.980   5.588  0.00  0.00    +0.046 C 
BRANCH   8  11
ATOM     11  N   UNL     1      -1.390  -3.697   5.423  0.00  0.00    +0.057 N 
ATOM     12  O   UNL     1      -2.601  -3.583   5.364  0.00  0.00    -0.126 OA
ATOM     13  O   UNL     1      -0.893  -4.578   6.101  0.00  0.00    -0.126 OA
ENDBRANCH   8  11
ENDBRANCH   2   4
BRANCH   1  14
ATOM     14  C   UNL     1      -0.874   1.589   0.374  0.00  0.00    +0.139 C 
ATOM     15  C   UNL     1       0.198   2.659   0.155  0.00  0.00    +0.036 C 
BRANCH  14  16
ATOM     16  C   UNL     1      -1.332   1.058  -0.960  0.00  0.00    +0.133 A 
ATOM     17  N   UNL     1      -0.434   0.631  -1.795  0.00  0.00    -0.232 NA
ATOM     18  C   UNL     1      -0.772   0.140  -3.013  0.00  0.00    +0.080 A 
ATOM     19  C   UNL     1       0.192  -0.318  -3.913  0.00  0.00    +0.048 A 
ATOM     20  C   UNL     1      -0.202  -0.809  -5.139  0.00  0.00    +0.043 A 
ATOM     21  C   UNL     1      -1.546  -0.852  -5.490  0.00  0.00    +0.021 A 
ATOM     22  C   UNL     1      -2.507  -0.408  -4.625  0.00  0.00    +0.017 A 
ATOM     23  C   UNL     1      -2.136   0.092  -3.379  0.00  0.00    +0.065 A 
ATOM     24  C   UNL     1      -3.127   0.582  -2.410  0.00  0.00    +0.262 A 
ATOM     25  O   UNL     1      -4.318   0.569  -2.662  0.00  0.00    -0.267 OA
ATOM     26  N   UNL     1      -2.664   1.044  -1.225  0.00  0.00    -0.295 N 
ATOM     27 CL   UNL     1       0.996  -1.380  -6.260  0.00  0.00    -0.083 Cl
BRANCH  26  28
ATOM     28  C   UNL     1      -3.609   1.539  -0.221  0.00  0.00    +0.123 C 
ATOM     29  C   UNL     1      -3.788   3.049  -0.390  0.00  0.00    +0.027 C 
ENDBRANCH  26  28
ENDBRANCH  14  16
ENDBRANCH   1  14
BRANCH   1  30
ATOM     30  C   UNL     1       0.840  -0.259   0.673  0.00  0.00    +0.108 C 
BRANCH  30  32
ATOM     31  C   UNL     1       3.335  -0.308   0.553  0.00  0.00    +0.005 C 
ATOM     32  C   UNL     1       2.119   0.540   0.932  0.00  0.00    +0.016 C 
ENDBRANCH  30  32
ENDBRANCH   1  30
TORSDOF 7
