REMARK  Name = ZINC16992844
REMARK  8 active torsions:
REMARK  status: ('A' for Active; 'I' for Inactive)
REMARK    1  A    between atoms: C_1  and  C_2
REMARK    2  A    between atoms: C_4  and  C_27
REMARK    3  A    between atoms: C_6  and  C_19
REMARK    4  A    between atoms: N_9  and  C_11
REMARK    5  A    between atoms: C_22  and  O_25
REMARK    6  A    between atoms: O_25  and  C_26
REMARK    7  A    between atoms: N_29  and  C_30
REMARK    8  A    between atoms: C_36  and  C_38
REMARK                            x       y       z     vdW  Elec       q    Type
REMARK                         _______ _______ _______ _____ _____    ______ ____
ROOT
ATOM      1  C   UNL     1       4.224   2.616   0.248  0.00  0.00    +0.068 C 
ATOM      2  C   UNL     1       3.680   4.021   0.213  0.00  0.00    +0.070 A 
ATOM      3  C   UNL     1       2.318   4.378   0.291  0.00  0.00    +0.054 A 
ATOM      4  C   UNL     1       1.119   3.639   0.414  0.00  0.00    +0.051 A 
ATOM      5  C   UNL     1      -0.079   4.342   0.458  0.00  0.00    +0.042 A 
ATOM      6  C   UNL     1      -0.055   5.739   0.389  0.00  0.00    +0.074 A 
ATOM      7  N   UNL     1       1.083   6.404   0.274  0.00  0.00    -0.228 NA
ATOM      8  C   UNL     1       2.253   5.785   0.224  0.00  0.00    +0.160 A 
ATOM      9  N   UNL     1       3.546   6.226   0.109  0.00  0.00    -0.241 N 
ATOM     10  N   UNL     1       4.390   5.109   0.107  0.00  0.00    -0.174 NA
ENDROOT
BRANCH   9  11
ATOM     11  C   UNL     1       3.971   7.624   0.007  0.00  0.00    +0.132 C 
ATOM     12  C   UNL     1       4.753   7.835  -1.300  0.00  0.00    +0.051 C 
ATOM     13  C   UNL     1       5.473   9.204  -1.269  0.00  0.00    +0.168 C 
ATOM     14  S   UNL     1       5.752   9.473   0.528  0.00  0.00    -0.029 S 
ATOM     15  O   UNL     1       5.034  10.628   0.940  0.00  0.00    -0.174 OA
ATOM     16  O   UNL     1       7.144   9.382   0.800  0.00  0.00    -0.174 OA
ATOM     17  C   UNL     1       4.912   7.975   1.195  0.00  0.00    +0.192 C 
ENDBRANCH   9  11
BRANCH   6  18
ATOM     18  C   UNL     1      -1.332   6.490   0.441  0.00  0.00    +0.001 A 
ATOM     19  C   UNL     1      -2.541   5.805   0.555  0.00  0.00    +0.013 A 
ATOM     20  C   UNL     1      -3.727   6.507   0.609  0.00  0.00    +0.046 A 
ATOM     21  C   UNL     1      -3.718   7.894   0.537  0.00  0.00    +0.120 A 
ATOM     22  C   UNL     1      -2.516   8.578   0.417  0.00  0.00    +0.046 A 
ATOM     23  C   UNL     1      -1.326   7.883   0.369  0.00  0.00    +0.013 A 
BRANCH  21  24
ATOM     24  O   UNL     1      -4.888   8.582   0.585  0.00  0.00    -0.495 OA
ATOM     25  C   UNL     1      -6.087   7.815   0.709  0.00  0.00    +0.277 C 
ENDBRANCH  21  24
ENDBRANCH   6  18
BRANCH   4  26
ATOM     26  C   UNL     1       1.138   2.162   0.488  0.00  0.00    +0.245 C 
ATOM     27  O   UNL     1       2.179   1.558   0.319  0.00  0.00    -0.270 OA
ATOM     28  N   UNL     1       0.001   1.485   0.745  0.00  0.00    -0.308 N 
ATOM     29  H   UNL     1      -0.831   1.966   0.876  0.00  0.00    +0.149 HD
BRANCH  28  30
ATOM     30  C   UNL     1       0.021   0.022   0.818  0.00  0.00    +0.076 C 
ATOM     31  C   UNL     1      -0.122  -0.562  -0.589  0.00  0.00    +0.022 C 
ATOM     32  C   UNL     1      -0.102  -2.090  -0.513  0.00  0.00    +0.002 C 
ATOM     33  C   UNL     1      -1.263  -2.572   0.360  0.00  0.00    +0.000 C 
ATOM     34  C   UNL     1      -1.120  -1.989   1.767  0.00  0.00    +0.005 C 
ATOM     35  C   UNL     1      -1.140  -0.461   1.690  0.00  0.00    +0.006 C 
ATOM     36  C   UNL     1      -0.997   0.122   3.098  0.00  0.00    +0.009 C 
ENDBRANCH  28  30
ENDBRANCH   4  26
TORSDOF 5
