REMARK  Name = ZINC41003155
REMARK  19 active torsions:
REMARK  status: ('A' for Active; 'I' for Inactive)
REMARK    1  A    between atoms: C_1  and  C_2
REMARK    2  A    between atoms: C_2  and  N_3
REMARK    3  A    between atoms: N_3  and  C_4
REMARK    4  A    between atoms: C_4  and  C_5
REMARK    5  A    between atoms: C_6  and  C_8
REMARK    6  A    between atoms: C_8  and  O_9
REMARK    7  A    between atoms: O_9  and  C_10
REMARK    8  A    between atoms: C_13  and  C_18
REMARK    9  A    between atoms: C_15  and  O_16
REMARK   10  A    between atoms: O_16  and  C_17
REMARK   11  A    between atoms: C_20  and  C_32
REMARK   12  A    between atoms: C_21  and  C_31
REMARK   13  A    between atoms: C_26  and  S_28
REMARK   14  A    between atoms: S_28  and  C_29
REMARK   15  A    between atoms: C_29  and  C_30
REMARK   16  A    between atoms: C_32  and  O_34
REMARK   17  A    between atoms: O_34  and  C_35
REMARK   18  A    between atoms: C_35  and  C_36
REMARK   19  A    between atoms: C_35  and  C_37
REMARK                            x       y       z     vdW  Elec       q    Type
REMARK                         _______ _______ _______ _____ _____    ______ ____
ROOT
ATOM      1  C   UNL     1      -7.480  -0.121  -4.387  0.00  0.00    +0.179 C 
ATOM      2  C   UNL     1      -8.124  -1.020  -3.366  0.00  0.00    +0.082 C 
ATOM      3  C   UNL     1      -8.868  -0.557  -2.349  0.00  0.00    +0.020 C 
ATOM      4  N   UNL     1      -9.108   0.782  -2.168  0.00  0.00    -0.287 N 
ATOM      5  C   UNL     1      -8.783   1.636  -3.213  0.00  0.00    +0.219 A 
ATOM      6  N   UNL     1      -8.026   1.228  -4.261  0.00  0.00    -0.220 N 
ATOM      7  N   UNL     1      -7.904   2.322  -5.116  0.00  0.00    -0.141 NA
ATOM      8  C   UNL     1      -8.569   3.313  -4.560  0.00  0.00    +0.210 A 
ATOM      9  N   UNL     1      -9.098   2.889  -3.404  0.00  0.00    -0.187 NA
ATOM     10  C   UNL     1      -9.460  -1.541  -1.373  0.00  0.00    +0.061 C 
ATOM     11  H   UNL     1      -9.491   1.119  -1.343  0.00  0.00    +0.155 HD
ENDROOT
BRANCH   1  15
ATOM     12  C   UNL     1      -3.256  -0.015  -3.725  0.00  0.00    +0.163 A 
ATOM     13  C   UNL     1      -4.127   0.404  -2.732  0.00  0.00    +0.050 A 
ATOM     14  C   UNL     1      -5.492   0.368  -2.949  0.00  0.00    +0.010 A 
ATOM     15  C   UNL     1      -5.991  -0.084  -4.156  0.00  0.00    -0.015 A 
ATOM     16  C   UNL     1      -5.128  -0.503  -5.151  0.00  0.00    +0.055 A 
ATOM     17  C   UNL     1      -3.759  -0.464  -4.943  0.00  0.00    +0.162 A 
BRANCH  17  18
ATOM     18  O   UNL     1      -2.909  -0.871  -5.923  0.00  0.00    -0.491 OA
ATOM     19  C   UNL     1      -3.495  -1.320  -7.146  0.00  0.00    +0.277 C 
ENDBRANCH  17  18
BRANCH  12  20
ATOM     20  O   UNL     1      -1.913   0.020  -3.514  0.00  0.00    -0.479 OA
BRANCH  20  21
ATOM     21  C   UNL     1      -1.469   0.493  -2.241  0.00  0.00    +0.324 C 
BRANCH  21  23
ATOM     22  N   UNL     1       0.682   0.865  -1.078  0.00  0.00    -0.299 N 
ATOM     23  C   UNL     1       0.037   0.460  -2.190  0.00  0.00    +0.253 C 
ATOM     24  O   UNL     1       0.667   0.070  -3.150  0.00  0.00    -0.272 OA
BRANCH  22  26
ATOM     25  C   UNL     1      -0.298   2.846  -0.033  0.00  0.00    +0.024 C 
ATOM     26  C   UNL     1      -0.079   1.336   0.081  0.00  0.00    +0.104 C 
ENDBRANCH  22  26
BRANCH  22  27
ATOM     27  C   UNL     1       2.146   0.833  -1.029  0.00  0.00    +0.104 C 
ATOM     28  C   UNL     1       2.609  -0.525  -0.495  0.00  0.00    +0.024 C 
ENDBRANCH  22  27
ENDBRANCH  21  23
ENDBRANCH  20  21
ENDBRANCH  12  20
ENDBRANCH   1  15
BRANCH   2  29
ATOM     29  C   UNL     1      -7.938  -2.415  -3.483  0.00  0.00    +0.339 C 
ATOM     30  O   UNL     1      -8.529  -3.037  -4.346  0.00  0.00    -0.245 OA
BRANCH  29  31
ATOM     31  O   UNL     1      -7.104  -3.058  -2.639  0.00  0.00    -0.459 OA
BRANCH  31  32
ATOM     32  C   UNL     1      -6.964  -4.469  -2.815  0.00  0.00    +0.171 C 
ATOM     33  C   UNL     1      -5.817  -4.749  -3.789  0.00  0.00    +0.052 C 
ATOM     34  C   UNL     1      -6.658  -5.124  -1.466  0.00  0.00    +0.052 C 
ENDBRANCH  31  32
ENDBRANCH  29  31
ENDBRANCH   2  29
BRANCH   8  35
ATOM     35  S   UNL     1      -8.735   4.935  -5.228  0.00  0.00    -0.085 S 
BRANCH  35  36
ATOM     36  C   UNL     1      -9.749   5.811  -4.005  0.00  0.00    +0.074 C 
ATOM     37  C   UNL     1      -9.974   7.252  -4.467  0.00  0.00    +0.016 C 
ENDBRANCH  35  36
ENDBRANCH   8  35
TORSDOF 12
