REMARK  Name = ZINC41541491
REMARK  2 active torsions:
REMARK  status: ('A' for Active; 'I' for Inactive)
REMARK    1  A    between atoms: C_6  and  C_7
REMARK    2  A    between atoms: C_14  and  C_15
REMARK                            x       y       z     vdW  Elec       q    Type
REMARK                         _______ _______ _______ _____ _____    ______ ____
ROOT
ATOM      1  C   UNL     1      -1.266  -0.762   0.009  0.00  0.00    +0.010 A 
ATOM      2  C   UNL     1      -2.137  -0.687   1.123  0.00  0.00    -0.019 A 
ATOM      3  C   UNL     1      -3.295  -1.376   1.114  0.00  0.00    +0.023 A 
ATOM      4  N   UNL     1      -3.629  -2.161   0.046  0.00  0.00    -0.325 N 
ATOM      5  H   UNL     1      -4.464  -2.655   0.070  0.00  0.00    +0.169 HD
ATOM      6  C   UNL     1      -2.843  -2.273  -1.035  0.00  0.00    +0.267 A 
ATOM      7  O   UNL     1      -3.181  -2.982  -1.968  0.00  0.00    -0.266 OA
ATOM      8  C   UNL     1      -1.621  -1.559  -1.090  0.00  0.00    +0.124 A 
ATOM      9  C   UNL     1      -4.282  -1.320   2.254  0.00  0.00    +0.053 C 
ATOM     10  C   UNL     1      -3.615  -0.797   3.523  0.00  0.00    +0.006 C 
ATOM     11  C   UNL     1      -2.890   0.510   3.180  0.00  0.00    +0.005 C 
ATOM     12  C   UNL     1      -1.703   0.175   2.280  0.00  0.00    +0.037 C 
ENDROOT
BRANCH   1  18
ATOM     13  C   UNL     1      -0.017   1.392   0.010  0.00  0.00    +0.012 A 
ATOM     14  C   UNL     1       1.167   2.097   0.002  0.00  0.00    +0.050 A 
ATOM     15  C   UNL     1       2.383   1.423  -0.012  0.00  0.00    +0.162 A 
ATOM     16  C   UNL     1       2.408   0.031  -0.017  0.00  0.00    +0.163 A 
ATOM     17  C   UNL     1       1.223  -0.682  -0.012  0.00  0.00    +0.058 A 
ATOM     18  C   UNL     1       0.002  -0.004   0.002  0.00  0.00    -0.012 A 
ATOM     19  O   UNL     1       3.591  -0.644  -0.023  0.00  0.00    -0.485 OA
ATOM     20  C   UNL     1       4.754   0.100  -0.403  0.00  0.00    +0.270 C 
ATOM     21  C   UNL     1       4.733   1.440   0.344  0.00  0.00    +0.270 C 
ATOM     22  O   UNL     1       3.539   2.139  -0.022  0.00  0.00    -0.485 OA
ENDBRANCH   1  18
BRANCH   8  23
ATOM     23  C   UNL     1      -0.766  -1.651  -2.236  0.00  0.00    +0.105 C 
ATOM     24  N   UNL     1      -0.089  -1.725  -3.145  0.00  0.00    -0.191 NA
ENDBRANCH   8  23
TORSDOF 2
