REMARK  Name = ZINC43528134
REMARK  9 active torsions:
REMARK  status: ('A' for Active; 'I' for Inactive)
REMARK    1  A    between atoms: C_1  and  C_2
REMARK    2  A    between atoms: C_2  and  C_3
REMARK    3  A    between atoms: C_3  and  S_4
REMARK    4  A    between atoms: S_4  and  N_7
REMARK    5  A    between atoms: N_7  and  C_8
REMARK    6  A    between atoms: C_8  and  C_9
REMARK    7  A    between atoms: C_18  and  C_20
REMARK    8  A    between atoms: C_22  and  C_27
REMARK    9  A    between atoms: C_24  and  C_26
REMARK                            x       y       z     vdW  Elec       q    Type
REMARK                         _______ _______ _______ _____ _____    ______ ____
ROOT
ATOM      1  C   UNL     1      -5.150  -3.295  -1.043  0.00  0.00    -0.053 C 
ATOM      2  C   UNL     1      -5.994  -3.044  -2.295  0.00  0.00    -0.010 C 
ATOM      3  C   UNL     1      -6.201  -4.376  -3.028  0.00  0.00    -0.007 C 
ATOM      4  C   UNL     1      -4.825  -4.936  -3.409  0.00  0.00    -0.015 C 
ATOM      5  C   UNL     1      -3.997  -5.123  -2.136  0.00  0.00    -0.078 C 
ATOM      6  N   UNL     1      -4.811  -4.717  -0.947  0.00  0.00    +0.383 N 
ATOM      7  C   UNL     1      -6.024  -5.530  -0.829  0.00  0.00    -0.068 C 
ATOM      8  C   UNL     1      -6.896  -5.352  -2.071  0.00  0.00    +0.024 C 
ATOM      9  H   UNL     1      -4.258  -4.857  -0.114  0.00  0.00    -0.081 HD
ENDROOT
BRANCH   8  10
ATOM     10  C   UNL     1      -7.079  -6.684  -2.752  0.00  0.00    +0.047 A 
ATOM     11  C   UNL     1      -6.062  -7.621  -2.742  0.00  0.00    +0.052 A 
ATOM     12  C   UNL     1      -6.279  -8.841  -3.388  0.00  0.00    +0.076 A 
ATOM     13  N   UNL     1      -7.451  -9.054  -3.985  0.00  0.00    -0.232 NA
ATOM     14  C   UNL     1      -8.390  -8.132  -3.968  0.00  0.00    +0.127 A 
ATOM     15  N   UNL     1      -8.218  -6.973  -3.364  0.00  0.00    -0.237 NA
ATOM     16  C   UNL     1      -9.702  -8.411  -4.656  0.00  0.00    +0.088 C 
BRANCH  12  17
ATOM     17  C   UNL     1      -5.223  -9.882  -3.408  0.00  0.00    +0.014 A 
ATOM     18  C   UNL     1      -4.002  -9.652  -2.776  0.00  0.00    +0.011 A 
ATOM     19  C   UNL     1      -3.023 -10.624  -2.798  0.00  0.00    +0.001 A 
ATOM     20  C   UNL     1      -3.251 -11.826  -3.446  0.00  0.00    +0.001 A 
ATOM     21  C   UNL     1      -4.460 -12.060  -4.076  0.00  0.00    +0.016 A 
ATOM     22  C   UNL     1      -5.450 -11.097  -4.055  0.00  0.00    +0.027 A 
ATOM     23 BR   UNL     1      -7.105 -11.421  -4.909  0.00  0.00    -0.050 Br
ENDBRANCH  12  17
ENDBRANCH   8  10
BRANCH   1  24
ATOM     24  C   UNL     1      -3.864  -2.470  -1.124  0.00  0.00    +0.090 C 
BRANCH  24  25
ATOM     25  N   UNL     1      -3.003  -2.795   0.016  0.00  0.00    -0.196 NA
ATOM     26  H   UNL     1      -3.367  -3.272   0.778  0.00  0.00    +0.148 HD
BRANCH  25  27
ATOM     27  S   UNL     1      -1.409  -2.348   0.003  0.00  0.00    +0.029 S 
ATOM     28  O   UNL     1      -0.909  -2.823  -1.239  0.00  0.00    -0.158 OA
ATOM     29  O   UNL     1      -0.885  -2.837   1.230  0.00  0.00    -0.158 OA
BRANCH  27  30
ATOM     30  C   UNL     1      -1.433  -0.534   0.013  0.00  0.00    +0.185 C 
BRANCH  30  32
ATOM     31  C   UNL     1      -0.019   1.526   0.010  0.00  0.00    +0.005 C 
ATOM     32  C   UNL     1       0.002  -0.004   0.002  0.00  0.00    +0.021 C 
ENDBRANCH  30  32
ENDBRANCH  27  30
ENDBRANCH  25  27
ENDBRANCH  24  25
ENDBRANCH   1  24
TORSDOF 7
