REMARK  Name = ZINC22296496
REMARK  7 active torsions:
REMARK  status: ('A' for Active; 'I' for Inactive)
REMARK    1  A    between atoms: C_1  and  C_2
REMARK    2  A    between atoms: C_4  and  C_14
REMARK    3  A    between atoms: C_6  and  C_11
REMARK    4  A    between atoms: C_19  and  C_22
REMARK    5  A    between atoms: C_22  and  N_23
REMARK    6  A    between atoms: C_25  and  C_32
REMARK    7  A    between atoms: C_28  and  C_31
REMARK                            x       y       z     vdW  Elec       q    Type
REMARK                         _______ _______ _______ _____ _____    ______ ____
ROOT
ATOM      1  C   UNL     1      -4.854  -1.609  -0.430  0.00  0.00    +0.251 C 
ATOM      2  O   UNL     1      -5.819  -2.065  -1.010  0.00  0.00    -0.270 OA
ATOM      3  N   UNL     1      -4.765  -1.708   0.911  0.00  0.00    -0.261 N 
ATOM      4  C   UNL     1      -5.776  -2.332   1.630  0.00  0.00    +0.165 A 
ATOM      5  N   UNL     1      -5.867  -2.531   2.931  0.00  0.00    -0.231 NA
ATOM      6  C   UNL     1      -6.909  -3.145   3.457  0.00  0.00    +0.034 A 
ATOM      7  C   UNL     1      -7.888  -3.582   2.627  0.00  0.00    +0.070 A 
ATOM      8  S   UNL     1      -7.241  -3.059   1.046  0.00  0.00    -0.060 S 
ATOM      9  H   UNL     1      -3.891  -1.295   1.437  0.00  0.00    +0.157 HD
ENDROOT
BRANCH   1  13
ATOM     10  C   UNL     1      -5.911  -2.318  -3.367  0.00  0.00    +0.070 C 
ATOM     11  C   UNL     1      -4.651  -1.532  -3.620  0.00  0.00    +0.091 A 
ATOM     12  C   UNL     1      -3.768  -0.961  -2.604  0.00  0.00    +0.076 A 
ATOM     13  C   UNL     1      -3.777  -0.944  -1.195  0.00  0.00    +0.053 A 
ATOM     14  C   UNL     1      -2.736  -0.279  -0.546  0.00  0.00    +0.037 A 
ATOM     15  C   UNL     1      -1.747   0.330  -1.302  0.00  0.00    +0.049 A 
ATOM     16  N   UNL     1      -1.768   0.302  -2.618  0.00  0.00    -0.215 NA
ATOM     17  C   UNL     1      -2.725  -0.317  -3.292  0.00  0.00    +0.259 A 
ATOM     18  O   UNL     1      -2.962  -0.487  -4.609  0.00  0.00    -0.334 OA
ATOM     19  N   UNL     1      -4.149  -1.235  -4.780  0.00  0.00    -0.080 NA
BRANCH  15  20
ATOM     20  C   UNL     1      -0.623   1.048  -0.601  0.00  0.00    +0.038 C 
ATOM     21  C   UNL     1       0.576   0.212  -0.148  0.00  0.00    +0.010 C 
ATOM     22  C   UNL     1      -0.414   0.752   0.886  0.00  0.00    +0.010 C 
ENDBRANCH  15  20
ENDBRANCH   1  13
BRANCH   6  23
ATOM     23  C   UNL     1      -7.006  -3.361   4.945  0.00  0.00    -0.022 C 
BRANCH  23  24
ATOM     24  N   UNL     1      -6.279  -4.584   5.311  0.00  0.00    +0.384 N 
ATOM     25  C   UNL     1      -6.925  -5.771   4.737  0.00  0.00    -0.075 C 
ATOM     26  C   UNL     1      -6.064  -7.006   5.014  0.00  0.00    -0.031 C 
ATOM     27  C   UNL     1      -5.895  -7.175   6.527  0.00  0.00    +0.003 C 
ATOM     28  C   UNL     1      -5.265  -5.905   7.107  0.00  0.00    -0.031 C 
ATOM     29  C   UNL     1      -6.148  -4.702   6.768  0.00  0.00    -0.075 C 
ATOM     30  C   UNL     1      -3.874  -5.704   6.502  0.00  0.00    +0.005 C 
ATOM     31  C   UNL     1      -6.749  -8.246   4.436  0.00  0.00    +0.005 C 
ATOM     32  H   UNL     1      -5.266  -4.516   4.887  0.00  0.00    -0.081 HD
ENDBRANCH  23  24
ENDBRANCH   6  23
TORSDOF 4
