REMARK  Name = ZINC08386347
REMARK  8 active torsions:
REMARK  status: ('A' for Active; 'I' for Inactive)
REMARK    1  A    between atoms: C_1  and  C_2
REMARK    2  A    between atoms: C_5  and  C_8
REMARK    3  A    between atoms: N_10  and  C_11
REMARK    4  A    between atoms: C_11  and  C_27
REMARK    5  A    between atoms: C_12  and  C_13
REMARK    6  A    between atoms: C_16  and  C_18
REMARK    7  A    between atoms: C_21  and  N_24
REMARK    8  A    between atoms: N_29  and  C_30
REMARK                            x       y       z     vdW  Elec       q    Type
REMARK                         _______ _______ _______ _____ _____    ______ ____
ROOT
ATOM      1  C   UNL     1      -5.162   1.194   0.130  0.00  0.00    +0.100 C 
ATOM      2  C   UNL     1      -4.602   2.456   0.368  0.00  0.00    +0.074 C 
ENDROOT
BRANCH   2   3
ATOM      3  C   UNL     1      -3.225   2.601   0.445  0.00  0.00    +0.131 A 
ATOM      4  C   UNL     1      -2.497   3.822   0.824  0.00  0.00    +0.050 A 
ATOM      5  C   UNL     1      -1.177   3.513   0.765  0.00  0.00    +0.050 A 
ATOM      6  C   UNL     1      -1.073   2.156   0.367  0.00  0.00    +0.136 A 
ATOM      7  O   UNL     1      -2.304   1.649   0.181  0.00  0.00    -0.455 OA
BRANCH   6   8
ATOM      8  C   UNL     1       0.140   1.447   0.187  0.00  0.00    +0.017 A 
ATOM      9  C   UNL     1       1.376   2.111   0.313  0.00  0.00    +0.014 A 
ATOM     10  C   UNL     1       2.539   1.418   0.132  0.00  0.00    +0.033 A 
ATOM     11  C   UNL     1       2.507   0.065  -0.175  0.00  0.00    +0.126 A 
ATOM     12  C   UNL     1       1.295  -0.599  -0.301  0.00  0.00    +0.033 A 
ATOM     13  C   UNL     1       0.119   0.073  -0.125  0.00  0.00    +0.014 A 
BRANCH  11  14
ATOM     14  N   UNL     1       3.774  -0.674  -0.369  0.00  0.00    +0.056 N 
ATOM     15  O   UNL     1       3.749  -1.959  -0.661  0.00  0.00    -0.126 OA
ATOM     16  O   UNL     1       4.927  -0.049  -0.251  0.00  0.00    -0.126 OA
ENDBRANCH  11  14
ENDBRANCH   6   8
ENDBRANCH   2   3
BRANCH   1  19
ATOM     17  C   UNL     1      -7.047  -0.148  -0.201  0.00  0.00    +0.248 C 
ATOM     18  O   UNL     1      -6.378  -1.141   0.004  0.00  0.00    -0.270 OA
ATOM     19  N   UNL     1      -6.488   1.074  -0.097  0.00  0.00    -0.277 N 
ATOM     20  H   UNL     1      -7.039   1.868  -0.185  0.00  0.00    +0.155 HD
BRANCH  17  25
ATOM     21  C   UNL     1     -12.601  -0.662  -1.612  0.00  0.00    +0.044 C 
ATOM     22  C   UNL     1     -11.146  -0.528  -1.242  0.00  0.00    -0.050 A 
ATOM     23  C   UNL     1     -10.387  -1.661  -1.010  0.00  0.00    +0.004 A 
ATOM     24  C   UNL     1      -9.055  -1.545  -0.672  0.00  0.00    +0.013 A 
ATOM     25  C   UNL     1      -8.473  -0.280  -0.563  0.00  0.00    +0.037 A 
ATOM     26  C   UNL     1      -9.246   0.859  -0.794  0.00  0.00    +0.013 A 
ATOM     27  C   UNL     1     -10.576   0.729  -1.137  0.00  0.00    +0.004 A 
ENDBRANCH  17  25
ENDBRANCH   1  19
BRANCH   1  28
ATOM     28  C   UNL     1      -4.294  -0.016   0.126  0.00  0.00    +0.260 C 
ATOM     29  O   UNL     1      -3.875  -0.460  -0.924  0.00  0.00    -0.269 OA
ATOM     30  N   UNL     1      -3.973  -0.619   1.288  0.00  0.00    -0.289 N 
ATOM     31  H   UNL     1      -4.368  -0.312   2.119  0.00  0.00    +0.151 HD
BRANCH  30  32
ATOM     32  C   UNL     1      -3.029  -1.739   1.296  0.00  0.00    +0.216 C 
ATOM     33  C   UNL     1      -2.001  -1.582   2.443  0.00  0.00    +0.047 C 
ATOM     34  C   UNL     1      -1.611  -2.965   2.990  0.00  0.00    +0.026 C 
ATOM     35  C   UNL     1      -2.916  -3.777   3.228  0.00  0.00    +0.168 C 
ATOM     36  S   UNL     1      -3.883  -3.309   1.731  0.00  0.00    -0.012 S 
ATOM     37  O   UNL     1      -5.219  -3.017   2.116  0.00  0.00    -0.173 OA
ATOM     38  O   UNL     1      -3.642  -4.265   0.707  0.00  0.00    -0.173 OA
ENDBRANCH  30  32
ENDBRANCH   1  28
TORSDOF 7
