REMARK  Name = ZINC37605341
REMARK  14 active torsions:
REMARK  status: ('A' for Active; 'I' for Inactive)
REMARK    1  A    between atoms: C_1  and  C_2
REMARK    2  A    between atoms: C_2  and  C_3
REMARK    3  A    between atoms: C_2  and  C_4
REMARK    4  A    between atoms: C_2  and  C_5
REMARK    5  A    between atoms: C_13  and  O_25
REMARK    6  A    between atoms: C_16  and  C_18
REMARK    7  A    between atoms: O_25  and  C_26
REMARK    8  A    between atoms: C_26  and  C_27
REMARK    9  A    between atoms: C_29  and  C_32
REMARK   10  A    between atoms: N_34  and  C_35
REMARK   11  A    between atoms: C_35  and  C_36
REMARK   12  A    between atoms: C_36  and  N_37
REMARK   13  A    between atoms: N_37  and  C_38
REMARK   14  A    between atoms: N_37  and  C_39
REMARK                            x       y       z     vdW  Elec       q    Type
REMARK                         _______ _______ _______ _____ _____    ______ ____
ROOT
ATOM      1  C   UNL     1       1.038  -0.541  -1.251  0.00  0.00    +0.222 C 
ATOM      2  O   UNL     1       1.556   0.103  -2.139  0.00  0.00    -0.275 OA
ATOM      3  N   UNL     1       0.465  -1.729  -1.527  0.00  0.00    -0.290 N 
ATOM      4  C   UNL     1      -0.089  -2.579  -0.460  0.00  0.00    +0.113 C 
ATOM      5  C   UNL     1      -1.597  -2.688  -0.682  0.00  0.00    +0.054 C 
ATOM      6  C   UNL     1      -1.904  -3.014  -2.121  0.00  0.00    -0.040 A 
ATOM      7  C   UNL     1      -3.150  -3.560  -2.404  0.00  0.00    +0.007 A 
ATOM      8  C   UNL     1      -3.502  -3.873  -3.700  0.00  0.00    +0.046 A 
ATOM      9  C   UNL     1      -2.606  -3.640  -4.733  0.00  0.00    +0.122 A 
ATOM     10  C   UNL     1      -1.363  -3.099  -4.450  0.00  0.00    +0.051 A 
ATOM     11  C   UNL     1      -1.010  -2.791  -3.144  0.00  0.00    -0.016 A 
ATOM     12  C   UNL     1       0.363  -2.226  -2.904  0.00  0.00    +0.137 C 
ENDROOT
BRANCH  12  13
ATOM     13  C   UNL     1       0.614  -1.093  -3.865  0.00  0.00    -0.020 A 
ATOM     14  C   UNL     1      -0.070   0.101  -3.720  0.00  0.00    +0.006 A 
ATOM     15  C   UNL     1       0.159   1.141  -4.601  0.00  0.00    +0.003 A 
ATOM     16  C   UNL     1       1.072   0.989  -5.629  0.00  0.00    +0.038 A 
ATOM     17  C   UNL     1       1.756  -0.205  -5.775  0.00  0.00    +0.124 A 
ATOM     18  C   UNL     1       1.531  -1.245  -4.888  0.00  0.00    +0.044 A 
ATOM     19  F   UNL     1       2.648  -0.355  -6.779  0.00  0.00    -0.205 F 
ENDBRANCH  12  13
BRANCH   1  21
ATOM     20  C   UNL     1       1.611   1.405   0.176  0.00  0.00    +0.020 C 
ATOM     21  C   UNL     1       1.037  -0.014   0.161  0.00  0.00    +0.039 C 
ATOM     22  C   UNL     1       1.894  -0.921   1.045  0.00  0.00    +0.020 C 
ATOM     23  C   UNL     1      -0.397   0.011   0.694  0.00  0.00    +0.020 C 
ENDBRANCH   1  21
BRANCH   9  24
ATOM     24  O   UNL     1      -2.945  -3.941  -6.014  0.00  0.00    -0.483 OA
BRANCH  24  25
ATOM     25  C   UNL     1      -4.244  -4.496  -6.227  0.00  0.00    +0.324 C 
BRANCH  25  26
ATOM     26  C   UNL     1      -4.441  -4.763  -7.697  0.00  0.00    +0.234 A 
ATOM     27  N   UNL     1      -4.148  -5.872  -8.306  0.00  0.00    -0.206 NA
ATOM     28  C   UNL     1      -4.465  -5.739  -9.623  0.00  0.00    +0.164 A 
ATOM     29  C   UNL     1      -4.969  -4.486  -9.787  0.00  0.00    +0.230 A 
ATOM     30  O   UNL     1      -4.952  -3.895  -8.582  0.00  0.00    -0.444 OA
BRANCH  28  31
ATOM     31  C   UNL     1      -4.294  -6.759 -10.673  0.00  0.00    +0.265 C 
ATOM     32  O   UNL     1      -4.619  -6.513 -11.819  0.00  0.00    -0.268 OA
ATOM     33  N   UNL     1      -3.779  -7.965 -10.363  0.00  0.00    -0.312 N 
ATOM     34  H   UNL     1      -3.520  -8.162  -9.449  0.00  0.00    +0.149 HD
BRANCH  33  35
ATOM     35  C   UNL     1      -3.609  -8.980 -11.406  0.00  0.00    +0.086 C 
BRANCH  35  36
ATOM     36  C   UNL     1      -3.009 -10.247 -10.793  0.00  0.00    -0.061 C 
BRANCH  36  37
ATOM     37  N   UNL     1      -2.839 -11.264 -11.839  0.00  0.00    +0.377 N 
ATOM     38  C   UNL     1      -1.847 -10.798 -12.818  0.00  0.00    -0.097 C 
ATOM     39  C   UNL     1      -2.376 -12.518 -11.232  0.00  0.00    -0.097 C 
ATOM     40  H   UNL     1      -3.721 -11.420 -12.303  0.00  0.00    -0.083 HD
ENDBRANCH  36  37
ENDBRANCH  35  36
ENDBRANCH  33  35
ENDBRANCH  28  31
ENDBRANCH  25  26
ENDBRANCH  24  25
ENDBRANCH   9  24
TORSDOF 9
