REMARK  Name = ZINC39920328
REMARK  4 active torsions:
REMARK  status: ('A' for Active; 'I' for Inactive)
REMARK    1  A    between atoms: C_1  and  C_2
REMARK    2  A    between atoms: N_13  and  N_14
REMARK    3  A    between atoms: C_15  and  C_17
REMARK    4  A    between atoms: C_20  and  N_23
REMARK                            x       y       z     vdW  Elec       q    Type
REMARK                         _______ _______ _______ _____ _____    ______ ____
ROOT
ATOM      1  C   UNL     1      -0.019   1.526   0.010  0.00  0.00    +0.051 C 
ATOM      2  C   UNL     1       0.002  -0.004   0.002  0.00  0.00    +0.177 C 
ATOM      3  N   UNL     1      -1.376  -0.509   0.004  0.00  0.00    -0.324 N 
ATOM      4  C   UNL     1      -2.098  -0.465   1.192  0.00  0.00    +0.041 A 
ATOM      5  C   UNL     1      -3.475  -0.328   1.209  0.00  0.00    +0.025 A 
ATOM      6  C   UNL     1      -4.144  -0.286   2.417  0.00  0.00    +0.017 A 
ATOM      7  C   UNL     1      -3.446  -0.380   3.612  0.00  0.00    +0.019 A 
ATOM      8  C   UNL     1      -2.073  -0.518   3.613  0.00  0.00    +0.030 A 
ATOM      9  C   UNL     1      -1.387  -0.563   2.402  0.00  0.00    +0.060 A 
ATOM     10  C   UNL     1       0.077  -0.719   2.345  0.00  0.00    +0.266 C 
ATOM     11  O   UNL     1       0.699  -1.054   3.335  0.00  0.00    -0.268 OA
ATOM     12  N   UNL     1       0.717  -0.485   1.184  0.00  0.00    -0.196 N 
ATOM     13 BR   UNL     1      -4.384  -0.318   5.253  0.00  0.00    -0.050 Br
ATOM     14  H   UNL     1      -1.775  -0.866  -0.805  0.00  0.00    +0.148 HD
ENDROOT
BRANCH  12  15
ATOM     15  N   UNL     1       2.098  -0.707   1.109  0.00  0.00    -0.226 N 
ATOM     16  C   UNL     1       2.953   0.163   1.682  0.00  0.00    +0.260 C 
ATOM     17  O   UNL     1       2.525   1.141   2.263  0.00  0.00    -0.269 OA
ATOM     18  H   UNL     1       2.439  -1.488   0.645  0.00  0.00    +0.173 HD
BRANCH  16  19
ATOM     19  C   UNL     1       4.410  -0.071   1.603  0.00  0.00    +0.038 A 
ATOM     20  C   UNL     1       4.905  -1.190   0.931  0.00  0.00    +0.015 A 
ATOM     21  C   UNL     1       6.266  -1.403   0.860  0.00  0.00    +0.033 A 
ATOM     22  C   UNL     1       7.141  -0.510   1.454  0.00  0.00    +0.126 A 
ATOM     23  C   UNL     1       6.657   0.601   2.122  0.00  0.00    +0.033 A 
ATOM     24  C   UNL     1       5.298   0.829   2.195  0.00  0.00    +0.015 A 
BRANCH  22  25
ATOM     25  N   UNL     1       8.600  -0.745   1.375  0.00  0.00    +0.056 N 
ATOM     26  O   UNL     1       9.025  -1.715   0.792  0.00  0.00    -0.126 OA
ATOM     27  O   UNL     1       9.366   0.034   1.893  0.00  0.00    -0.126 OA
ENDBRANCH  22  25
ENDBRANCH  16  19
ENDBRANCH  12  15
TORSDOF 3
