REMARK  Name = ZINC09726938
REMARK  4 active torsions:
REMARK  status: ('A' for Active; 'I' for Inactive)
REMARK    1  A    between atoms: C_3  and  C_6
REMARK    2  A    between atoms: C_15  and  C_17
REMARK    3  A    between atoms: C_17  and  N_55
REMARK    4  A    between atoms: C_21  and  C_23
REMARK                            x       y       z     vdW  Elec       q    Type
REMARK                         _______ _______ _______ _____ _____    ______ ____
ROOT
ATOM      1  C   UNL     1      -0.416   6.078  -4.565  0.00  0.00    -0.002 C 
ENDROOT
BRANCH   1  11
ATOM      2  C   UNL     1      -2.254  10.589  -7.527  0.00  0.00    +0.039 A 
ATOM      3  C   UNL     1      -1.471  10.857  -8.603  0.00  0.00    +0.059 A 
ATOM      4  S   UNL     1      -0.215   9.594  -8.523  0.00  0.00    -0.076 S 
ATOM      5  C   UNL     1      -0.762   8.745  -7.064  0.00  0.00    +0.116 A 
ATOM      6  C   UNL     1      -1.906   9.459  -6.672  0.00  0.00    +0.083 A 
ATOM      7  C   UNL     1      -2.563   8.979  -5.495  0.00  0.00    +0.260 A 
ATOM      8  O   UNL     1      -3.565   9.533  -5.076  0.00  0.00    -0.267 OA
ATOM      9  N   UNL     1      -2.059   7.906  -4.858  0.00  0.00    -0.312 N 
ATOM     10  H   UNL     1      -2.501   7.576  -4.060  0.00  0.00    +0.170 HD
ATOM     11  C   UNL     1      -0.945   7.276  -5.311  0.00  0.00    +0.094 A 
ATOM     12  N   UNL     1      -0.320   7.694  -6.379  0.00  0.00    -0.229 NA
BRANCH   2  15
ATOM     13  C   UNL     1      -4.780  13.154  -6.852  0.00  0.00    +0.042 A 
ATOM     14  C   UNL     1      -3.455  12.783  -7.159  0.00  0.00    +0.050 A 
ATOM     15  C   UNL     1      -3.435  11.425  -7.229  0.00  0.00    +0.136 A 
ATOM     16  O   UNL     1      -4.680  10.974  -6.983  0.00  0.00    -0.463 OA
ATOM     17  C   UNL     1      -5.495  12.018  -6.750  0.00  0.00    +0.196 A 
ENDBRANCH   2  15
ENDBRANCH   1  11
BRANCH   1  22
ATOM     18  C   UNL     1       1.817   6.627  -5.347  0.00  0.00    -0.077 C 
ATOM     19  C   UNL     1       3.166   5.876  -5.223  0.00  0.00    -0.020 C 
ATOM     20  C   UNL     1       2.823   4.787  -4.173  0.00  0.00    -0.013 C 
ATOM     21  C   UNL     1       1.361   4.428  -4.510  0.00  0.00    -0.037 C 
ATOM     22  N   UNL     1       0.796   5.564  -5.255  0.00  0.00    +0.389 N 
ATOM     23  H   UNL     1       0.539   5.257  -6.200  0.00  0.00    -0.080 HD
BRANCH  21  24
ATOM     24  C   UNL     1       0.585   4.189  -3.240  0.00  0.00    -0.057 A 
ATOM     25  C   UNL     1       0.688   5.084  -2.191  0.00  0.00    +0.006 A 
ATOM     26  C   UNL     1      -0.021   4.872  -1.022  0.00  0.00    +0.049 A 
ATOM     27  C   UNL     1      -0.834   3.757  -0.906  0.00  0.00    +0.162 A 
ATOM     28  C   UNL     1      -0.937   2.859  -1.958  0.00  0.00    +0.162 A 
ATOM     29  C   UNL     1      -0.226   3.074  -3.127  0.00  0.00    +0.051 A 
ATOM     30  O   UNL     1      -1.742   1.764  -1.833  0.00  0.00    -0.488 OA
ATOM     31  C   UNL     1      -1.313   0.776  -0.894  0.00  0.00    +0.232 C 
ATOM     32  C   UNL     1      -1.770   1.135   0.511  0.00  0.00    +0.082 C 
ATOM     33  C   UNL     1      -1.125   2.413   1.022  0.00  0.00    +0.232 C 
ATOM     34  O   UNL     1      -1.539   3.536   0.241  0.00  0.00    -0.488 OA
ENDBRANCH  21  24
ENDBRANCH   1  22
TORSDOF 4
