REMARK  Name = ZINC43221772
REMARK  6 active torsions:
REMARK  status: ('A' for Active; 'I' for Inactive)
REMARK    1  A    between atoms: C_1  and  C_2
REMARK    2  A    between atoms: C_2  and  C_3
REMARK    3  A    between atoms: C_3  and  C_5
REMARK    4  A    between atoms: C_3  and  C_6
REMARK    5  A    between atoms: C_6  and  C_29
REMARK    6  A    between atoms: C_11  and  C_14
REMARK                            x       y       z     vdW  Elec       q    Type
REMARK                         _______ _______ _______ _____ _____    ______ ____
ROOT
ATOM      1  C   UNL     1       0.518  -1.949  -0.817  0.00  0.00    +0.051 C 
ATOM      2  C   UNL     1       1.393  -2.874  -1.645  0.00  0.00    +0.088 C 
ATOM      3  C   UNL     1       2.714  -2.766  -0.790  0.00  0.00    +0.078 C 
ATOM      4  C   UNL     1       2.211  -2.978   0.577  0.00  0.00    -0.027 C 
ATOM      5  N   UNL     1       0.970  -2.128   0.596  0.00  0.00    +0.396 N 
ATOM      6  C   UNL     1       3.705  -3.274  -1.704  0.00  0.00    +0.242 C 
ATOM      7  O   UNL     1       4.839  -3.919  -1.389  0.00  0.00    -0.273 OA
ATOM      8  N   UNL     1       3.264  -2.974  -2.927  0.00  0.00    -0.145 NA
ATOM      9  C   UNL     1       1.993  -2.440  -2.946  0.00  0.00    +0.242 C 
ATOM     10  O   UNL     1       1.466  -1.778  -3.816  0.00  0.00    -0.273 OA
ATOM     11  H   UNL     1       1.177  -1.229   1.005  0.00  0.00    -0.083 HD
ATOM     12  H   UNL     1       0.248  -2.589   1.130  0.00  0.00    -0.083 HD
ENDROOT
BRANCH   4  13
ATOM     13  C   UNL     1       1.876  -4.429   0.806  0.00  0.00    -0.057 A 
ATOM     14  C   UNL     1       0.682  -4.944   0.337  0.00  0.00    +0.006 A 
ATOM     15  C   UNL     1       0.371  -6.274   0.546  0.00  0.00    +0.049 A 
ATOM     16  C   UNL     1       1.256  -7.096   1.228  0.00  0.00    +0.162 A 
ATOM     17  C   UNL     1       2.457  -6.579   1.698  0.00  0.00    +0.162 A 
ATOM     18  C   UNL     1       2.765  -5.244   1.481  0.00  0.00    +0.051 A 
ATOM     19  O   UNL     1       3.343  -7.369   2.363  0.00  0.00    -0.485 OA
ATOM     20  C   UNL     1       2.840  -8.605   2.882  0.00  0.00    +0.270 C 
ATOM     21  C   UNL     1       2.007  -9.283   1.785  0.00  0.00    +0.270 C 
ATOM     22  O   UNL     1       0.934  -8.403   1.430  0.00  0.00    -0.485 OA
ENDBRANCH   4  13
BRANCH   1  23
ATOM     23  C   UNL     1      -0.931  -2.340  -0.955  0.00  0.00    +0.347 C 
ATOM     24  O   UNL     1      -1.470  -2.307  -2.048  0.00  0.00    -0.248 OA
ATOM     25  O   UNL     1      -1.564  -2.688   0.027  0.00  0.00    -0.248 OA
ENDBRANCH   1  23
BRANCH   1  26
ATOM     26  C   UNL     1       0.718  -0.497  -1.257  0.00  0.00    -0.014 C 
ATOM     27  C   UNL     1       2.164  -0.077  -0.985  0.00  0.00    +0.006 C 
BRANCH  26  29
ATOM     28  C   UNL     1      -0.122   1.841  -0.998  0.00  0.00    +0.004 C 
ATOM     29  C   UNL     1      -0.233   0.409  -0.472  0.00  0.00    -0.001 C 
ENDBRANCH  26  29
ENDBRANCH   1  26
TORSDOF 4
