REMARK  Name = ZINC64143442
REMARK  4 active torsions:
REMARK  status: ('A' for Active; 'I' for Inactive)
REMARK    1  A    between atoms: C_1  and  C_2
REMARK    2  A    between atoms: C_11  and  C_13
REMARK    3  A    between atoms: N_29  and  C_30
REMARK    4  A    between atoms: C_30  and  C_31
REMARK                            x       y       z     vdW  Elec       q    Type
REMARK                         _______ _______ _______ _____ _____    ______ ____
ROOT
ATOM      1  C   UNL     1       0.130   1.662  -0.244  0.00  0.00    +0.014 C 
ATOM      2  C   UNL     1       0.314   0.166   0.013  0.00  0.00    +0.044 C 
ATOM      3  C   UNL     1       0.798  -0.494  -1.252  0.00  0.00    +0.028 A 
ATOM      4  C   UNL     1       0.394  -0.224  -2.570  0.00  0.00    +0.127 A 
ATOM      5  N   UNL     1       0.916  -0.917  -3.574  0.00  0.00    -0.221 NA
ATOM      6  C   UNL     1       1.811  -1.862  -3.370  0.00  0.00    +0.224 A 
ATOM      7  N   UNL     1       2.229  -2.150  -2.151  0.00  0.00    -0.229 NA
ATOM      8  C   UNL     1       1.758  -1.493  -1.104  0.00  0.00    +0.106 A 
ATOM      9  S   UNL     1       2.119  -1.591   0.634  0.00  0.00    -0.092 S 
ATOM     10  C   UNL     1       1.316  -0.027   1.175  0.00  0.00    +0.146 C 
ATOM     11  N   UNL     1      -0.547   0.763  -2.821  0.00  0.00    -0.325 N 
ATOM     12  H   UNL     1      -0.988   1.212  -2.083  0.00  0.00    +0.148 HD
ENDROOT
BRANCH  10  13
ATOM     13  C   UNL     1       0.603  -0.204   2.490  0.00  0.00    +0.230 C 
ATOM     14  O   UNL     1      -0.463  -0.781   2.530  0.00  0.00    -0.274 OA
ATOM     15  N   UNL     1       1.150   0.278   3.624  0.00  0.00    -0.298 N 
ATOM     16  C   UNL     1       0.400   0.199   4.882  0.00  0.00    +0.112 C 
ATOM     17  C   UNL     1       1.225  -0.583   5.921  0.00  0.00    +0.052 C 
ATOM     18  C   UNL     1       2.633  -0.045   5.849  0.00  0.00    -0.036 C 
ATOM     19  C   UNL     1       3.447   0.413   6.792  0.00  0.00    -0.001 A 
ATOM     20  C   UNL     1       3.319   0.464   8.257  0.00  0.00    +0.010 A 
ATOM     21  C   UNL     1       4.356   1.030   8.930  0.00  0.00    +0.001 A 
ATOM     22  C   UNL     1       5.493   1.544   8.300  0.00  0.00    +0.002 A 
ATOM     23  C   UNL     1       5.698   1.532   6.958  0.00  0.00    +0.026 A 
ATOM     24  C   UNL     1       4.681   0.954   6.144  0.00  0.00    +0.043 A 
ATOM     25  N   UNL     1       4.627   0.791   4.855  0.00  0.00    -0.376 N 
ATOM     26  C   UNL     1       3.391   0.077   4.532  0.00  0.00    +0.124 C 
ATOM     27  C   UNL     1       2.495   0.874   3.587  0.00  0.00    +0.136 C 
ATOM     28  H   UNL     1       5.292   1.093   4.217  0.00  0.00    +0.160 HD
ENDBRANCH  10  13
BRANCH  11  29
ATOM     29  C   UNL     1      -0.875   1.129  -4.201  0.00  0.00    +0.138 C 
BRANCH  29  30
ATOM     30  C   UNL     1      -1.917   2.217  -4.199  0.00  0.00    -0.027 A 
ATOM     31  C   UNL     1      -3.259   1.887  -4.206  0.00  0.00    +0.009 A 
ATOM     32  C   UNL     1      -4.219   2.882  -4.203  0.00  0.00    +0.050 A 
ATOM     33  C   UNL     1      -3.837   4.214  -4.193  0.00  0.00    +0.166 A 
ATOM     34  C   UNL     1      -2.485   4.546  -4.186  0.00  0.00    +0.167 A 
ATOM     35  C   UNL     1      -1.529   3.544  -4.183  0.00  0.00    +0.054 A 
ATOM     36  O   UNL     1      -2.370   5.907  -4.178  0.00  0.00    -0.453 OA
ATOM     37  C   UNL     1      -3.657   6.403  -4.592  0.00  0.00    +0.466 C 
ATOM     38  O   UNL     1      -4.570   5.365  -4.189  0.00  0.00    -0.453 OA
ENDBRANCH  29  30
ENDBRANCH  11  29
TORSDOF 3
