REMARK  Name = ZINC35957165
REMARK  17 active torsions:
REMARK  status: ('A' for Active; 'I' for Inactive)
REMARK    1  A    between atoms: C_1  and  C_2
REMARK    2  A    between atoms: C_2  and  C_4
REMARK    3  A    between atoms: C_2  and  C_35
REMARK    4  A    between atoms: C_4  and  C_5
REMARK    5  A    between atoms: N_7  and  C_8
REMARK    6  A    between atoms: C_14  and  N_16
REMARK    7  A    between atoms: C_17  and  C_19
REMARK    8  A    between atoms: C_22  and  C_24
REMARK    9  A    between atoms: C_24  and  O_25
REMARK   10  A    between atoms: O_25  and  C_26
REMARK   11  A    between atoms: C_29  and  C_32
REMARK   12  A    between atoms: C_32  and  C_33
REMARK   13  A    between atoms: C_32  and  C_34
REMARK   14  A    between atoms: C_35  and  C_36
REMARK   15  A    between atoms: C_36  and  C_37
REMARK   16  A    between atoms: C_36  and  C_38
REMARK   17  A    between atoms: C_36  and  C_39
REMARK                            x       y       z     vdW  Elec       q    Type
REMARK                         _______ _______ _______ _____ _____    ______ ____
ROOT
ATOM      1  N   UNL     1       2.981  -2.957  -4.675  0.00  0.00    -0.305 N 
ATOM      2  C   UNL     1       3.794  -3.921  -5.150  0.00  0.00    +0.263 C 
ATOM      3  O   UNL     1       4.426  -3.736  -6.172  0.00  0.00    -0.269 OA
ATOM      4  H   UNL     1       2.477  -3.106  -3.860  0.00  0.00    +0.149 HD
ENDROOT
BRANCH   1  10
ATOM      5  C   UNL     1       2.428  -0.589  -4.414  0.00  0.00    +0.093 C 
ATOM      6  C   UNL     1       2.299   0.739  -5.162  0.00  0.00    +0.024 C 
ATOM      7  C   UNL     1       1.250   0.603  -6.268  0.00  0.00    +0.002 C 
ATOM      8  C   UNL     1       1.680  -0.493  -7.245  0.00  0.00    +0.002 C 
ATOM      9  C   UNL     1       1.809  -1.822  -6.497  0.00  0.00    +0.024 C 
ATOM     10  C   UNL     1       2.857  -1.685  -5.391  0.00  0.00    +0.093 C 
BRANCH   5  13
ATOM     11  C   UNL     1       0.789  -0.447  -2.616  0.00  0.00    +0.214 C 
ATOM     12  O   UNL     1       1.546   0.292  -2.024  0.00  0.00    -0.276 OA
ATOM     13  N   UNL     1       1.136  -0.943  -3.821  0.00  0.00    -0.311 N 
ATOM     14  H   UNL     1       0.530  -1.534  -4.295  0.00  0.00    +0.149 HD
BRANCH  11  15
ATOM     15  C   UNL     1      -0.540  -0.811  -2.006  0.00  0.00    +0.099 C 
BRANCH  15  17
ATOM     16  C   UNL     1      -0.733   1.396  -0.851  0.00  0.00    +0.008 C 
ATOM     17  C   UNL     1      -0.684  -0.120  -0.649  0.00  0.00    -0.005 C 
BRANCH  17  18
ATOM     18  C   UNL     1      -1.975  -0.586   0.026  0.00  0.00    +0.010 C 
BRANCH  18  19
ATOM     19  C   UNL     1      -2.031  -0.040   1.454  0.00  0.00    -0.037 C 
ATOM     20  C   UNL     1      -2.167   1.484   1.412  0.00  0.00    +0.010 C 
ATOM     21  C   UNL     1      -3.235  -0.639   2.184  0.00  0.00    +0.010 C 
ATOM     22  C   UNL     1      -0.746  -0.417   2.195  0.00  0.00    +0.010 C 
ENDBRANCH  18  19
ENDBRANCH  17  18
ENDBRANCH  15  17
ENDBRANCH  11  15
ENDBRANCH   5  13
ENDBRANCH   1  10
BRANCH   2  23
ATOM     23  C   UNL     1       3.918  -5.200  -4.430  0.00  0.00    +0.133 A 
ATOM     24  C   UNL     1       4.737  -6.205  -4.872  0.00  0.00    +0.080 A 
ATOM     25  S   UNL     1       4.504  -7.398  -3.713  0.00  0.00    -0.076 S 
ATOM     26  C   UNL     1       3.402  -6.606  -2.725  0.00  0.00    +0.116 A 
ATOM     27  N   UNL     1       3.243  -5.446  -3.303  0.00  0.00    -0.236 NA
BRANCH  26  28
ATOM     28  C   UNL     1       2.752  -7.113  -1.464  0.00  0.00    +0.291 C 
BRANCH  28  29
ATOM     29  O   UNL     1       1.532  -7.781  -1.791  0.00  0.00    -0.485 OA
BRANCH  29  30
ATOM     30  C   UNL     1       0.818  -8.301  -0.758  0.00  0.00    +0.121 A 
ATOM     31  C   UNL     1       1.278  -8.166   0.543  0.00  0.00    +0.046 A 
ATOM     32  C   UNL     1       0.550  -8.696   1.591  0.00  0.00    +0.007 A 
ATOM     33  C   UNL     1      -0.637  -9.360   1.343  0.00  0.00    -0.045 A 
ATOM     34  C   UNL     1      -1.099  -9.495   0.047  0.00  0.00    +0.007 A 
ATOM     35  C   UNL     1      -0.377  -8.963  -1.004  0.00  0.00    +0.046 A 
BRANCH  33  36
ATOM     36  C   UNL     1      -1.430  -9.937   2.488  0.00  0.00    +0.013 C 
ATOM     37  C   UNL     1      -2.819  -9.296   2.520  0.00  0.00    +0.012 C 
ATOM     38  C   UNL     1      -1.569 -11.448   2.300  0.00  0.00    +0.012 C 
ENDBRANCH  33  36
ENDBRANCH  29  30
ENDBRANCH  28  29
ENDBRANCH  26  28
ENDBRANCH   2  23
TORSDOF 11
