REMARK  Name = ZINC21418547
REMARK  6 active torsions:
REMARK  status: ('A' for Active; 'I' for Inactive)
REMARK    1  A    between atoms: C_7  and  C_30
REMARK    2  A    between atoms: N_9  and  C_12
REMARK    3  A    between atoms: C_12  and  C_13
REMARK    4  A    between atoms: C_13  and  N_15
REMARK    5  A    between atoms: N_17  and  C_21
REMARK    6  A    between atoms: C_21  and  C_22
REMARK                            x       y       z     vdW  Elec       q    Type
REMARK                         _______ _______ _______ _____ _____    ______ ____
ROOT
ATOM      1  C   UNL     1       0.504  -5.122  -2.333  0.00  0.00    +0.245 C 
ENDROOT
BRANCH   1  10
ATOM      2  C   UNL     1       1.775  -8.537  -7.626  0.00  0.00    +0.001 A 
ATOM      3  C   UNL     1       2.708  -7.511  -7.543  0.00  0.00    +0.001 A 
ATOM      4  C   UNL     1       2.677  -6.613  -6.498  0.00  0.00    +0.014 A 
ATOM      5  C   UNL     1       1.697  -6.741  -5.518  0.00  0.00    +0.050 A 
ATOM      6  C   UNL     1       0.747  -7.785  -5.602  0.00  0.00    +0.020 A 
ATOM      7  C   UNL     1       0.797  -8.681  -6.665  0.00  0.00    +0.011 A 
ATOM      8  C   UNL     1      -0.264  -7.868  -4.536  0.00  0.00    +0.153 A 
ATOM      9  N   UNL     1      -0.245  -6.986  -3.566  0.00  0.00    -0.162 NA
ATOM     10  N   UNL     1       0.606  -6.035  -3.474  0.00  0.00    -0.219 N 
ATOM     11  C   UNL     1       1.588  -5.825  -4.374  0.00  0.00    +0.275 A 
ATOM     12  O   UNL     1       2.369  -4.900  -4.240  0.00  0.00    -0.266 OA
BRANCH   8  13
ATOM     13  C   UNL     1      -1.287  -8.933  -4.558  0.00  0.00    +0.262 C 
ATOM     14  O   UNL     1      -1.297  -9.747  -5.460  0.00  0.00    -0.269 OA
ATOM     15  N   UNL     1      -2.209  -9.002  -3.577  0.00  0.00    -0.324 N 
ATOM     16  H   UNL     1      -2.971  -9.795  -3.593  0.00  0.00    +0.145 HD
ATOM     17  H   UNL     1      -2.199  -8.265  -2.760  0.00  0.00    +0.145 HD
ENDBRANCH   8  13
ENDBRANCH   1  10
BRANCH   1  18
ATOM     18  C   UNL     1      -0.392  -3.966  -2.693  0.00  0.00    +0.260 C 
ATOM     19  O   UNL     1      -0.898  -3.909  -3.798  0.00  0.00    -0.272 OA
BRANCH  18  20
ATOM     20  N   UNL     1      -0.629  -3.009  -1.805  0.00  0.00    -0.155 NA
ATOM     21  C   UNL     1      -1.423  -1.984  -2.124  0.00  0.00    +0.166 A 
ATOM     22  N   UNL     1      -1.787  -0.914  -1.362  0.00  0.00    -0.324 N 
ATOM     23  C   UNL     1      -2.620   0.018  -1.893  0.00  0.00    +0.095 A 
ATOM     24  C   UNL     1      -3.045  -0.142  -3.151  0.00  0.00    +0.066 A 
ATOM     25  S   UNL     1      -2.256  -1.674  -3.614  0.00  0.00    -0.061 S 
BRANCH  22  26
ATOM     26  C   UNL     1      -1.293  -0.775   0.010  0.00  0.00    +0.160 C 
BRANCH  26  27
ATOM     27  C   UNL     1       0.002  -0.004   0.002  0.00  0.00    -0.009 A 
ATOM     28  C   UNL     1       1.208  -0.679  -0.014  0.00  0.00    +0.008 A 
ATOM     29  C   UNL     1       2.396   0.027  -0.021  0.00  0.00    +0.020 A 
ATOM     30  C   UNL     1       2.379   1.411  -0.013  0.00  0.00    +0.042 A 
ATOM     31  C   UNL     1       1.172   2.087   0.002  0.00  0.00    +0.040 A 
ATOM     32  C   UNL     1      -0.017   1.379   0.010  0.00  0.00    +0.047 A 
ATOM     33 CL   UNL     1      -1.532   2.227   0.021  0.00  0.00    -0.083 Cl
ATOM     34 CL   UNL     1       3.871   2.298  -0.022  0.00  0.00    -0.083 Cl
ENDBRANCH  26  27
ENDBRANCH  22  26
ENDBRANCH  18  20
ENDBRANCH   1  18
TORSDOF 6
