REMARK  Name = ZINC15501897
REMARK  8 active torsions:
REMARK  status: ('A' for Active; 'I' for Inactive)
REMARK    1  A    between atoms: C_1  and  C_2
REMARK    2  A    between atoms: C_2  and  C_22
REMARK    3  A    between atoms: N_5  and  C_9
REMARK    4  A    between atoms: C_9  and  C_10
REMARK    5  A    between atoms: C_10  and  C_12
REMARK    6  A    between atoms: C_10  and  O_21
REMARK    7  A    between atoms: C_12  and  O_13
REMARK    8  A    between atoms: O_13  and  C_14
REMARK                            x       y       z     vdW  Elec       q    Type
REMARK                         _______ _______ _______ _____ _____    ______ ____
ROOT
ATOM      1  C   UNL     1       2.900   4.890   1.432  0.00  0.00    +0.047 C 
ATOM      2  C   UNL     1       2.442   4.593   0.003  0.00  0.00    +0.135 C 
ATOM      3  C   UNL     1       2.293   5.876  -0.791  0.00  0.00    +0.251 C 
ATOM      4  O   UNL     1       1.542   6.799  -0.557  0.00  0.00    -0.272 OA
ATOM      5  N   UNL     1       3.169   5.778  -1.810  0.00  0.00    -0.221 N 
ATOM      6  C   UNL     1       3.844   4.623  -1.772  0.00  0.00    +0.310 C 
ATOM      7  O   UNL     1       4.689   4.307  -2.586  0.00  0.00    -0.252 OA
ATOM      8  N   UNL     1       3.482   3.852  -0.731  0.00  0.00    -0.281 N 
ATOM      9  H   UNL     1       3.837   2.977  -0.507  0.00  0.00    +0.152 HD
ENDROOT
BRANCH   2  10
ATOM     10  C   UNL     1       1.148   3.822   0.011  0.00  0.00    -0.014 A 
ATOM     11  C   UNL     1      -0.059   4.497   0.026  0.00  0.00    +0.008 A 
ATOM     12  C   UNL     1      -1.247   3.791   0.034  0.00  0.00    +0.022 A 
ATOM     13  C   UNL     1      -1.230   2.408   0.021  0.00  0.00    +0.059 A 
ATOM     14  C   UNL     1      -0.021   1.732   0.012  0.00  0.00    +0.060 A 
ATOM     15  C   UNL     1       1.167   2.440   0.004  0.00  0.00    +0.027 A 
ATOM     16 CL   UNL     1       0.002  -0.004   0.002  0.00  0.00    -0.082 Cl
ATOM     17 CL   UNL     1      -2.722   1.521   0.023  0.00  0.00    -0.082 Cl
ENDBRANCH   2  10
BRANCH   5  18
ATOM     18  C   UNL     1       3.359   6.808  -2.834  0.00  0.00    +0.152 C 
BRANCH  18  19
ATOM     19  C   UNL     1       2.408   6.545  -4.004  0.00  0.00    +0.170 C 
BRANCH  19  20
ATOM     20  O   UNL     1       1.057   6.695  -3.563  0.00  0.00    -0.387 OA
ATOM     21  H   UNL     1       0.851   7.575  -3.220  0.00  0.00    +0.210 HD
ENDBRANCH  19  20
BRANCH  19  22
ATOM     22  C   UNL     1       2.692   7.546  -5.127  0.00  0.00    +0.261 C 
BRANCH  22  23
ATOM     23  O   UNL     1       1.886   7.228  -6.263  0.00  0.00    -0.489 OA
BRANCH  23  24
ATOM     24  C   UNL     1       2.018   8.026  -7.355  0.00  0.00    +0.122 A 
ATOM     25  C   UNL     1       2.900   9.096  -7.332  0.00  0.00    +0.046 A 
ATOM     26  C   UNL     1       3.036   9.903  -8.444  0.00  0.00    +0.005 A 
ATOM     27  C   UNL     1       2.286   9.651  -9.578  0.00  0.00    +0.015 A 
ATOM     28  C   UNL     1       1.401   8.588  -9.603  0.00  0.00    +0.021 A 
ATOM     29  C   UNL     1       1.265   7.775  -8.493  0.00  0.00    +0.061 A 
ATOM     30 BR   UNL     1       0.376   8.247 -11.155  0.00  0.00    -0.050 Br
ENDBRANCH  23  24
ENDBRANCH  22  23
ENDBRANCH  19  22
ENDBRANCH  18  19
ENDBRANCH   5  18
TORSDOF 7
