REMARK  Name = ZINC19372152
REMARK  7 active torsions:
REMARK  status: ('A' for Active; 'I' for Inactive)
REMARK    1  A    between atoms: C_4  and  C_7
REMARK    2  A    between atoms: C_7  and  N_8
REMARK    3  A    between atoms: N_11  and  C_14
REMARK    4  A    between atoms: C_14  and  C_16
REMARK    5  A    between atoms: C_14  and  C_23
REMARK    6  A    between atoms: N_27  and  C_28
REMARK    7  A    between atoms: C_28  and  C_29
REMARK                            x       y       z     vdW  Elec       q    Type
REMARK                         _______ _______ _______ _____ _____    ______ ____
ROOT
ATOM      1  C   UNL     1       5.450  -2.988   4.812  0.00  0.00    +0.160 C 
ENDROOT
BRANCH   1   5
ATOM      2  N   UNL     1       4.153  -0.953   1.342  0.00  0.00    +0.384 N 
ATOM      3  C   UNL     1       3.207  -1.861   2.004  0.00  0.00    -0.063 C 
ATOM      4  C   UNL     1       3.657  -2.102   3.447  0.00  0.00    +0.067 C 
ATOM      5  N   UNL     1       5.005  -2.688   3.445  0.00  0.00    -0.293 NA
ATOM      6  C   UNL     1       5.958  -1.801   2.763  0.00  0.00    +0.067 C 
ATOM      7  C   UNL     1       5.489  -1.562   1.326  0.00  0.00    -0.063 C 
ATOM      8  H   UNL     1       4.188  -0.079   1.844  0.00  0.00    -0.081 HD
BRANCH   2   9
ATOM      9  C   UNL     1       3.711  -0.707  -0.038  0.00  0.00    -0.043 C 
BRANCH   9  13
ATOM     10  C   UNL     1      -0.017   1.378   0.010  0.00  0.00    +0.000 A 
ATOM     11  C   UNL     1       1.171   2.086   0.002  0.00  0.00    +0.000 A 
ATOM     12  C   UNL     1       2.377   1.411  -0.013  0.00  0.00    +0.002 A 
ATOM     13  C   UNL     1       2.396   0.029  -0.020  0.00  0.00    -0.064 A 
ATOM     14  C   UNL     1       1.208  -0.679  -0.012  0.00  0.00    +0.002 A 
ATOM     15  C   UNL     1       0.002  -0.004   0.002  0.00  0.00    +0.000 A 
ENDBRANCH   9  13
ENDBRANCH   2   9
ENDBRANCH   1   5
BRANCH   1  16
ATOM     16  C   UNL     1       6.833  -3.585   4.771  0.00  0.00    +0.012 A 
ATOM     17  C   UNL     1       7.310  -4.143   3.600  0.00  0.00    +0.008 A 
ATOM     18  C   UNL     1       8.578  -4.691   3.561  0.00  0.00    +0.000 A 
ATOM     19  C   UNL     1       9.371  -4.683   4.694  0.00  0.00    +0.003 A 
ATOM     20  C   UNL     1       8.896  -4.125   5.865  0.00  0.00    +0.039 A 
ATOM     21  C   UNL     1       7.628  -3.571   5.904  0.00  0.00    +0.128 A 
ATOM     22  F   UNL     1       7.165  -3.021   7.048  0.00  0.00    -0.205 F 
ENDBRANCH   1  16
BRANCH   1  23
ATOM     23  C   UNL     1       4.498  -3.968   5.447  0.00  0.00    +0.173 A 
ATOM     24  N   UNL     1       4.013  -5.055   4.899  0.00  0.00    -0.111 NA
ATOM     25  N   UNL     1       3.238  -5.623   5.757  0.00  0.00    -0.023 NA
ATOM     26  N   UNL     1       3.217  -4.926   6.840  0.00  0.00    -0.044 NA
ATOM     27  N   UNL     1       3.985  -3.901   6.690  0.00  0.00    -0.223 N 
BRANCH  27  28
ATOM     28  C   UNL     1       4.248  -2.858   7.684  0.00  0.00    +0.182 C 
BRANCH  28  29
ATOM     29  C   UNL     1       3.236  -1.751   7.530  0.00  0.00    -0.022 A 
ATOM     30  C   UNL     1       3.496  -0.692   6.681  0.00  0.00    +0.009 A 
ATOM     31  C   UNL     1       2.571   0.325   6.536  0.00  0.00    +0.050 A 
ATOM     32  C   UNL     1       1.381   0.285   7.243  0.00  0.00    +0.166 A 
ATOM     33  C   UNL     1       1.119  -0.782   8.099  0.00  0.00    +0.167 A 
ATOM     34  C   UNL     1       2.048  -1.800   8.235  0.00  0.00    +0.055 A 
ATOM     35  O   UNL     1      -0.105  -0.591   8.672  0.00  0.00    -0.453 OA
ATOM     36  C   UNL     1      -0.410   0.802   8.472  0.00  0.00    +0.466 C 
ATOM     37  O   UNL     1       0.321   1.145   7.280  0.00  0.00    -0.453 OA
ENDBRANCH  28  29
ENDBRANCH  27  28
ENDBRANCH   1  23
TORSDOF 7
