REMARK  Name = ZINC44714604
REMARK  7 active torsions:
REMARK  status: ('A' for Active; 'I' for Inactive)
REMARK    1  A    between atoms: C_1  and  C_2
REMARK    2  A    between atoms: C_3  and  C_14
REMARK    3  A    between atoms: C_6  and  C_12
REMARK    4  A    between atoms: C_14  and  C_15
REMARK    5  A    between atoms: C_15  and  N_16
REMARK    6  A    between atoms: C_17  and  C_19
REMARK    7  A    between atoms: C_30  and  C_32
REMARK                            x       y       z     vdW  Elec       q    Type
REMARK                         _______ _______ _______ _____ _____    ______ ____
ROOT
ATOM      1  C   UNL     1       2.563   1.089  -6.477  0.00  0.00    +0.100 C 
ATOM      2  C   UNL     1       1.775   2.414  -6.587  0.00  0.00    +0.121 C 
ATOM      3  N   UNL     1       2.809   3.472  -6.501  0.00  0.00    -0.297 N 
ATOM      4  C   UNL     1       3.949   2.939  -7.284  0.00  0.00    +0.115 C 
ATOM      5  C   UNL     1       3.988   1.437  -6.939  0.00  0.00    -0.004 C 
ATOM      6  C   UNL     1       4.358   0.621  -8.173  0.00  0.00    -0.010 C 
ATOM      7  C   UNL     1       5.799   0.941  -8.578  0.00  0.00    -0.082 C 
ATOM      8  N   UNL     1       6.704   0.623  -7.467  0.00  0.00    +0.379 N 
ATOM      9  C   UNL     1       6.401   1.479  -6.314  0.00  0.00    -0.082 C 
ATOM     10  C   UNL     1       4.985   1.181  -5.813  0.00  0.00    -0.010 C 
ATOM     11  C   UNL     1       2.730   4.653  -5.856  0.00  0.00    +0.260 C 
ATOM     12  O   UNL     1       3.669   5.420  -5.878  0.00  0.00    -0.271 OA
ATOM     13  H   UNL     1       6.587  -0.345  -7.206  0.00  0.00    -0.086 HD
ATOM     14  H   UNL     1       7.658   0.777  -7.758  0.00  0.00    -0.086 HD
ENDROOT
BRANCH  11  15
ATOM     15  C   UNL     1       1.475   5.020  -5.107  0.00  0.00    +0.296 C 
ATOM     16  C   UNL     1       0.313   5.187  -6.095  0.00  0.00    +0.283 C 
ATOM     17  O   UNL     1      -0.858   5.549  -5.354  0.00  0.00    -0.484 OA
ATOM     18  C   UNL     1      -0.711   6.526  -4.418  0.00  0.00    +0.162 A 
ATOM     19  C   UNL     1      -1.836   7.174  -3.928  0.00  0.00    +0.049 A 
ATOM     20  C   UNL     1      -1.704   8.166  -2.975  0.00  0.00    +0.004 A 
ATOM     21  C   UNL     1      -0.450   8.516  -2.508  0.00  0.00    +0.004 A 
ATOM     22  C   UNL     1       0.674   7.876  -2.993  0.00  0.00    +0.049 A 
ATOM     23  C   UNL     1       0.549   6.880  -3.950  0.00  0.00    +0.163 A 
ATOM     24  O   UNL     1       1.666   6.264  -4.424  0.00  0.00    -0.473 OA
ENDBRANCH  11  15
BRANCH   1  26
ATOM     25  N   UNL     1       2.675  -0.714  -4.787  0.00  0.00    -0.315 N 
ATOM     26  C   UNL     1       2.577   0.605  -5.050  0.00  0.00    +0.218 C 
ATOM     27  O   UNL     1       2.501   1.401  -4.138  0.00  0.00    -0.275 OA
ATOM     28  H   UNL     1       2.736  -1.350  -5.516  0.00  0.00    +0.149 HD
BRANCH  25  29
ATOM     29  C   UNL     1       2.689  -1.185  -3.400  0.00  0.00    +0.109 C 
BRANCH  29  30
ATOM     30  C   UNL     1       2.807  -2.710  -3.380  0.00  0.00    +0.056 C 
BRANCH  30  33
ATOM     31  C   UNL     1       0.324  -3.491  -1.689  0.00  0.00    +0.063 C 
ATOM     32  C   UNL     1       1.754  -3.535  -1.215  0.00  0.00    +0.017 A 
ATOM     33  C   UNL     1       2.821  -3.195  -1.953  0.00  0.00    -0.018 A 
ATOM     34  C   UNL     1       4.003  -3.385  -1.108  0.00  0.00    +0.004 A 
ATOM     35  C   UNL     1       5.371  -3.204  -1.304  0.00  0.00    +0.029 A 
ATOM     36  C   UNL     1       6.252  -3.486  -0.265  0.00  0.00    +0.052 A 
ATOM     37  C   UNL     1       5.763  -3.946   0.966  0.00  0.00    +0.021 A 
ATOM     38  C   UNL     1       4.425  -4.123   1.160  0.00  0.00    +0.027 A 
ATOM     39  C   UNL     1       3.524  -3.847   0.133  0.00  0.00    +0.047 A 
ATOM     40  N   UNL     1       2.155  -3.922   0.035  0.00  0.00    -0.358 N 
ATOM     41  H   UNL     1       1.561  -4.209   0.747  0.00  0.00    +0.166 HD
BRANCH  36  42
ATOM     42  C   UNL     1       7.661  -3.305  -0.452  0.00  0.00    +0.099 C 
ATOM     43  N   UNL     1       8.778  -3.162  -0.601  0.00  0.00    -0.191 NA
ENDBRANCH  36  42
ENDBRANCH  30  33
ENDBRANCH  29  30
ENDBRANCH  25  29
ENDBRANCH   1  26
TORSDOF 6
