REMARK  Name = ZINC02385214
REMARK  8 active torsions:
REMARK  status: ('A' for Active; 'I' for Inactive)
REMARK    1  A    between atoms: C_1  and  C_2
REMARK    2  A    between atoms: C_2  and  C_4
REMARK    3  A    between atoms: C_4  and  N_5
REMARK    4  A    between atoms: C_6  and  C_26
REMARK    5  A    between atoms: C_9  and  S_10
REMARK    6  A    between atoms: S_10  and  C_11
REMARK    7  A    between atoms: C_11  and  C_12
REMARK    8  A    between atoms: N_14  and  N_15
REMARK                            x       y       z     vdW  Elec       q    Type
REMARK                         _______ _______ _______ _____ _____    ______ ____
ROOT
ATOM      1  S   UNL     1      -1.924   1.793  -2.530  0.00  0.00    -0.077 S 
ENDROOT
BRANCH   1   6
ATOM      2  N   UNL     1      -1.624  -0.752  -1.408  0.00  0.00    -0.298 N 
ATOM      3  C   UNL     1      -2.208  -1.986  -1.578  0.00  0.00    +0.165 A 
ATOM      4  N   UNL     1      -3.115  -1.856  -2.518  0.00  0.00    -0.128 NA
ATOM      5  N   UNL     1      -3.137  -0.644  -2.943  0.00  0.00    -0.122 NA
ATOM      6  C   UNL     1      -2.249   0.077  -2.295  0.00  0.00    +0.193 A 
BRANCH   3   7
ATOM      7  C   UNL     1      -1.877  -3.224  -0.841  0.00  0.00    +0.019 A 
ATOM      8  C   UNL     1      -2.878  -4.150  -0.542  0.00  0.00    +0.012 A 
ATOM      9  C   UNL     1      -2.563  -5.303   0.146  0.00  0.00    +0.016 A 
ATOM     10  C   UNL     1      -1.258  -5.543   0.540  0.00  0.00    +0.018 A 
ATOM     11  C   UNL     1      -0.261  -4.628   0.248  0.00  0.00    +0.016 A 
ATOM     12  C   UNL     1      -0.562  -3.473  -0.445  0.00  0.00    +0.012 A 
ATOM     13 BR   UNL     1      -0.834  -7.126   1.484  0.00  0.00    -0.050 Br
ENDBRANCH   3   7
BRANCH   2  14
ATOM     14  C   UNL     1      -0.557  -0.399  -0.468  0.00  0.00    +0.155 C 
BRANCH  14  16
ATOM     15  C   UNL     1      -1.674   1.299   1.170  0.00  0.00    +0.040 C 
ATOM     16  C   UNL     1      -1.157  -0.087   0.879  0.00  0.00    -0.060 C 
ATOM     17  C   UNL     1      -1.230  -1.019   1.796  0.00  0.00    +0.009 C 
ENDBRANCH  14  16
ENDBRANCH   2  14
ENDBRANCH   1   6
BRANCH   1  18
ATOM     18  C   UNL     1      -3.084   2.285  -3.835  0.00  0.00    +0.174 C 
BRANCH  18  19
ATOM     19  C   UNL     1      -2.909   3.751  -4.136  0.00  0.00    +0.242 C 
ATOM     20  O   UNL     1      -2.083   4.400  -3.531  0.00  0.00    -0.273 OA
ATOM     21  N   UNL     1      -3.670   4.341  -5.080  0.00  0.00    -0.206 N 
ATOM     22  H   UNL     1      -4.330   3.822  -5.564  0.00  0.00    +0.177 HD
BRANCH  21  23
ATOM     23  N   UNL     1      -3.506   5.704  -5.360  0.00  0.00    -0.175 NA
ATOM     24  C   UNL     1      -4.247   6.277  -6.277  0.00  0.00    +0.152 C 
ATOM     25  C   UNL     1      -4.211   7.694  -6.709  0.00  0.00    +0.028 A 
ATOM     26  C   UNL     1      -3.448   8.789  -6.320  0.00  0.00    +0.012 A 
ATOM     27  C   UNL     1      -3.651  10.014  -6.924  0.00  0.00    +0.001 A 
ATOM     28  C   UNL     1      -4.611  10.150  -7.913  0.00  0.00    +0.002 A 
ATOM     29  C   UNL     1      -5.373   9.069  -8.306  0.00  0.00    +0.024 A 
ATOM     30  C   UNL     1      -5.183   7.827  -7.709  0.00  0.00    +0.043 A 
ATOM     31  N   UNL     1      -5.803   6.599  -7.914  0.00  0.00    -0.280 N 
ATOM     32  C   UNL     1      -5.294   5.651  -7.110  0.00  0.00    +0.269 C 
ATOM     33  O   UNL     1      -5.637   4.484  -7.071  0.00  0.00    -0.268 OA
ATOM     34  H   UNL     1      -6.511   6.446  -8.559  0.00  0.00    +0.155 HD
ENDBRANCH  21  23
ENDBRANCH  18  19
ENDBRANCH   1  18
TORSDOF 7
