REMARK  Name = ZINC34747196
REMARK  5 active torsions:
REMARK  status: ('A' for Active; 'I' for Inactive)
REMARK    1  A    between atoms: C_1  and  C_2
REMARK    2  A    between atoms: C_2  and  C_4
REMARK    3  A    between atoms: C_4  and  N_5
REMARK    4  A    between atoms: N_24  and  C_25
REMARK    5  A    between atoms: C_25  and  C_26
REMARK                            x       y       z     vdW  Elec       q    Type
REMARK                         _______ _______ _______ _____ _____    ______ ____
ROOT
ATOM      1  N   UNL     1      -2.358  -0.240  -0.998  0.00  0.00    +0.384 N 
ATOM      2  C   UNL     1      -3.812  -0.202  -1.198  0.00  0.00    -0.059 C 
ATOM      3  C   UNL     1      -4.163  -0.882  -2.525  0.00  0.00    +0.089 C 
ATOM      4  N   UNL     1      -3.386  -0.239  -3.597  0.00  0.00    -0.304 N 
ATOM      5  C   UNL     1      -1.935  -0.088  -3.406  0.00  0.00    +0.089 C 
ATOM      6  C   UNL     1      -1.690   0.554  -2.037  0.00  0.00    -0.059 C 
ATOM      7  C   UNL     1      -3.998   0.205  -4.743  0.00  0.00    +0.202 A 
ATOM      8  N   UNL     1      -4.543   1.404  -4.765  0.00  0.00    -0.208 NA
ATOM      9  C   UNL     1      -5.141   1.859  -5.860  0.00  0.00    +0.117 A 
ATOM     10  C   UNL     1      -5.223   1.097  -7.037  0.00  0.00    +0.076 A 
ATOM     11  C   UNL     1      -5.914   1.732  -8.162  0.00  0.00    -0.023 A 
ATOM     12  C   UNL     1      -6.398   2.974  -7.961  0.00  0.00    -0.004 A 
ATOM     13  S   UNL     1      -5.971   3.369  -6.286  0.00  0.00    -0.073 S 
ATOM     14  C   UNL     1      -7.136   3.830  -8.944  0.00  0.00    +0.043 C 
ATOM     15  C   UNL     1      -6.944   3.235 -10.346  0.00  0.00    +0.005 C 
ATOM     16  C   UNL     1      -7.211   1.729 -10.281  0.00  0.00    +0.005 C 
ATOM     17  C   UNL     1      -6.088   1.035  -9.509  0.00  0.00    +0.037 C 
ATOM     18  C   UNL     1      -4.622  -0.200  -6.984  0.00  0.00    +0.264 A 
ATOM     19  O   UNL     1      -4.645  -0.932  -7.958  0.00  0.00    -0.267 OA
ATOM     20  N   UNL     1      -4.028  -0.599  -5.844  0.00  0.00    -0.271 N 
ATOM     21  H   UNL     1      -2.038  -1.196  -1.050  0.00  0.00    -0.081 HD
ENDROOT
BRANCH   1  22
ATOM     22  C   UNL     1      -2.032   0.312   0.323  0.00  0.00    -0.048 C 
BRANCH  22  24
ATOM     23  C   UNL     1      -1.837  -1.812   1.828  0.00  0.00    +0.036 C 
ATOM     24  C   UNL     1      -2.596  -0.584   1.395  0.00  0.00    -0.096 C 
ATOM     25  C   UNL     1      -3.747  -0.295   1.952  0.00  0.00    +0.005 C 
ENDBRANCH  22  24
ENDBRANCH   1  22
BRANCH  20  26
ATOM     26  C   UNL     1      -3.406  -1.924  -5.784  0.00  0.00    +0.224 C 
BRANCH  26  27
ATOM     27  C   UNL     1      -4.451  -2.954  -5.440  0.00  0.00    +0.236 C 
ATOM     28  O   UNL     1      -5.602  -2.615  -5.263  0.00  0.00    -0.274 OA
ATOM     29  N   UNL     1      -4.106  -4.252  -5.330  0.00  0.00    -0.296 N 
ATOM     30  C   UNL     1      -2.716  -4.687  -5.534  0.00  0.00    +0.136 C 
ATOM     31  C   UNL     1      -2.301  -5.556  -4.341  0.00  0.00    +0.179 C 
ATOM     32  O   UNL     1      -3.269  -6.592  -4.154  0.00  0.00    -0.377 OA
ATOM     33  C   UNL     1      -4.579  -6.117  -3.834  0.00  0.00    +0.179 C 
ATOM     34  C   UNL     1      -5.109  -5.276  -4.995  0.00  0.00    +0.136 C 
ENDBRANCH  26  27
ENDBRANCH  20  26
TORSDOF 4
