REMARK  Name = ZINC45511225
REMARK  11 active torsions:
REMARK  status: ('A' for Active; 'I' for Inactive)
REMARK    1  A    between atoms: C_1  and  C_2
REMARK    2  A    between atoms: C_2  and  N_3
REMARK    3  A    between atoms: C_5  and  C_14
REMARK    4  A    between atoms: C_14  and  N_15
REMARK    5  A    between atoms: N_15  and  C_16
REMARK    6  A    between atoms: N_15  and  C_17
REMARK    7  A    between atoms: C_17  and  C_18
REMARK    8  A    between atoms: C_20  and  O_21
REMARK    9  A    between atoms: C_30  and  O_32
REMARK   10  A    between atoms: O_32  and  C_33
REMARK   11  A    between atoms: C_33  and  C_34
REMARK                            x       y       z     vdW  Elec       q    Type
REMARK                         _______ _______ _______ _____ _____    ______ ____
ROOT
ATOM      1  C   UNL     1      -0.231  -5.734  -6.436  0.00  0.00    -0.047 A 
ATOM      2  C   UNL     1       0.982  -6.146  -6.953  0.00  0.00    +0.090 A 
ATOM      3  C   UNL     1       1.251  -7.500  -7.090  0.00  0.00    +0.285 A 
ATOM      4  O   UNL     1       0.357  -8.428  -6.730  0.00  0.00    -0.425 OA
ATOM      5  C   UNL     1      -0.843  -8.081  -6.221  0.00  0.00    +0.141 A 
ATOM      6  C   UNL     1      -1.169  -6.715  -6.054  0.00  0.00    +0.019 A 
ATOM      7  C   UNL     1      -2.416  -6.349  -5.518  0.00  0.00    +0.013 A 
ATOM      8  C   UNL     1      -3.307  -7.309  -5.155  0.00  0.00    +0.024 A 
ATOM      9  C   UNL     1      -2.989  -8.670  -5.313  0.00  0.00    +0.040 A 
ATOM     10  C   UNL     1      -1.758  -9.050  -5.853  0.00  0.00    +0.070 A 
ATOM     11  N   UNL     1      -3.888  -9.622  -4.947  0.00  0.00    -0.251 N 
ATOM     12  C   UNL     1      -3.497 -10.878  -4.789  0.00  0.00    +0.405 C 
ATOM     13  O   UNL     1      -2.312 -11.161  -4.853  0.00  0.00    -0.226 OA
ATOM     14  H   UNL     1      -4.816  -9.381  -4.801  0.00  0.00    +0.158 HD
ENDROOT
BRANCH   3  15
ATOM     15  O   UNL     1       2.438  -7.888  -7.595  0.00  0.00    -0.480 OA
ATOM     16  H   UNL     1       2.544  -8.847  -7.656  0.00  0.00    +0.295 HD
ENDBRANCH   3  15
BRANCH   1  17
ATOM     17  C   UNL     1      -0.543  -4.268  -6.279  0.00  0.00    -0.042 C 
BRANCH  17  18
ATOM     18  N   UNL     1       0.004  -3.786  -5.004  0.00  0.00    +0.383 N 
ATOM     19  C   UNL     1       1.470  -3.870  -5.037  0.00  0.00    -0.096 C 
ATOM     20  H   UNL     1      -0.349  -4.355  -4.249  0.00  0.00    -0.082 HD
BRANCH  18  21
ATOM     21  C   UNL     1      -0.402  -2.389  -4.794  0.00  0.00    -0.032 C 
BRANCH  21  24
ATOM     22  N   UNL     1      -3.810  -0.847  -4.235  0.00  0.00    -0.324 N 
ATOM     23  C   UNL     1      -2.349  -0.859  -4.423  0.00  0.00    +0.147 C 
ATOM     24  C   UNL     1      -1.922  -2.318  -4.638  0.00  0.00    +0.174 C 
ATOM     25  O   UNL     1      -2.327  -3.088  -3.504  0.00  0.00    -0.487 OA
ATOM     26  C   UNL     1      -3.612  -2.962  -3.079  0.00  0.00    +0.142 A 
ATOM     27  C   UNL     1      -4.372  -1.846  -3.424  0.00  0.00    +0.072 A 
ATOM     28  C   UNL     1      -5.677  -1.724  -2.975  0.00  0.00    +0.027 A 
ATOM     29  C   UNL     1      -6.227  -2.712  -2.179  0.00  0.00    +0.002 A 
ATOM     30  C   UNL     1      -5.476  -3.819  -1.831  0.00  0.00    +0.004 A 
ATOM     31  C   UNL     1      -4.172  -3.951  -2.286  0.00  0.00    +0.047 A 
BRANCH  22  33
ATOM     32  C   UNL     1      -4.776   1.379  -3.930  0.00  0.00    +0.024 C 
ATOM     33  C   UNL     1      -4.647   0.176  -4.867  0.00  0.00    +0.102 C 
ENDBRANCH  22  33
ENDBRANCH  21  24
ENDBRANCH  18  21
ENDBRANCH  17  18
ENDBRANCH   1  17
BRANCH  12  34
ATOM     34  O   UNL     1      -4.411 -11.847  -4.558  0.00  0.00    -0.450 OA
BRANCH  34  35
ATOM     35  C   UNL     1      -3.918 -13.179  -4.398  0.00  0.00    +0.230 C 
ATOM     36  C   UNL     1      -5.091 -14.130  -4.146  0.00  0.00    +0.048 C 
ENDBRANCH  34  35
ENDBRANCH  12  34
TORSDOF 8
