REMARK  Name = ZINC39836408
REMARK  11 active torsions:
REMARK  status: ('A' for Active; 'I' for Inactive)
REMARK    1  A    between atoms: C_1  and  C_2
REMARK    2  A    between atoms: C_9  and  N_22
REMARK    3  A    between atoms: C_10  and  C_11
REMARK    4  A    between atoms: N_13  and  C_14
REMARK    5  A    between atoms: C_23  and  C_25
REMARK    6  A    between atoms: C_25  and  C_27
REMARK    7  A    between atoms: C_25  and  O_28
REMARK    8  A    between atoms: O_28  and  C_29
REMARK    9  A    between atoms: C_32  and  C_35
REMARK   10  A    between atoms: C_35  and  C_36
REMARK   11  A    between atoms: C_35  and  C_37
REMARK                            x       y       z     vdW  Elec       q    Type
REMARK                         _______ _______ _______ _____ _____    ______ ____
ROOT
ATOM      1  C   UNL     1       1.577   1.791  -0.150  0.00  0.00    +0.008 C 
ATOM      2  C   UNL     1       1.325   0.282  -0.127  0.00  0.00    -0.009 C 
ATOM      3  C   UNL     1       1.931  -0.359  -1.379  0.00  0.00    +0.008 C 
ATOM      4  C   UNL     1       1.476  -1.815  -1.491  0.00  0.00    +0.037 C 
ATOM      5  C   UNL     1       1.766  -2.519  -0.173  0.00  0.00    -0.023 A 
ATOM      6  C   UNL     1       1.988  -1.821   0.961  0.00  0.00    -0.004 A 
ATOM      7  S   UNL     1       2.273  -3.053   2.198  0.00  0.00    -0.077 S 
ATOM      8  C   UNL     1       2.106  -4.439   1.265  0.00  0.00    +0.085 A 
ATOM      9  C   UNL     1       1.830  -3.961  -0.006  0.00  0.00    +0.069 A 
ATOM     10  C   UNL     1       1.986  -0.331   1.117  0.00  0.00    +0.046 C 
ENDROOT
BRANCH   9  11
ATOM     11  C   UNL     1       1.612  -4.871  -1.135  0.00  0.00    +0.247 C 
ATOM     12  O   UNL     1       2.553  -5.228  -1.819  0.00  0.00    -0.270 OA
ATOM     13  N   UNL     1       0.369  -5.312  -1.414  0.00  0.00    -0.307 N 
ATOM     14  H   UNL     1      -0.380  -5.028  -0.868  0.00  0.00    +0.149 HD
BRANCH  13  15
ATOM     15  C   UNL     1       0.151  -6.222  -2.541  0.00  0.00    +0.096 C 
ATOM     16  C   UNL     1      -0.042  -5.411  -3.833  0.00  0.00    +0.046 C 
ATOM     17  C   UNL     1      -0.586  -6.327  -4.955  0.00  0.00    +0.168 C 
ATOM     18  S   UNL     1      -1.508  -7.612  -4.016  0.00  0.00    -0.029 S 
ATOM     19  O   UNL     1      -0.897  -8.875  -4.239  0.00  0.00    -0.174 OA
ATOM     20  O   UNL     1      -2.899  -7.455  -4.262  0.00  0.00    -0.174 OA
ATOM     21  C   UNL     1      -1.136  -7.060  -2.299  0.00  0.00    +0.188 C 
ENDBRANCH  13  15
ENDBRANCH   9  11
BRANCH   8  22
ATOM     22  N   UNL     1       2.219  -5.760   1.672  0.00  0.00    -0.276 N 
ATOM     23  C   UNL     1       2.495  -6.047   2.960  0.00  0.00    +0.258 C 
ATOM     24  O   UNL     1       2.645  -5.149   3.762  0.00  0.00    -0.271 OA
ATOM     25  H   UNL     1       2.100  -6.478   1.031  0.00  0.00    +0.155 HD
BRANCH  23  26
ATOM     26  C   UNL     1       2.618  -7.482   3.403  0.00  0.00    +0.256 C 
ATOM     27  C   UNL     1       3.824  -8.126   2.716  0.00  0.00    +0.062 C 
BRANCH  26  28
ATOM     28  O   UNL     1       2.796  -7.529   4.820  0.00  0.00    -0.480 OA
BRANCH  28  29
ATOM     29  C   UNL     1       2.416  -8.671   5.452  0.00  0.00    +0.122 A 
ATOM     30  C   UNL     1       2.450  -8.743   6.837  0.00  0.00    +0.046 A 
ATOM     31  C   UNL     1       2.063  -9.905   7.476  0.00  0.00    +0.007 A 
ATOM     32  C   UNL     1       1.641 -10.995   6.737  0.00  0.00    -0.045 A 
ATOM     33  C   UNL     1       1.606 -10.925   5.357  0.00  0.00    +0.007 A 
ATOM     34  C   UNL     1       1.987  -9.764   4.713  0.00  0.00    +0.046 A 
BRANCH  32  35
ATOM     35  C   UNL     1       1.219 -12.261   7.438  0.00  0.00    +0.013 C 
ATOM     36  C   UNL     1      -0.237 -12.576   7.088  0.00  0.00    +0.012 C 
ATOM     37  C   UNL     1       2.114 -13.416   6.985  0.00  0.00    +0.012 C 
ENDBRANCH  32  35
ENDBRANCH  28  29
ENDBRANCH  26  28
ENDBRANCH  23  26
ENDBRANCH   8  22
TORSDOF 7
