REMARK  Name = ZINC11698210
REMARK  6 active torsions:
REMARK  status: ('A' for Active; 'I' for Inactive)
REMARK    1  A    between atoms: C_1  and  C_2
REMARK    2  A    between atoms: C_5  and  C_14
REMARK    3  A    between atoms: C_12  and  C_13
REMARK    4  A    between atoms: C_14  and  S_15
REMARK    5  A    between atoms: S_15  and  C_16
REMARK    6  A    between atoms: C_19  and  C_22
REMARK                            x       y       z     vdW  Elec       q    Type
REMARK                         _______ _______ _______ _____ _____    ______ ____
ROOT
ATOM      1  C   UNL     1       2.718  -4.178  -0.045  0.00  0.00    +0.044 C 
ATOM      2  C   UNL     1       2.621  -2.674  -0.036  0.00  0.00    -0.047 A 
ATOM      3  C   UNL     1       1.393  -2.074  -0.022  0.00  0.00    +0.015 A 
ATOM      4  C   UNL     1       1.304  -0.679  -0.014  0.00  0.00    +0.022 A 
ATOM      5  C   UNL     1       0.002  -0.004   0.002  0.00  0.00    -0.020 A 
ATOM      6  C   UNL     1      -0.016   1.353   0.009  0.00  0.00    +0.097 A 
ATOM      7  C   UNL     1       1.199   2.071   0.002  0.00  0.00    +0.338 A 
ATOM      8  O   UNL     1       1.169   3.289   0.008  0.00  0.00    -0.245 OA
ATOM      9  O   UNL     1       2.387   1.447  -0.013  0.00  0.00    -0.422 OA
ATOM     10  C   UNL     1       2.475   0.100  -0.021  0.00  0.00    +0.140 A 
ATOM     11  C   UNL     1       3.712  -0.532  -0.036  0.00  0.00    +0.050 A 
ATOM     12  C   UNL     1       3.778  -1.910  -0.043  0.00  0.00    -0.044 A 
ATOM     13  C   UNL     1       5.122  -2.591  -0.058  0.00  0.00    +0.044 C 
ENDROOT
BRANCH   5  14
ATOM     14  C   UNL     1      -1.280  -0.796   0.011  0.00  0.00    +0.113 C 
BRANCH  14  15
ATOM     15  S   UNL     1      -1.810  -1.104  -1.692  0.00  0.00    -0.081 S 
BRANCH  15  16
ATOM     16  C   UNL     1      -3.286  -2.018  -1.393  0.00  0.00    +0.189 A 
ATOM     17  N   UNL     1      -4.131  -2.529  -2.336  0.00  0.00    -0.320 N 
ATOM     18  H   UNL     1      -4.042  -2.462  -3.300  0.00  0.00    +0.169 HD
ATOM     19  C   UNL     1      -5.129  -3.154  -1.641  0.00  0.00    +0.128 A 
ATOM     20  N   UNL     1      -4.868  -3.008  -0.373  0.00  0.00    -0.134 NA
ATOM     21  N   UNL     1      -3.779  -2.343  -0.220  0.00  0.00    -0.123 NA
ATOM     22  C   UNL     1      -6.311  -3.877  -2.232  0.00  0.00    +0.088 C 
ENDBRANCH  15  16
ENDBRANCH  14  15
ENDBRANCH   5  14
TORSDOF 3
