REMARK  Name = ZINC17083553
REMARK  3 active torsions:
REMARK  status: ('A' for Active; 'I' for Inactive)
REMARK    1  A    between atoms: C_1  and  C_2
REMARK    2  A    between atoms: C_14  and  C_17
REMARK    3  A    between atoms: C_22  and  O_23
REMARK                            x       y       z     vdW  Elec       q    Type
REMARK                         _______ _______ _______ _____ _____    ______ ____
ROOT
ATOM      1  C   UNL     1       0.140   1.284   2.497  0.00  0.00    +0.008 C 
ATOM      2  C   UNL     1      -0.726   1.578   1.270  0.00  0.00    -0.009 C 
ATOM      3  C   UNL     1      -0.013   1.086   0.008  0.00  0.00    +0.008 C 
ATOM      4  C   UNL     1      -0.749   1.591  -1.234  0.00  0.00    +0.037 C 
ATOM      5  C   UNL     1      -2.223   1.217  -1.118  0.00  0.00    -0.023 A 
ATOM      6  C   UNL     1      -2.762   0.889   0.077  0.00  0.00    -0.004 A 
ATOM      7  S   UNL     1      -4.464   0.533  -0.271  0.00  0.00    -0.078 S 
ATOM      8  C   UNL     1      -4.457   0.813  -1.960  0.00  0.00    +0.080 A 
ATOM      9  C   UNL     1      -3.135   1.186  -2.250  0.00  0.00    +0.068 A 
ATOM     10  C   UNL     1      -2.806   1.495  -3.660  0.00  0.00    +0.248 C 
ATOM     11  O   UNL     1      -1.660   1.706  -4.012  0.00  0.00    -0.270 OA
ATOM     12  N   UNL     1      -3.829   1.534  -4.539  0.00  0.00    -0.289 N 
ATOM     13  C   UNL     1      -5.233   1.521  -4.142  0.00  0.00    +0.194 C 
ATOM     14  N   UNL     1      -5.435   0.727  -2.917  0.00  0.00    -0.316 N 
ATOM     15  C   UNL     1      -2.065   0.840   1.401  0.00  0.00    +0.046 C 
ATOM     16  H   UNL     1      -3.559   1.578  -5.605  0.00  0.00    +0.151 HD
ATOM     17  H   UNL     1      -6.335   0.105  -2.806  0.00  0.00    +0.149 HD
ENDROOT
BRANCH  13  18
ATOM     18  C   UNL     1      -5.690   2.935  -3.894  0.00  0.00    +0.033 A 
ATOM     19  C   UNL     1      -6.612   3.200  -2.899  0.00  0.00    +0.026 A 
ATOM     20  C   UNL     1      -7.027   4.498  -2.667  0.00  0.00    +0.018 A 
ATOM     21  C   UNL     1      -6.529   5.534  -3.438  0.00  0.00    +0.019 A 
ATOM     22  C   UNL     1      -5.611   5.274  -4.436  0.00  0.00    +0.047 A 
ATOM     23  C   UNL     1      -5.189   3.972  -4.667  0.00  0.00    +0.123 A 
ATOM     24 BR   UNL     1      -8.284   4.858  -1.301  0.00  0.00    -0.050 Br
BRANCH  23  25
ATOM     25  O   UNL     1      -4.286   3.714  -5.649  0.00  0.00    -0.506 OA
ATOM     26  H   UNL     1      -3.889   4.537  -6.262  0.00  0.00    +0.292 HD
ENDBRANCH  23  25
ENDBRANCH  13  18
TORSDOF 2
