REMARK  Name = ZINC14461619
REMARK  11 active torsions:
REMARK  status: ('A' for Active; 'I' for Inactive)
REMARK    1  A    between atoms: C_1  and  C_2
REMARK    2  A    between atoms: C_2  and  N_3
REMARK    3  A    between atoms: N_3  and  C_4
REMARK    4  A    between atoms: N_3  and  C_6
REMARK    5  A    between atoms: C_4  and  C_5
REMARK    6  A    between atoms: C_9  and  C_12
REMARK    7  A    between atoms: C_23  and  S_28
REMARK    8  A    between atoms: S_28  and  N_31
REMARK    9  A    between atoms: N_31  and  C_32
REMARK   10  A    between atoms: C_35  and  C_39
REMARK   11  A    between atoms: C_37  and  C_38
REMARK                            x       y       z     vdW  Elec       q    Type
REMARK                         _______ _______ _______ _____ _____    ______ ____
ROOT
ATOM      1  C   UNL     1       3.264   1.141   1.940  0.00  0.00    +0.105 C 
ATOM      2  C   UNL     1       4.024   1.624   3.178  0.00  0.00    +0.029 C 
ATOM      3  C   UNL     1       3.063   1.488   4.395  0.00  0.00    +0.033 C 
ATOM      4  C   UNL     1       2.217   2.744   4.316  0.00  0.00    -0.030 C 
ATOM      5  C   UNL     1       2.833   3.670   3.622  0.00  0.00    -0.023 C 
ATOM      6  C   UNL     1       4.169   3.158   3.139  0.00  0.00    +0.049 C 
ATOM      7  C   UNL     1       4.494   3.679   1.775  0.00  0.00    -0.018 A 
ATOM      8  C   UNL     1       4.900   5.001   1.646  0.00  0.00    +0.034 A 
ATOM      9  C   UNL     1       5.213   5.521   0.406  0.00  0.00    +0.109 A 
ATOM     10  C   UNL     1       5.126   4.729  -0.724  0.00  0.00    +0.030 A 
ATOM     11  C   UNL     1       4.723   3.413  -0.609  0.00  0.00    +0.025 A 
ATOM     12  C   UNL     1       4.407   2.890   0.639  0.00  0.00    +0.031 A 
ATOM     13  N   UNL     1       3.998   1.556   0.740  0.00  0.00    -0.336 N 
ATOM     14  H   UNL     1       4.195   0.921   0.033  0.00  0.00    +0.147 HD
ENDROOT
BRANCH   1  18
ATOM     15  C   UNL     1      -0.646   2.866   1.895  0.00  0.00    +0.030 A 
ATOM     16  C   UNL     1      -0.432   1.641   2.515  0.00  0.00    +0.023 A 
ATOM     17  C   UNL     1       0.833   1.089   2.533  0.00  0.00    +0.007 A 
ATOM     18  C   UNL     1       1.885   1.749   1.924  0.00  0.00    -0.027 A 
ATOM     19  C   UNL     1       1.675   2.966   1.302  0.00  0.00    +0.007 A 
ATOM     20  C   UNL     1       0.413   3.526   1.286  0.00  0.00    +0.023 A 
BRANCH  15  21
ATOM     21  N   UNL     1      -1.923   3.430   1.881  0.00  0.00    -0.330 N 
BRANCH  21  23
ATOM     22  C   UNL     1      -3.141   3.172   3.986  0.00  0.00    +0.024 C 
ATOM     23  C   UNL     1      -3.039   2.733   2.525  0.00  0.00    +0.102 C 
ENDBRANCH  21  23
BRANCH  21  24
ATOM     24  C   UNL     1      -2.148   4.719   1.222  0.00  0.00    +0.102 C 
ATOM     25  C   UNL     1      -2.513   4.485  -0.245  0.00  0.00    +0.024 C 
ENDBRANCH  21  24
ENDBRANCH  15  21
ENDBRANCH   1  18
BRANCH   9  26
ATOM     26  S   UNL     1       5.725   7.200   0.264  0.00  0.00    +0.072 S 
ATOM     27  O   UNL     1       6.250   7.574   1.530  0.00  0.00    -0.150 OA
ATOM     28  O   UNL     1       6.486   7.292  -0.933  0.00  0.00    -0.150 OA
BRANCH  26  29
ATOM     29  N   UNL     1       4.362   8.110   0.029  0.00  0.00    -0.216 N 
ATOM     30  H   UNL     1       4.265   8.639  -0.778  0.00  0.00    +0.174 HD
BRANCH  29  31
ATOM     31  C   UNL     1       3.351   8.115   0.993  0.00  0.00    +0.051 A 
ATOM     32  C   UNL     1       3.667   7.935   2.334  0.00  0.00    +0.025 A 
ATOM     33  C   UNL     1       2.666   7.941   3.285  0.00  0.00    +0.005 A 
ATOM     34  C   UNL     1       1.349   8.127   2.904  0.00  0.00    -0.050 A 
ATOM     35  C   UNL     1       1.031   8.306   1.570  0.00  0.00    +0.008 A 
ATOM     36  C   UNL     1       2.029   8.306   0.615  0.00  0.00    -0.028 A 
ATOM     37  C   UNL     1       1.681   8.507  -0.838  0.00  0.00    +0.046 C 
ATOM     38  C   UNL     1       0.259   8.134   3.944  0.00  0.00    +0.044 C 
ENDBRANCH  29  31
ENDBRANCH  26  29
ENDBRANCH   9  26
TORSDOF 7
