REMARK  Name = ZINC50346908
REMARK  6 active torsions:
REMARK  status: ('A' for Active; 'I' for Inactive)
REMARK    1  A    between atoms: C_1  and  C_2
REMARK    2  A    between atoms: C_2  and  C_3
REMARK    3  A    between atoms: C_2  and  C_4
REMARK    4  A    between atoms: C_2  and  C_5
REMARK    5  A    between atoms: N_8  and  C_11
REMARK    6  A    between atoms: C_11  and  C_12
REMARK                            x       y       z     vdW  Elec       q    Type
REMARK                         _______ _______ _______ _____ _____    ______ ____
ROOT
ATOM      1  C   UNL     1       0.718  -0.497  -1.257  0.00  0.00    -0.009 C 
ATOM      2  C   UNL     1       0.749  -2.029  -1.262  0.00  0.00    -0.015 C 
ATOM      3  C   UNL     1       1.535  -2.514  -2.482  0.00  0.00    -0.078 C 
ATOM      4  N   UNL     1       2.907  -1.996  -2.421  0.00  0.00    +0.381 N 
ATOM      5  C   UNL     1       2.889  -0.530  -2.489  0.00  0.00    -0.078 C 
ATOM      6  C   UNL     1       2.155   0.032  -1.269  0.00  0.00    -0.015 C 
ATOM      7  H   UNL     1       3.337  -2.287  -1.557  0.00  0.00    -0.082 HD
ENDROOT
BRANCH   1   9
ATOM      8  C   UNL     1      -0.019   1.526   0.010  0.00  0.00    +0.011 C 
ATOM      9  C   UNL     1       0.002  -0.004   0.002  0.00  0.00    -0.035 C 
ATOM     10  C   UNL     1       0.742  -0.511   1.242  0.00  0.00    +0.011 C 
ATOM     11  C   UNL     1      -1.433  -0.534   0.013  0.00  0.00    +0.011 C 
ENDBRANCH   1   9
BRANCH   4  12
ATOM     12  C   UNL     1       3.679  -2.527  -3.553  0.00  0.00    -0.045 C 
BRANCH  12  13
ATOM     13  C   UNL     1       5.140  -2.090  -3.423  0.00  0.00    +0.127 C 
ATOM     14  C   UNL     1       6.112  -2.515  -4.526  0.00  0.00    +0.189 C 
ATOM     15  O   UNL     1       5.647  -1.169  -4.391  0.00  0.00    -0.374 OA
ENDBRANCH  12  13
ENDBRANCH   4  12
TORSDOF 3
