REMARK  Name = ZINC14950927
REMARK  9 active torsions:
REMARK  status: ('A' for Active; 'I' for Inactive)
REMARK    1  A    between atoms: C_10  and  C_11
REMARK    2  A    between atoms: C_10  and  N_59
REMARK    3  A    between atoms: C_11  and  C_13
REMARK    4  A    between atoms: C_11  and  O_28
REMARK    5  A    between atoms: C_13  and  O_14
REMARK    6  A    between atoms: O_14  and  C_15
REMARK    7  A    between atoms: C_19  and  C_21
REMARK    8  A    between atoms: C_21  and  N_61
REMARK    9  A    between atoms: C_22  and  N_61
REMARK                            x       y       z     vdW  Elec       q    Type
REMARK                         _______ _______ _______ _____ _____    ______ ____
ROOT
ATOM      1  O   UNL     1      -3.877  -2.062  -2.359  0.00  0.00    -0.489 OA
ENDROOT
BRANCH   1   2
ATOM      2  C   UNL     1      -3.194  -1.928  -1.192  0.00  0.00    +0.121 A 
ATOM      3  C   UNL     1      -3.861  -2.031   0.020  0.00  0.00    +0.045 A 
ATOM      4  C   UNL     1      -3.164  -1.894   1.205  0.00  0.00    +0.004 A 
ATOM      5  C   UNL     1      -1.801  -1.661   1.183  0.00  0.00    +0.002 A 
ATOM      6  C   UNL     1      -1.135  -1.552  -0.023  0.00  0.00    -0.061 A 
ATOM      7  C   UNL     1      -1.827  -1.688  -1.211  0.00  0.00    +0.047 A 
BRANCH   6   8
ATOM      8  C   UNL     1       0.349  -1.292  -0.043  0.00  0.00    -0.046 C 
BRANCH   8   9
ATOM      9  N   UNL     1       0.585   0.164  -0.066  0.00  0.00    +0.384 N 
ATOM     10  H   UNL     1       0.167   0.588   0.771  0.00  0.00    -0.085 HD
ATOM     11  H   UNL     1       0.149   0.564  -0.906  0.00  0.00    -0.085 HD
BRANCH   9  12
ATOM     12  C   UNL     1       2.032   0.449  -0.086  0.00  0.00    -0.067 C 
ATOM     13  C   UNL     1       2.572   0.459   1.347  0.00  0.00    +0.012 C 
ATOM     14  C   UNL     1       4.054   0.842   1.323  0.00  0.00    +0.158 C 
ATOM     15  O   UNL     1       4.206   2.116   0.695  0.00  0.00    -0.380 OA
ATOM     16  C   UNL     1       3.760   2.154  -0.663  0.00  0.00    +0.158 C 
ATOM     17  C   UNL     1       2.267   1.825  -0.718  0.00  0.00    +0.012 C 
ENDBRANCH   9  12
ENDBRANCH   8   9
ENDBRANCH   6   8
ENDBRANCH   1   2
BRANCH   1  18
ATOM     18  C   UNL     1      -5.282  -2.307  -2.263  0.00  0.00    +0.258 C 
BRANCH  18  19
ATOM     19  C   UNL     1      -5.875  -2.428  -3.668  0.00  0.00    +0.135 C 
BRANCH  19  20
ATOM     20  O   UNL     1      -5.334  -3.580  -4.317  0.00  0.00    -0.390 OA
ATOM     21  H   UNL     1      -5.515  -4.412  -3.858  0.00  0.00    +0.210 HD
ENDBRANCH  19  20
BRANCH  19  22
ATOM     22  C   UNL     1      -7.396  -2.566  -3.569  0.00  0.00    -0.043 C 
BRANCH  22  32
ATOM     23  C   UNL     1     -11.152  -3.119  -8.756  0.00  0.00    +0.000 A 
ATOM     24  C   UNL     1     -11.690  -3.879  -7.733  0.00  0.00    +0.000 A 
ATOM     25  C   UNL     1     -11.095  -3.876  -6.488  0.00  0.00    +0.002 A 
ATOM     26  C   UNL     1      -9.958  -3.115  -6.256  0.00  0.00    -0.061 A 
ATOM     27  C   UNL     1      -9.421  -2.360  -7.276  0.00  0.00    -0.048 A 
ATOM     28  C   UNL     1     -10.021  -2.362  -8.527  0.00  0.00    +0.004 A 
ATOM     29  C   UNL     1      -8.184  -1.522  -7.074  0.00  0.00    +0.017 C 
ATOM     30  C   UNL     1      -7.928  -1.323  -5.580  0.00  0.00    -0.074 C 
ATOM     31  C   UNL     1      -9.346  -3.141  -4.880  0.00  0.00    -0.043 C 
ATOM     32  N   UNL     1      -7.959  -2.652  -4.935  0.00  0.00    +0.384 N 
ATOM     33  H   UNL     1      -7.394  -3.307  -5.488  0.00  0.00    -0.081 HD
ENDBRANCH  22  32
ENDBRANCH  19  22
ENDBRANCH  18  19
ENDBRANCH   1  18
TORSDOF 9
