REMARK  Name = ZINC18322620
REMARK  7 active torsions:
REMARK  status: ('A' for Active; 'I' for Inactive)
REMARK    1  A    between atoms: C_4  and  C_7
REMARK    2  A    between atoms: C_15  and  C_25
REMARK    3  A    between atoms: C_17  and  C_19
REMARK    4  A    between atoms: C_25  and  C_27
REMARK    5  A    between atoms: C_25  and  C_33
REMARK    6  A    between atoms: C_33  and  C_34
REMARK    7  A    between atoms: C_33  and  C_36
REMARK                            x       y       z     vdW  Elec       q    Type
REMARK                         _______ _______ _______ _____ _____    ______ ____
ROOT
ATOM      1  C   UNL     1       4.980   0.226  -3.047  0.00  0.00    +0.080 A 
ATOM      2  C   UNL     1       4.927  -1.128  -3.231  0.00  0.00    +0.077 A 
ATOM      3  S   UNL     1       6.469  -1.626  -2.474  0.00  0.00    -0.058 S 
ATOM      4  C   UNL     1       7.020   0.006  -1.996  0.00  0.00    +0.188 A 
ATOM      5  N   UNL     1       6.029   0.758  -2.438  0.00  0.00    -0.223 NA
ATOM      6  N   UNL     1       8.184   0.384  -1.337  0.00  0.00    -0.135 N 
ATOM      7  C   UNL     1       9.144  -0.474  -0.935  0.00  0.00    +0.251 C 
ATOM      8  O   UNL     1       9.158  -1.679  -1.073  0.00  0.00    -0.273 OA
ATOM      9  C   UNL     1      10.203   0.388  -0.276  0.00  0.00    +0.137 C 
ATOM     10  C   UNL     1       9.648   1.792  -0.399  0.00  0.00    +0.080 C 
ATOM     11  N   UNL     1       8.513   1.697  -1.013  0.00  0.00    -0.174 NA
ENDROOT
BRANCH   1  15
ATOM     12  C   UNL     1       1.816   2.705  -4.432  0.00  0.00    +0.000 A 
ATOM     13  C   UNL     1       2.907   3.271  -3.797  0.00  0.00    +0.001 A 
ATOM     14  C   UNL     1       3.937   2.471  -3.345  0.00  0.00    +0.010 A 
ATOM     15  C   UNL     1       3.877   1.091  -3.530  0.00  0.00    +0.001 A 
ATOM     16  C   UNL     1       2.775   0.526  -4.170  0.00  0.00    +0.010 A 
ATOM     17  C   UNL     1       1.751   1.336  -4.618  0.00  0.00    +0.001 A 
ENDBRANCH   1  15
BRANCH  10  18
ATOM     18  C   UNL     1      10.283   3.032   0.085  0.00  0.00    -0.001 A 
ATOM     19  C   UNL     1      11.579   3.000   0.607  0.00  0.00    +0.010 A 
ATOM     20  C   UNL     1      12.167   4.163   1.057  0.00  0.00    +0.001 A 
ATOM     21  C   UNL     1      11.476   5.361   0.993  0.00  0.00    +0.000 A 
ATOM     22  C   UNL     1      10.193   5.400   0.478  0.00  0.00    +0.001 A 
ATOM     23  C   UNL     1       9.595   4.246   0.018  0.00  0.00    +0.010 A 
ENDBRANCH  10  18
BRANCH   9  24
ATOM     24  C   UNL     1      10.372   0.000   1.195  0.00  0.00    +0.068 C 
BRANCH  24  25
ATOM     25  C   UNL     1      10.973  -1.379   1.284  0.00  0.00    -0.041 A 
ATOM     26  C   UNL     1      10.157  -2.493   1.226  0.00  0.00    +0.004 A 
ATOM     27  C   UNL     1      10.707  -3.759   1.308  0.00  0.00    +0.000 A 
ATOM     28  C   UNL     1      12.075  -3.909   1.448  0.00  0.00    +0.000 A 
ATOM     29  C   UNL     1      12.891  -2.795   1.505  0.00  0.00    +0.000 A 
ATOM     30  C   UNL     1      12.340  -1.530   1.419  0.00  0.00    +0.004 A 
ENDBRANCH  24  25
BRANCH  24  31
ATOM     31  C   UNL     1       9.007   0.008   1.885  0.00  0.00    +0.202 C 
BRANCH  31  32
ATOM     32  C   UNL     1       9.142  -0.537   3.246  0.00  0.00    +0.081 C 
ATOM     33  N   UNL     1       9.247  -0.958   4.296  0.00  0.00    -0.195 NA
ENDBRANCH  31  32
BRANCH  31  34
ATOM     34  C   UNL     1       8.502   1.389   1.958  0.00  0.00    +0.081 C 
ATOM     35  N   UNL     1       8.111   2.454   2.014  0.00  0.00    -0.195 NA
ENDBRANCH  31  34
ENDBRANCH  24  31
ENDBRANCH   9  24
TORSDOF 7
