REMARK  Name = ZINC08641540
REMARK  8 active torsions:
REMARK  status: ('A' for Active; 'I' for Inactive)
REMARK    1  A    between atoms: C_1  and  C_2
REMARK    2  A    between atoms: C_2  and  C_3
REMARK    3  A    between atoms: C_2  and  C_4
REMARK    4  A    between atoms: C_4  and  C_6
REMARK    5  A    between atoms: C_4  and  S_12
REMARK    6  A    between atoms: S_12  and  C_13
REMARK    7  A    between atoms: C_16  and  C_24
REMARK    8  A    between atoms: N_17  and  C_18
REMARK                            x       y       z     vdW  Elec       q    Type
REMARK                         _______ _______ _______ _____ _____    ______ ____
ROOT
ATOM      1  C   UNL     1       4.604   0.557  -0.372  0.00  0.00    +0.197 A 
ATOM      2  N   UNL     1       3.913  -0.559  -0.299  0.00  0.00    -0.122 NA
ATOM      3  N   UNL     1       2.655  -0.306  -0.359  0.00  0.00    -0.128 NA
ATOM      4  C   UNL     1       2.462   0.987  -0.484  0.00  0.00    +0.169 A 
ATOM      5  N   UNL     1       3.705   1.581  -0.492  0.00  0.00    -0.270 N 
ENDROOT
BRANCH   4   6
ATOM      6  C   UNL     1       1.159   1.675  -0.590  0.00  0.00    +0.020 A 
ATOM      7  C   UNL     1       0.004   0.947  -0.880  0.00  0.00    +0.013 A 
ATOM      8  C   UNL     1      -1.210   1.595  -0.982  0.00  0.00    +0.021 A 
ATOM      9  C   UNL     1      -1.285   2.964  -0.786  0.00  0.00    +0.041 A 
ATOM     10  C   UNL     1      -0.143   3.692  -0.497  0.00  0.00    +0.021 A 
ATOM     11  C   UNL     1       1.077   3.055  -0.398  0.00  0.00    +0.013 A 
ATOM     12 CL   UNL     1      -2.816   3.772  -0.911  0.00  0.00    -0.084 Cl
ENDBRANCH   4   6
BRANCH   5  13
ATOM     13  C   UNL     1       3.990   2.950  -0.601  0.00  0.00    +0.051 A 
ATOM     14  C   UNL     1       3.677   3.635  -1.767  0.00  0.00    +0.026 A 
ATOM     15  C   UNL     1       3.954   4.984  -1.869  0.00  0.00    +0.002 A 
ATOM     16  C   UNL     1       4.553   5.650  -0.815  0.00  0.00    +0.000 A 
ATOM     17  C   UNL     1       4.870   4.970   0.346  0.00  0.00    +0.002 A 
ATOM     18  C   UNL     1       4.590   3.621   0.456  0.00  0.00    +0.026 A 
ENDBRANCH   5  13
BRANCH   1  19
ATOM     19  S   UNL     1       6.359   0.705  -0.323  0.00  0.00    -0.073 S 
BRANCH  19  20
ATOM     20  C   UNL     1       6.812  -1.019  -0.009  0.00  0.00    +0.143 C 
BRANCH  20  21
ATOM     21  C   UNL     1       6.372  -1.410   1.378  0.00  0.00    +0.234 C 
ATOM     22  O   UNL     1       6.149  -0.554   2.207  0.00  0.00    -0.274 OA
ATOM     23  N   UNL     1       6.227  -2.711   1.698  0.00  0.00    -0.239 N 
ATOM     24  C   UNL     1       5.834  -3.061   2.938  0.00  0.00    +0.303 C 
ATOM     25  O   UNL     1       5.610  -2.202   3.769  0.00  0.00    -0.253 OA
ATOM     26  N   UNL     1       5.689  -4.362   3.258  0.00  0.00    -0.313 N 
ATOM     27  H   UNL     1       6.406  -3.396   1.034  0.00  0.00    +0.159 HD
ATOM     28  H   UNL     1       5.868  -5.047   2.595  0.00  0.00    +0.146 HD
ATOM     29  H   UNL     1       5.406  -4.613   4.151  0.00  0.00    +0.146 HD
ENDBRANCH  20  21
BRANCH  20  31
ATOM     30  C   UNL     1       8.714  -2.630   0.158  0.00  0.00    +0.009 C 
ATOM     31  C   UNL     1       8.329  -1.177  -0.127  0.00  0.00    +0.005 C 
ATOM     32  C   UNL     1       8.773  -0.801  -1.542  0.00  0.00    +0.009 C 
ENDBRANCH  20  31
ENDBRANCH  19  20
ENDBRANCH   1  19
TORSDOF 6
