REMARK  Name = ZINC33366760
REMARK  8 active torsions:
REMARK  status: ('A' for Active; 'I' for Inactive)
REMARK    1  A    between atoms: C_1  and  C_2
REMARK    2  A    between atoms: C_5  and  N_9
REMARK    3  A    between atoms: C_14  and  C_31
REMARK    4  A    between atoms: C_17  and  C_22
REMARK    5  A    between atoms: C_17  and  C_28
REMARK    6  A    between atoms: C_34  and  C_37
REMARK    7  A    between atoms: C_37  and  O_39
REMARK    8  A    between atoms: O_39  and  C_40
REMARK                            x       y       z     vdW  Elec       q    Type
REMARK                         _______ _______ _______ _____ _____    ______ ____
ROOT
ATOM      1  N   UNL     1      -0.079  -4.343  -0.431  0.00  0.00    -0.210 N 
ATOM      2  C   UNL     1      -0.080  -5.230  -1.479  0.00  0.00    +0.229 C 
ATOM      3  O   UNL     1       0.088  -4.988  -2.655  0.00  0.00    -0.275 OA
ATOM      4  C   UNL     1      -0.326  -6.515  -0.867  0.00  0.00    +0.078 C 
ATOM      5  C   UNL     1      -0.185  -7.949  -1.160  0.00  0.00    -0.026 C 
ATOM      6  N   UNL     1      -0.242  -8.609   0.186  0.00  0.00    +0.398 N 
ATOM      7  C   UNL     1      -0.289  -7.524   1.219  0.00  0.00    +0.074 C 
ATOM      8  C   UNL     1       0.444  -6.368   0.506  0.00  0.00    +0.090 C 
ATOM      9  C   UNL     1      -0.007  -4.960   0.785  0.00  0.00    +0.229 C 
ATOM     10  O   UNL     1      -0.257  -4.475   1.867  0.00  0.00    -0.275 OA
ATOM     11  H   UNL     1      -1.071  -9.181   0.252  0.00  0.00    -0.083 HD
ATOM     12  H   UNL     1       0.580  -9.178   0.323  0.00  0.00    -0.083 HD
ENDROOT
BRANCH   1  17
ATOM     13  C   UNL     1      -0.326   1.291  -1.087  0.00  0.00    +0.045 C 
ATOM     14  C   UNL     1      -0.261  -0.205  -0.913  0.00  0.00    -0.032 A 
ATOM     15  C   UNL     1      -0.272  -1.030  -2.022  0.00  0.00    +0.006 A 
ATOM     16  C   UNL     1      -0.212  -2.401  -1.865  0.00  0.00    +0.024 A 
ATOM     17  C   UNL     1      -0.140  -2.951  -0.593  0.00  0.00    +0.045 A 
ATOM     18  C   UNL     1      -0.129  -2.121   0.520  0.00  0.00    +0.044 A 
ATOM     19  C   UNL     1      -0.184  -0.749   0.357  0.00  0.00    +0.046 A 
ATOM     20 CL   UNL     1      -0.164   0.290   1.747  0.00  0.00    -0.083 Cl
ENDBRANCH   1  17
BRANCH   7  21
ATOM     21  C   UNL     1      -1.714  -7.162   1.549  0.00  0.00    -0.047 A 
ATOM     22  C   UNL     1      -2.746  -7.622   0.753  0.00  0.00    +0.003 A 
ATOM     23  C   UNL     1      -4.053  -7.290   1.056  0.00  0.00    +0.000 A 
ATOM     24  C   UNL     1      -4.329  -6.499   2.155  0.00  0.00    +0.000 A 
ATOM     25  C   UNL     1      -3.297  -6.040   2.952  0.00  0.00    +0.000 A 
ATOM     26  C   UNL     1      -1.990  -6.375   2.652  0.00  0.00    +0.003 A 
ENDBRANCH   7  21
BRANCH   5  27
ATOM     27  C   UNL     1       1.137  -8.223  -1.829  0.00  0.00    -0.061 A 
ATOM     28  C   UNL     1       2.288  -8.318  -1.066  0.00  0.00    +0.003 A 
ATOM     29  C   UNL     1       3.502  -8.568  -1.672  0.00  0.00    +0.015 A 
ATOM     30  C   UNL     1       3.568  -8.726  -3.058  0.00  0.00    +0.059 A 
ATOM     31  C   UNL     1       2.403  -8.629  -3.821  0.00  0.00    +0.015 A 
ATOM     32  C   UNL     1       1.195  -8.384  -3.202  0.00  0.00    +0.003 A 
BRANCH  30  33
ATOM     33  C   UNL     1       4.864  -8.994  -3.713  0.00  0.00    +0.339 C 
ATOM     34  O   UNL     1       5.876  -9.078  -3.046  0.00  0.00    -0.245 OA
BRANCH  33  35
ATOM     35  O   UNL     1       4.924  -9.146  -5.050  0.00  0.00    -0.464 OA
ATOM     36  C   UNL     1       6.210  -9.403  -5.617  0.00  0.00    +0.280 C 
ENDBRANCH  33  35
ENDBRANCH  30  33
ENDBRANCH   5  27
BRANCH   7  37
ATOM     37  C   UNL     1       0.460  -7.936   2.460  0.00  0.00    +0.350 C 
ATOM     38  O   UNL     1       0.975  -9.039   2.524  0.00  0.00    -0.248 OA
ATOM     39  O   UNL     1       0.552  -7.165   3.401  0.00  0.00    -0.248 OA
ENDBRANCH   7  37
TORSDOF 6
