REMARK  Name = ZINC36580598
REMARK  16 active torsions:
REMARK  status: ('A' for Active; 'I' for Inactive)
REMARK    1  A    between atoms: C_1  and  C_2
REMARK    2  A    between atoms: C_5  and  S_8
REMARK    3  A    between atoms: S_8  and  C_11
REMARK    4  A    between atoms: C_11  and  N_12
REMARK    5  A    between atoms: C_13  and  C_15
REMARK    6  A    between atoms: C_15  and  C_17
REMARK    7  A    between atoms: C_15  and  N_24
REMARK    8  A    between atoms: C_22  and  O_23
REMARK    9  A    between atoms: N_24  and  C_31
REMARK   10  A    between atoms: C_25  and  C_27
REMARK   11  A    between atoms: C_27  and  C_28
REMARK   12  A    between atoms: C_28  and  C_29
REMARK   13  A    between atoms: C_28  and  C_30
REMARK   14  A    between atoms: C_31  and  C_32
REMARK   15  A    between atoms: C_31  and  C_33
REMARK   16  A    between atoms: C_31  and  C_34
REMARK                            x       y       z     vdW  Elec       q    Type
REMARK                         _______ _______ _______ _____ _____    ______ ____
ROOT
ATOM      1  C   UNL     1       3.320  -4.064   3.461  0.00  0.00    +0.196 C 
ENDROOT
BRANCH   1   2
ATOM      2  C   UNL     1       4.803  -3.991   3.202  0.00  0.00    +0.023 A 
ATOM      3  C   UNL     1       5.499  -5.129   2.843  0.00  0.00    +0.009 A 
ATOM      4  C   UNL     1       6.859  -5.063   2.606  0.00  0.00    +0.001 A 
ATOM      5  C   UNL     1       7.527  -3.858   2.727  0.00  0.00    +0.004 A 
ATOM      6  C   UNL     1       6.836  -2.717   3.085  0.00  0.00    +0.046 A 
ATOM      7  C   UNL     1       5.469  -2.780   3.318  0.00  0.00    +0.122 A 
BRANCH   7   8
ATOM      8  O   UNL     1       4.786  -1.658   3.666  0.00  0.00    -0.506 OA
ATOM      9  H   UNL     1       4.745  -1.501   4.619  0.00  0.00    +0.292 HD
ENDBRANCH   7   8
ENDBRANCH   1   2
BRANCH   1  11
ATOM     10  N   UNL     1       2.725  -2.313   1.818  0.00  0.00    -0.294 N 
ATOM     11  C   UNL     1       2.574  -3.583   2.243  0.00  0.00    +0.239 C 
ATOM     12  O   UNL     1       1.837  -4.339   1.646  0.00  0.00    -0.273 OA
ATOM     13  H   UNL     1       3.314  -1.709   2.295  0.00  0.00    +0.150 HD
BRANCH  10  14
ATOM     14  C   UNL     1       1.999  -1.846   0.634  0.00  0.00    +0.278 C 
BRANCH  14  15
ATOM     15  S   UNL     1       0.461  -1.033   1.149  0.00  0.00    +0.013 S 
ATOM     16  O   UNL     1      -0.220  -1.834   2.105  0.00  0.00    -0.168 OA
ATOM     17  O   UNL     1      -0.224  -0.518   0.016  0.00  0.00    -0.168 OA
BRANCH  15  22
ATOM     18  C   UNL     1       2.239   3.848   4.219  0.00  0.00    +0.044 C 
ATOM     19  C   UNL     1       1.795   2.629   3.452  0.00  0.00    -0.050 A 
ATOM     20  C   UNL     1       1.591   2.707   2.087  0.00  0.00    +0.005 A 
ATOM     21  C   UNL     1       1.183   1.589   1.384  0.00  0.00    +0.027 A 
ATOM     22  C   UNL     1       0.982   0.392   2.046  0.00  0.00    +0.090 A 
ATOM     23  C   UNL     1       1.187   0.313   3.410  0.00  0.00    +0.027 A 
ATOM     24  C   UNL     1       1.598   1.431   4.113  0.00  0.00    +0.005 A 
ENDBRANCH  15  22
ENDBRANCH  14  15
ENDBRANCH  10  14
ENDBRANCH   1  11
BRANCH   1  25
ATOM     25  N   UNL     1       2.942  -5.449   3.750  0.00  0.00    -0.281 N 
ATOM     26  C   UNL     1       3.037  -6.388   2.788  0.00  0.00    +0.217 C 
ATOM     27  O   UNL     1       3.382  -6.076   1.668  0.00  0.00    -0.276 OA
BRANCH  25  28
ATOM     28  C   UNL     1       2.462  -5.814   5.085  0.00  0.00    +0.030 C 
ATOM     29  C   UNL     1       2.137  -4.544   5.875  0.00  0.00    +0.031 C 
ATOM     30  C   UNL     1       1.201  -6.671   4.957  0.00  0.00    +0.031 C 
ATOM     31  C   UNL     1       3.545  -6.607   5.818  0.00  0.00    +0.031 C 
ENDBRANCH  25  28
BRANCH  26  32
ATOM     32  C   UNL     1       2.715  -7.826   3.104  0.00  0.00    +0.099 C 
BRANCH  32  33
ATOM     33  C   UNL     1       3.053  -8.702   1.896  0.00  0.00    -0.008 C 
ATOM     34  C   UNL     1       4.562  -8.671   1.650  0.00  0.00    +0.008 C 
ATOM     35  C   UNL     1       2.610 -10.141   2.170  0.00  0.00    +0.008 C 
ENDBRANCH  32  33
ENDBRANCH  26  32
ENDBRANCH   1  25
TORSDOF 10
