REMARK  Name = ZINC00626026
REMARK  8 active torsions:
REMARK  status: ('A' for Active; 'I' for Inactive)
REMARK    1  A    between atoms: C_1  and  C_2
REMARK    2  A    between atoms: C_5  and  N_8
REMARK    3  A    between atoms: N_8  and  S_9
REMARK    4  A    between atoms: S_9  and  C_12
REMARK    5  A    between atoms: C_23  and  S_25
REMARK    6  A    between atoms: S_25  and  N_28
REMARK    7  A    between atoms: N_28  and  C_29
REMARK    8  A    between atoms: C_32  and  C_35
REMARK                            x       y       z     vdW  Elec       q    Type
REMARK                         _______ _______ _______ _____ _____    ______ ____
ROOT
ATOM      1  C   UNL     1      -1.603  -1.224   1.645  0.00  0.00    +0.109 A 
ATOM      2  C   UNL     1      -1.452   0.142   1.811  0.00  0.00    +0.029 A 
ATOM      3  C   UNL     1      -0.232   0.740   1.575  0.00  0.00    +0.011 A 
ATOM      4  C   UNL     1       0.857  -0.034   1.167  0.00  0.00    -0.014 A 
ATOM      5  C   UNL     1       0.695  -1.407   1.004  0.00  0.00    -0.033 A 
ATOM      6  C   UNL     1      -0.528  -1.996   1.242  0.00  0.00    +0.033 A 
ATOM      7  C   UNL     1       2.024  -1.972   0.564  0.00  0.00    +0.071 C 
ATOM      8  C   UNL     1       2.971  -0.799   0.487  0.00  0.00    -0.033 A 
ATOM      9  C   UNL     1       2.257   0.340   0.849  0.00  0.00    -0.014 A 
ATOM     10  C   UNL     1       2.904   1.577   0.862  0.00  0.00    +0.011 A 
ATOM     11  C   UNL     1       4.237   1.661   0.519  0.00  0.00    +0.029 A 
ATOM     12  C   UNL     1       4.938   0.524   0.160  0.00  0.00    +0.109 A 
ATOM     13  C   UNL     1       4.303  -0.706   0.145  0.00  0.00    +0.033 A 
ENDROOT
BRANCH   1  14
ATOM     14  S   UNL     1      -3.165  -1.979   1.949  0.00  0.00    +0.072 S 
ATOM     15  O   UNL     1      -2.915  -3.365   2.139  0.00  0.00    -0.150 OA
ATOM     16  O   UNL     1      -3.818  -1.182   2.927  0.00  0.00    -0.150 OA
BRANCH  14  17
ATOM     17  N   UNL     1      -4.053  -1.845   0.558  0.00  0.00    -0.216 N 
ATOM     18  H   UNL     1      -4.352  -2.643   0.095  0.00  0.00    +0.174 HD
BRANCH  17  23
ATOM     19  C   UNL     1      -5.343   3.280  -1.498  0.00  0.00    +0.044 C 
ATOM     20  C   UNL     1      -5.001   1.918  -0.952  0.00  0.00    -0.050 A 
ATOM     21  C   UNL     1      -4.516   0.937  -1.798  0.00  0.00    +0.005 A 
ATOM     22  C   UNL     1      -4.200  -0.312  -1.300  0.00  0.00    +0.025 A 
ATOM     23  C   UNL     1      -4.370  -0.583   0.052  0.00  0.00    +0.048 A 
ATOM     24  C   UNL     1      -4.862   0.403   0.898  0.00  0.00    +0.025 A 
ATOM     25  C   UNL     1      -5.171   1.652   0.395  0.00  0.00    +0.005 A 
ENDBRANCH  17  23
ENDBRANCH  14  17
ENDBRANCH   1  14
BRANCH  12  26
ATOM     26  S   UNL     1       6.641   0.640  -0.278  0.00  0.00    +0.072 S 
ATOM     27  O   UNL     1       7.169   1.748   0.438  0.00  0.00    -0.150 OA
ATOM     28  O   UNL     1       7.180  -0.669  -0.161  0.00  0.00    -0.150 OA
BRANCH  26  29
ATOM     29  N   UNL     1       6.707   1.038  -1.884  0.00  0.00    -0.216 N 
ATOM     30  H   UNL     1       7.125   1.869  -2.161  0.00  0.00    +0.174 HD
BRANCH  29  31
ATOM     31  C   UNL     1       6.162   0.178  -2.840  0.00  0.00    +0.048 A 
ATOM     32  C   UNL     1       6.433  -1.184  -2.786  0.00  0.00    +0.025 A 
ATOM     33  C   UNL     1       5.888  -2.032  -3.730  0.00  0.00    +0.005 A 
ATOM     34  C   UNL     1       5.083  -1.526  -4.734  0.00  0.00    -0.050 A 
ATOM     35  C   UNL     1       4.816  -0.171  -4.793  0.00  0.00    +0.005 A 
ATOM     36  C   UNL     1       5.353   0.683  -3.849  0.00  0.00    +0.025 A 
ATOM     37  C   UNL     1       4.495  -2.454  -5.765  0.00  0.00    +0.044 C 
ENDBRANCH  29  31
ENDBRANCH  26  29
ENDBRANCH  12  26
TORSDOF 6
