REMARK  Name = ZINC00752469
REMARK  5 active torsions:
REMARK  status: ('A' for Active; 'I' for Inactive)
REMARK    1  A    between atoms: C_4  and  C_7
REMARK    2  A    between atoms: C_12  and  C_20
REMARK    3  A    between atoms: C_14  and  C_18
REMARK    4  A    between atoms: C_15  and  N_17
REMARK    5  A    between atoms: C_23  and  O_26
REMARK                            x       y       z     vdW  Elec       q    Type
REMARK                         _______ _______ _______ _____ _____    ______ ____
ROOT
ATOM      1  C   UNL     1      -2.216   6.303   3.688  0.00  0.00    +0.034 C 
ATOM      2  C   UNL     1      -2.746   7.051   2.463  0.00  0.00    +0.083 C 
ATOM      3  C   UNL     1      -2.047   6.551   1.220  0.00  0.00    +0.115 C 
ATOM      4  C   UNL     1      -0.776   6.112   1.278  0.00  0.00    +0.046 C 
ATOM      5  C   UNL     1      -0.074   5.628   0.032  0.00  0.00    +0.101 C 
ATOM      6  C   UNL     1      -0.796   6.123  -1.190  0.00  0.00    +0.098 C 
ATOM      7  C   UNL     1      -2.073   6.559  -1.105  0.00  0.00    +0.198 C 
ATOM      8  O   UNL     1      -2.734   6.559   0.063  0.00  0.00    -0.445 OA
ATOM      9  C   UNL     1      -0.064   6.087   2.492  0.00  0.00    +0.164 C 
ATOM     10  O   UNL     1       1.087   5.698   2.501  0.00  0.00    -0.292 OA
ATOM     11  C   UNL     1      -0.703   6.534   3.779  0.00  0.00    +0.088 C 
ENDROOT
BRANCH   1  15
ATOM     12  C   UNL     1      -4.110   7.795   7.214  0.00  0.00    +0.000 A 
ATOM     13  C   UNL     1      -4.223   6.458   6.882  0.00  0.00    +0.000 A 
ATOM     14  C   UNL     1      -3.610   5.975   5.741  0.00  0.00    +0.004 A 
ATOM     15  C   UNL     1      -2.884   6.830   4.932  0.00  0.00    -0.043 A 
ATOM     16  C   UNL     1      -2.767   8.166   5.266  0.00  0.00    +0.004 A 
ATOM     17  C   UNL     1      -3.384   8.650   6.405  0.00  0.00    +0.000 A 
ENDBRANCH   1  15
BRANCH   5  18
ATOM     18  C   UNL     1      -0.054   4.121   0.024  0.00  0.00    -0.034 A 
ATOM     19  C   UNL     1       1.153   3.447   0.009  0.00  0.00    +0.008 A 
ATOM     20  C   UNL     1       1.175   2.066   0.002  0.00  0.00    +0.046 A 
ATOM     21  C   UNL     1      -0.016   1.355   0.009  0.00  0.00    +0.117 A 
ATOM     22  C   UNL     1      -1.226   2.033   0.019  0.00  0.00    +0.046 A 
ATOM     23  C   UNL     1      -1.242   3.414   0.031  0.00  0.00    +0.008 A 
BRANCH  21  24
ATOM     24  O   UNL     1       0.002  -0.004   0.002  0.00  0.00    -0.507 OA
ATOM     25  H   UNL     1       0.016  -0.402   0.883  0.00  0.00    +0.292 HD
ENDBRANCH  21  24
ENDBRANCH   5  18
BRANCH   7  26
ATOM     26  N   UNL     1      -2.708   7.010  -2.236  0.00  0.00    -0.328 N 
ATOM     27  H   UNL     1      -3.624   7.325  -2.186  0.00  0.00    +0.145 HD
ATOM     28  H   UNL     1      -2.239   7.015  -3.086  0.00  0.00    +0.145 HD
ENDBRANCH   7  26
BRANCH   6  29
ATOM     29  C   UNL     1      -0.127   6.135  -2.456  0.00  0.00    +0.101 C 
ATOM     30  N   UNL     1       0.404   6.144  -3.460  0.00  0.00    -0.191 NA
ENDBRANCH   6  29
TORSDOF 5
