REMARK  Name = ZINC63294091
REMARK  3 active torsions:
REMARK  status: ('A' for Active; 'I' for Inactive)
REMARK    1  A    between atoms: C_9  and  C_12
REMARK    2  A    between atoms: C_20  and  C_22
REMARK    3  A    between atoms: C_27  and  C_32
REMARK                            x       y       z     vdW  Elec       q    Type
REMARK                         _______ _______ _______ _____ _____    ______ ____
ROOT
ATOM      1  C   UNL     1       5.240  -2.580   0.550  0.00  0.00    +0.260 C 
ATOM      2  O   UNL     1       6.014  -1.946  -0.135  0.00  0.00    -0.271 OA
ATOM      3  N   UNL     1       5.469  -3.886   0.794  0.00  0.00    -0.295 N 
ATOM      4  C   UNL     1       4.488  -4.692   1.534  0.00  0.00    +0.127 C 
ATOM      5  C   UNL     1       4.113  -5.911   0.682  0.00  0.00    +0.127 C 
ATOM      6  N   UNL     1       5.349  -6.554   0.213  0.00  0.00    -0.295 N 
ATOM      7  C   UNL     1       6.330  -5.748  -0.526  0.00  0.00    +0.127 C 
ATOM      8  C   UNL     1       6.702  -4.530   0.321  0.00  0.00    +0.127 C 
ATOM      9  C   UNL     1       5.578  -7.859   0.458  0.00  0.00    +0.247 C 
ATOM     10  O   UNL     1       6.644  -8.357   0.151  0.00  0.00    -0.270 OA
ENDROOT
BRANCH   9  11
ATOM     11  C   UNL     1       4.533  -8.686   1.100  0.00  0.00    +0.039 A 
ATOM     12  C   UNL     1       3.129  -8.412   0.807  0.00  0.00    +0.015 A 
ATOM     13  C   UNL     1       2.134  -9.129   1.360  0.00  0.00    +0.028 A 
ATOM     14  C   UNL     1       2.447 -10.224   2.288  0.00  0.00    +0.060 A 
ATOM     15  N   UNL     1       1.690 -11.056   2.948  0.00  0.00    -0.356 N 
ATOM     16  C   UNL     1       2.573 -11.936   3.722  0.00  0.00    +0.281 C 
ATOM     17  N   UNL     1       3.946 -11.508   3.427  0.00  0.00    -0.356 N 
ATOM     18  C   UNL     1       3.873 -10.511   2.591  0.00  0.00    +0.061 A 
ATOM     19  C   UNL     1       4.905  -9.687   1.944  0.00  0.00    +0.040 A 
ATOM     20  H   UNL     1       4.758 -11.896   3.788  0.00  0.00    +0.162 HD
ATOM     21  H   UNL     1       0.720 -11.087   2.930  0.00  0.00    +0.162 HD
BRANCH  16  22
ATOM     22  C   UNL     1       2.285 -11.785   5.217  0.00  0.00    +0.428 C 
ATOM     23  F   UNL     1       0.964 -12.162   5.478  0.00  0.00    -0.167 F 
ATOM     24  F   UNL     1       3.156 -12.604   5.944  0.00  0.00    -0.167 F 
ATOM     25  F   UNL     1       2.473 -10.452   5.596  0.00  0.00    -0.167 F 
ENDBRANCH  16  22
ENDBRANCH   9  11
BRANCH   1  34
ATOM     26  C   UNL     1       0.714   1.752   1.572  0.00  0.00    +0.004 A 
ATOM     27  C   UNL     1       1.957   2.357   1.597  0.00  0.00    +0.004 A 
ATOM     28  C   UNL     1       3.099   1.604   1.399  0.00  0.00    +0.049 A 
ATOM     29  C   UNL     1       3.000   0.239   1.174  0.00  0.00    +0.163 A 
ATOM     30  C   UNL     1       1.751  -0.369   1.150  0.00  0.00    +0.162 A 
ATOM     31  C   UNL     1       0.609   0.393   1.349  0.00  0.00    +0.049 A 
ATOM     32  O   UNL     1       1.632  -1.709   0.939  0.00  0.00    -0.484 OA
ATOM     33  C   UNL     1       2.767  -2.374   0.375  0.00  0.00    +0.283 C 
ATOM     34  C   UNL     1       4.021  -1.908   1.127  0.00  0.00    +0.296 C 
ATOM     35  O   UNL     1       4.133  -0.489   0.976  0.00  0.00    -0.473 OA
ENDBRANCH   1  34
TORSDOF 3
