REMARK  Name = ZINC59246194
REMARK  10 active torsions:
REMARK  status: ('A' for Active; 'I' for Inactive)
REMARK    1  A    between atoms: C_1  and  C_2
REMARK    2  A    between atoms: C_2  and  O_3
REMARK    3  A    between atoms: O_3  and  C_4
REMARK    4  A    between atoms: C_4  and  C_6
REMARK    5  A    between atoms: C_7  and  C_33
REMARK    6  A    between atoms: C_14  and  C_15
REMARK    7  A    between atoms: C_18  and  O_23
REMARK    8  A    between atoms: C_19  and  O_21
REMARK    9  A    between atoms: O_21  and  C_22
REMARK   10  A    between atoms: C_25  and  C_27
REMARK                            x       y       z     vdW  Elec       q    Type
REMARK                         _______ _______ _______ _____ _____    ______ ____
ROOT
ATOM      1  C   UNL     1       2.931  -2.624  -2.056  0.00  0.00    +0.090 C 
ATOM      2  C   UNL     1       2.337  -3.827  -2.418  0.00  0.00    +0.086 C 
ATOM      3  N   UNL     1       2.188  -4.138  -3.709  0.00  0.00    -0.222 NA
ATOM      4  C   UNL     1       2.565  -3.382  -4.706  0.00  0.00    +0.178 A 
ATOM      5  N   UNL     1       3.170  -2.155  -4.564  0.00  0.00    -0.275 N 
ATOM      6  C   UNL     1       3.510  -1.475  -5.668  0.00  0.00    +0.268 A 
ATOM      7  O   UNL     1       4.048  -0.386  -5.592  0.00  0.00    -0.266 OA
ATOM      8  C   UNL     1       3.214  -2.083  -6.972  0.00  0.00    +0.081 A 
ATOM      9  C   UNL     1       3.454  -1.607  -8.221  0.00  0.00    +0.028 C 
ATOM     10  S   UNL     1       2.454  -3.619  -6.470  0.00  0.00    -0.046 S 
ATOM     11  C   UNL     1       3.384  -1.699  -3.162  0.00  0.00    +0.162 C 
ENDROOT
BRANCH   9  12
ATOM     12  C   UNL     1       3.932  -0.231  -8.402  0.00  0.00    -0.020 A 
ATOM     13  C   UNL     1       3.367   0.812  -7.658  0.00  0.00    +0.012 A 
ATOM     14  C   UNL     1       3.817   2.103  -7.831  0.00  0.00    +0.050 A 
ATOM     15  C   UNL     1       4.829   2.373  -8.742  0.00  0.00    +0.158 A 
ATOM     16  C   UNL     1       5.397   1.340  -9.487  0.00  0.00    +0.162 A 
ATOM     17  C   UNL     1       4.957   0.043  -9.317  0.00  0.00    +0.057 A 
BRANCH  16  18
ATOM     18  O   UNL     1       6.387   1.610 -10.379  0.00  0.00    -0.491 OA
ATOM     19  C   UNL     1       6.923   0.504 -11.108  0.00  0.00    +0.277 C 
ENDBRANCH  16  18
BRANCH  15  20
ATOM     20  O   UNL     1       5.269   3.648  -8.907  0.00  0.00    -0.503 OA
ATOM     21  H   UNL     1       5.999   3.891  -8.322  0.00  0.00    +0.292 HD
ENDBRANCH  15  20
ENDBRANCH   9  12
BRANCH  11  22
ATOM     22  C   UNL     1       4.860  -1.450  -2.981  0.00  0.00    -0.020 A 
ATOM     23  C   UNL     1       5.777  -2.388  -3.416  0.00  0.00    +0.006 A 
ATOM     24  C   UNL     1       7.130  -2.160  -3.251  0.00  0.00    +0.000 A 
ATOM     25  C   UNL     1       7.566  -0.994  -2.650  0.00  0.00    +0.000 A 
ATOM     26  C   UNL     1       6.649  -0.055  -2.216  0.00  0.00    +0.000 A 
ATOM     27  C   UNL     1       5.295  -0.281  -2.386  0.00  0.00    +0.006 A 
ENDBRANCH  11  22
BRANCH   2  28
ATOM     28  C   UNL     1       1.870  -4.766  -1.373  0.00  0.00    +0.001 A 
ATOM     29  C   UNL     1       0.793  -4.423  -0.554  0.00  0.00    +0.010 A 
ATOM     30  C   UNL     1       0.362  -5.302   0.418  0.00  0.00    +0.001 A 
ATOM     31  C   UNL     1       0.996  -6.521   0.583  0.00  0.00    +0.000 A 
ATOM     32  C   UNL     1       2.065  -6.866  -0.225  0.00  0.00    +0.001 A 
ATOM     33  C   UNL     1       2.501  -5.998  -1.205  0.00  0.00    +0.010 A 
ENDBRANCH   2  28
BRANCH   1  34
ATOM     34  C   UNL     1       3.098  -2.277  -0.710  0.00  0.00    +0.340 C 
ATOM     35  O   UNL     1       2.831  -3.083   0.165  0.00  0.00    -0.245 OA
BRANCH  34  36
ATOM     36  O   UNL     1       3.555  -1.049  -0.380  0.00  0.00    -0.462 OA
BRANCH  36  38
ATOM     37  C   UNL     1       4.227   0.663   1.188  0.00  0.00    +0.048 C 
ATOM     38  C   UNL     1       3.702  -0.763   1.012  0.00  0.00    +0.229 C 
ENDBRANCH  36  38
ENDBRANCH  34  36
ENDBRANCH   1  34
TORSDOF 8
