REMARK  Name = ZINC10233446
REMARK  8 active torsions:
REMARK  status: ('A' for Active; 'I' for Inactive)
REMARK    1  A    between atoms: C_1  and  C_2
REMARK    2  A    between atoms: N_9  and  C_10
REMARK    3  A    between atoms: C_15  and  O_16
REMARK    4  A    between atoms: N_17  and  C_32
REMARK    5  A    between atoms: N_20  and  C_23
REMARK    6  A    between atoms: C_23  and  C_24
REMARK    7  A    between atoms: C_24  and  C_25
REMARK    8  A    between atoms: C_25  and  C_26
REMARK                            x       y       z     vdW  Elec       q    Type
REMARK                         _______ _______ _______ _____ _____    ______ ____
ROOT
ATOM      1  C   UNL     1      -6.014  -0.936   8.048  0.00  0.00    +0.065 C 
ATOM      2  C   UNL     1      -4.933  -0.051   7.485  0.00  0.00    +0.041 A 
ATOM      3  C   UNL     1      -4.201  -0.304   6.404  0.00  0.00    +0.116 A 
ATOM      4  N   UNL     1      -3.321   0.747   6.216  0.00  0.00    -0.277 N 
ATOM      5  C   UNL     1      -2.305   1.246   5.415  0.00  0.00    +0.157 A 
ATOM      6  C   UNL     1      -1.932   2.469   5.971  0.00  0.00    +0.170 A 
ATOM      7  N   UNL     1      -2.693   2.669   7.043  0.00  0.00    -0.193 NA
ATOM      8  C   UNL     1      -3.526   1.651   7.203  0.00  0.00    +0.223 A 
ATOM      9  N   UNL     1      -4.530   1.167   8.003  0.00  0.00    -0.279 N 
ATOM     10  N   UNL     1      -0.921   3.198   5.362  0.00  0.00    -0.279 N 
ATOM     11  C   UNL     1      -0.318   2.720   4.258  0.00  0.00    +0.333 A 
ATOM     12  O   UNL     1       0.570   3.370   3.739  0.00  0.00    -0.246 OA
ATOM     13  N   UNL     1      -0.675   1.545   3.712  0.00  0.00    -0.259 N 
ATOM     14  C   UNL     1      -1.650   0.791   4.259  0.00  0.00    +0.283 A 
ATOM     15  O   UNL     1      -1.960  -0.275   3.755  0.00  0.00    -0.265 OA
ATOM     16  C   UNL     1      -0.507   4.486   5.924  0.00  0.00    +0.155 C 
ENDROOT
BRANCH   9  17
ATOM     17  C   UNL     1      -5.054   1.795   9.141  0.00  0.00    +0.091 A 
ATOM     18  C   UNL     1      -6.128   2.665   9.023  0.00  0.00    +0.030 A 
ATOM     19  C   UNL     1      -6.644   3.283  10.147  0.00  0.00    +0.002 A 
ATOM     20  C   UNL     1      -6.091   3.036  11.390  0.00  0.00    +0.004 A 
ATOM     21  C   UNL     1      -5.021   2.171  11.516  0.00  0.00    +0.047 A 
ATOM     22  C   UNL     1      -4.502   1.542  10.395  0.00  0.00    +0.141 A 
BRANCH  22  23
ATOM     23  O   UNL     1      -3.453   0.686  10.518  0.00  0.00    -0.505 OA
ATOM     24  H   UNL     1      -2.588   1.111  10.441  0.00  0.00    +0.292 HD
ENDBRANCH  22  23
ENDBRANCH   9  17
BRANCH  13  25
ATOM     25  C   UNL     1       0.011   1.072   2.506  0.00  0.00    +0.130 C 
BRANCH  25  26
ATOM     26  C   UNL     1      -0.729   1.579   1.267  0.00  0.00    +0.026 C 
BRANCH  26  27
ATOM     27  C   UNL     1      -0.013   1.086   0.008  0.00  0.00    +0.037 C 
BRANCH  27  28
ATOM     28  C   UNL     1      -0.742   1.585  -1.213  0.00  0.00    -0.047 A 
ATOM     29  C   UNL     1      -1.750   0.825  -1.775  0.00  0.00    +0.003 A 
ATOM     30  C   UNL     1      -2.422   1.285  -2.892  0.00  0.00    +0.000 A 
ATOM     31  C   UNL     1      -2.079   2.501  -3.453  0.00  0.00    +0.000 A 
ATOM     32  C   UNL     1      -1.066   3.259  -2.894  0.00  0.00    +0.000 A 
ATOM     33  C   UNL     1      -0.398   2.801  -1.774  0.00  0.00    +0.003 A 
ENDBRANCH  27  28
ENDBRANCH  26  27
ENDBRANCH  25  26
ENDBRANCH  13  25
TORSDOF 6
