REMARK  Name = ZINC08861107
REMARK  6 active torsions:
REMARK  status: ('A' for Active; 'I' for Inactive)
REMARK    1  A    between atoms: C_1  and  C_2
REMARK    2  A    between atoms: N_8  and  N_9
REMARK    3  A    between atoms: N_9  and  C_10
REMARK    4  A    between atoms: C_14  and  C_16
REMARK    5  A    between atoms: C_16  and  O_17
REMARK    6  A    between atoms: C_20  and  C_23
REMARK                            x       y       z     vdW  Elec       q    Type
REMARK                         _______ _______ _______ _____ _____    ______ ____
ROOT
ATOM      1  C   UNL     1      -0.018   1.503   0.010  0.00  0.00    +0.070 C 
ATOM      2  C   UNL     1       0.002  -0.004   0.002  0.00  0.00    +0.089 C 
ATOM      3  N   UNL     1       0.008  -0.765  -1.049  0.00  0.00    -0.173 NA
ATOM      4  N   UNL     1       0.028  -2.115  -0.701  0.00  0.00    -0.130 N 
ATOM      5  C   UNL     1       0.035  -2.248   0.641  0.00  0.00    +0.294 C 
ATOM      6  O   UNL     1       0.052  -3.289   1.274  0.00  0.00    -0.266 OA
ATOM      7  C   UNL     1       0.025  -0.879   1.184  0.00  0.00    +0.168 C 
ATOM      8  N   UNL     1       0.032  -0.517   2.454  0.00  0.00    -0.175 NA
ATOM      9  C   UNL     1       0.038  -3.171  -1.607  0.00  0.00    +0.189 A 
ATOM     10  N   UNL     1       0.037  -3.140  -2.926  0.00  0.00    -0.223 NA
ATOM     11  C   UNL     1       0.048  -4.255  -3.641  0.00  0.00    +0.080 A 
ATOM     12  C   UNL     1       0.060  -5.462  -3.000  0.00  0.00    +0.077 A 
ATOM     13  S   UNL     1       0.063  -4.931  -1.292  0.00  0.00    -0.058 S 
ENDROOT
BRANCH  11  14
ATOM     14  C   UNL     1       0.046  -4.194  -5.123  0.00  0.00    +0.001 A 
ATOM     15  C   UNL     1       0.052  -5.370  -5.871  0.00  0.00    +0.011 A 
ATOM     16  C   UNL     1       0.050  -5.308  -7.249  0.00  0.00    +0.016 A 
ATOM     17  C   UNL     1       0.043  -4.081  -7.889  0.00  0.00    +0.018 A 
ATOM     18  C   UNL     1       0.038  -2.910  -7.151  0.00  0.00    +0.016 A 
ATOM     19  C   UNL     1       0.034  -2.961  -5.772  0.00  0.00    +0.011 A 
ATOM     20 BR   UNL     1       0.040  -4.003  -9.779  0.00  0.00    -0.050 Br
ENDBRANCH  11  14
BRANCH   8  21
ATOM     21  N   UNL     1       0.053  -1.415   3.381  0.00  0.00    -0.237 N 
ATOM     22  H   UNL     1       0.064  -2.355   3.145  0.00  0.00    +0.174 HD
BRANCH  21  23
ATOM     23  C   UNL     1       0.061  -1.032   4.722  0.00  0.00    +0.049 A 
ATOM     24  C   UNL     1       0.040   0.316   5.063  0.00  0.00    +0.025 A 
ATOM     25  C   UNL     1       0.047   0.690   6.391  0.00  0.00    +0.002 A 
ATOM     26  C   UNL     1       0.075  -0.273   7.383  0.00  0.00    +0.006 A 
ATOM     27  C   UNL     1       0.096  -1.615   7.049  0.00  0.00    -0.020 A 
ATOM     28  C   UNL     1       0.083  -1.998   5.722  0.00  0.00    +0.030 A 
BRANCH  27  29
ATOM     29  C   UNL     1       0.126  -2.661   8.133  0.00  0.00    +0.191 C 
BRANCH  29  30
ATOM     30  O   UNL     1      -1.211  -3.016   8.491  0.00  0.00    -0.390 OA
ATOM     31  H   UNL     1      -1.268  -3.686   9.185  0.00  0.00    +0.210 HD
ENDBRANCH  29  30
ENDBRANCH  27  29
ENDBRANCH  21  23
ENDBRANCH   8  21
TORSDOF 5
