REMARK  Name = ZINC08762229
REMARK  10 active torsions:
REMARK  status: ('A' for Active; 'I' for Inactive)
REMARK    1  A    between atoms: C_1  and  C_2
REMARK    2  A    between atoms: C_2  and  O_3
REMARK    3  A    between atoms: O_3  and  C_4
REMARK    4  A    between atoms: C_4  and  C_6
REMARK    5  A    between atoms: C_6  and  C_35
REMARK    6  A    between atoms: C_13  and  C_34
REMARK    7  A    between atoms: C_23  and  C_33
REMARK    8  A    between atoms: C_26  and  O_29
REMARK    9  A    between atoms: O_29  and  C_30
REMARK   10  A    between atoms: C_30  and  C_32
REMARK                            x       y       z     vdW  Elec       q    Type
REMARK                         _______ _______ _______ _____ _____    ______ ____
ROOT
ATOM      1  C   UNL     1      -3.439   1.744   3.472  0.00  0.00    +0.271 C 
ATOM      2  C   UNL     1      -3.280   1.267   2.046  0.00  0.00    +0.125 C 
ATOM      3  O   UNL     1      -2.977   0.425   3.151  0.00  0.00    -0.341 OA
ATOM      4  C   UNL     1      -4.501   0.974   1.145  0.00  0.00    +0.040 C 
ATOM      5  C   UNL     1      -3.949   0.851  -0.302  0.00  0.00    +0.007 C 
ATOM      6  C   UNL     1      -2.431   0.752  -0.095  0.00  0.00    +0.002 C 
ATOM      7  C   UNL     1      -2.193   1.739   1.071  0.00  0.00    +0.004 C 
ATOM      8  C   UNL     1      -0.780   1.640   1.586  0.00  0.00    +0.010 C 
ATOM      9  C   UNL     1       0.196   1.264   0.460  0.00  0.00    +0.005 C 
ATOM     10  C   UNL     1      -0.309   1.798  -0.874  0.00  0.00    +0.003 C 
ATOM     11  C   UNL     1      -1.563   1.011  -1.283  0.00  0.00    +0.000 C 
ATOM     12  C   UNL     1      -2.234   1.782  -2.419  0.00  0.00    +0.031 C 
ATOM     13  C   UNL     1      -1.221   1.904  -3.530  0.00  0.00    -0.027 C 
ATOM     14  C   UNL     1       0.062   1.853  -3.340  0.00  0.00    -0.064 C 
ATOM     15  C   UNL     1       0.721   1.699  -1.989  0.00  0.00    -0.008 C 
ATOM     16  C   UNL     1       1.479   0.379  -1.964  0.00  0.00    +0.015 C 
ATOM     17  C   UNL     1       1.543  -0.225  -3.366  0.00  0.00    +0.046 C 
ATOM     18  C   UNL     1       2.007   0.786  -4.409  0.00  0.00    +0.180 C 
ATOM     19  C   UNL     1       0.992   1.928  -4.539  0.00  0.00    +0.075 C 
ATOM     20  C   UNL     1       1.721   2.847  -1.805  0.00  0.00    +0.016 C 
ATOM     21  C   UNL     1      -2.536   3.178   0.675  0.00  0.00    +0.014 C 
ENDROOT
BRANCH   1  22
ATOM     22  C   UNL     1      -4.837   1.855   4.037  0.00  0.00    +0.257 C 
ATOM     23  O   UNL     1      -5.780   2.016   3.292  0.00  0.00    -0.272 OA
ATOM     24  N   UNL     1      -5.034   1.776   5.368  0.00  0.00    -0.326 N 
ATOM     25  H   UNL     1      -4.279   1.647   5.963  0.00  0.00    +0.145 HD
ATOM     26  H   UNL     1      -5.931   1.847   5.730  0.00  0.00    +0.145 HD
ENDBRANCH   1  22
BRANCH   1  27
ATOM     27  C   UNL     1      -2.437   2.695   4.072  0.00  0.00    +0.352 C 
ATOM     28  O   UNL     1      -1.792   3.423   3.356  0.00  0.00    -0.247 OA
BRANCH  27  29
ATOM     29  O   UNL     1      -2.262   2.733   5.402  0.00  0.00    -0.462 OA
BRANCH  29  31
ATOM     30  C   UNL     1      -1.221   3.575   7.436  0.00  0.00    +0.048 C 
ATOM     31  C   UNL     1      -1.280   3.674   5.911  0.00  0.00    +0.229 C 
ENDBRANCH  29  31
ENDBRANCH  27  29
ENDBRANCH   1  27
BRANCH  18  32
ATOM     32  O   UNL     1       3.306   1.319  -4.038  0.00  0.00    -0.461 OA
BRANCH  32  33
ATOM     33  C   UNL     1       4.117   1.696  -5.039  0.00  0.00    +0.304 C 
ATOM     34  O   UNL     1       3.755   1.585  -6.186  0.00  0.00    -0.251 OA
ATOM     35  C   UNL     1       5.481   2.259  -4.731  0.00  0.00    +0.136 C 
ENDBRANCH  32  33
ENDBRANCH  18  32
TORSDOF 6
