REMARK  Name = ZINC63280105
REMARK  3 active torsions:
REMARK  status: ('A' for Active; 'I' for Inactive)
REMARK    1  A    between atoms: C_12  and  C_16
REMARK    2  A    between atoms: C_22  and  C_25
REMARK    3  A    between atoms: N_27  and  C_28
REMARK                            x       y       z     vdW  Elec       q    Type
REMARK                         _______ _______ _______ _____ _____    ______ ____
ROOT
ATOM      1  C   UNL     1       3.679  -4.394  -0.530  0.00  0.00    +0.237 C 
ATOM      2  O   UNL     1       3.573  -3.668   0.435  0.00  0.00    -0.274 OA
ATOM      3  N   UNL     1       3.960  -5.702  -0.362  0.00  0.00    -0.299 N 
ATOM      4  C   UNL     1       4.024  -6.287   0.985  0.00  0.00    +0.108 C 
ATOM      5  C   UNL     1       3.092  -7.502   1.039  0.00  0.00    +0.020 C 
ATOM      6  C   UNL     1       3.460  -8.472  -0.085  0.00  0.00    +0.016 C 
ATOM      7  C   UNL     1       3.274  -7.782  -1.438  0.00  0.00    +0.092 C 
ATOM      8  C   UNL     1       4.202  -6.571  -1.521  0.00  0.00    +0.120 C 
ENDROOT
BRANCH   1  19
ATOM      9  C   UNL     1       2.138   2.010  -2.506  0.00  0.00    +0.000 A 
ATOM     10  C   UNL     1       0.843   1.582  -2.742  0.00  0.00    +0.001 A 
ATOM     11  C   UNL     1       0.514   0.250  -2.599  0.00  0.00    +0.013 A 
ATOM     12  C   UNL     1       1.491  -0.671  -2.219  0.00  0.00    +0.043 A 
ATOM     13  C   UNL     1       2.791  -0.225  -1.962  0.00  0.00    -0.005 A 
ATOM     14  C   UNL     1       3.110   1.105  -2.116  0.00  0.00    +0.007 A 
ATOM     15  C   UNL     1       3.563  -1.431  -1.515  0.00  0.00    +0.166 C 
ATOM     16  N   UNL     1       2.703  -2.606  -1.830  0.00  0.00    -0.269 N 
ATOM     17  C   UNL     1       1.453  -2.131  -2.009  0.00  0.00    +0.249 C 
ATOM     18  O   UNL     1       0.443  -2.807  -1.998  0.00  0.00    -0.270 OA
ATOM     19  C   UNL     1       3.497  -3.836  -1.917  0.00  0.00    +0.174 C 
ATOM     20  C   UNL     1       4.893  -3.615  -2.549  0.00  0.00    +0.103 C 
ATOM     21  S   UNL     1       4.977  -1.759  -2.651  0.00  0.00    -0.131 S 
ENDBRANCH   1  19
BRANCH   7  22
ATOM     22  C   UNL     1       3.605  -8.748  -2.546  0.00  0.00    +0.220 C 
ATOM     23  O   UNL     1       4.497  -8.493  -3.328  0.00  0.00    -0.275 OA
ATOM     24  N   UNL     1       2.909  -9.896  -2.668  0.00  0.00    -0.278 N 
ATOM     25  H   UNL     1       2.196 -10.100  -2.044  0.00  0.00    +0.152 HD
BRANCH  24  26
ATOM     26  C   UNL     1       3.230 -10.836  -3.745  0.00  0.00    +0.269 C 
ATOM     27  N   UNL     1       2.663 -10.362  -5.014  0.00  0.00    -0.348 N 
ATOM     28  C   UNL     1       1.826 -11.268  -5.430  0.00  0.00    +0.061 A 
ATOM     29  C   UNL     1       0.965 -11.364  -6.617  0.00  0.00    +0.027 A 
ATOM     30  C   UNL     1       0.184 -12.449  -6.787  0.00  0.00    +0.002 A 
ATOM     31  C   UNL     1       0.153 -13.513  -5.867  0.00  0.00    +0.002 A 
ATOM     32  C   UNL     1       0.903 -13.526  -4.747  0.00  0.00    +0.027 A 
ATOM     33  C   UNL     1       1.794 -12.394  -4.457  0.00  0.00    +0.061 A 
ATOM     34  N   UNL     1       2.612 -12.141  -3.477  0.00  0.00    -0.348 N 
ATOM     35  H   UNL     1       2.872  -9.527  -5.460  0.00  0.00    +0.163 HD
ATOM     36  H   UNL     1       2.783 -12.710  -2.710  0.00  0.00    +0.163 HD
ENDBRANCH  24  26
ENDBRANCH   7  22
TORSDOF 3
