REMARK  Name = ZINC35484733
REMARK  14 active torsions:
REMARK  status: ('A' for Active; 'I' for Inactive)
REMARK    1  A    between atoms: C_1  and  C_2
REMARK    2  A    between atoms: C_2  and  C_3
REMARK    3  A    between atoms: C_3  and  C_4
REMARK    4  A    between atoms: C_4  and  O_5
REMARK    5  A    between atoms: O_5  and  C_6
REMARK    6  A    between atoms: C_9  and  C_12
REMARK    7  A    between atoms: C_14  and  C_15
REMARK    8  A    between atoms: C_15  and  C_16
REMARK    9  A    between atoms: C_17  and  C_26
REMARK   10  A    between atoms: C_22  and  C_25
REMARK   11  A    between atoms: N_32  and  C_33
REMARK   12  A    between atoms: C_33  and  C_34
REMARK   13  A    between atoms: C_34  and  C_35
REMARK   14  A    between atoms: C_35  and  N_36
REMARK                            x       y       z     vdW  Elec       q    Type
REMARK                         _______ _______ _______ _____ _____    ______ ____
ROOT
ATOM      1  C   UNL     1       1.851  -8.056  -3.139  0.00  0.00    +0.145 C 
ATOM      2  C   UNL     1       0.731  -8.761  -3.869  0.00  0.00    +0.078 C 
ATOM      3  C   UNL     1       1.304  -9.720  -4.632  0.00  0.00    +0.249 C 
ATOM      4  O   UNL     1       0.642 -10.577  -5.443  0.00  0.00    -0.282 OA
ATOM      5  C   UNL     1       2.769  -9.682  -4.440  0.00  0.00    +0.288 C 
ATOM      6  O   UNL     1       3.563 -10.420  -4.989  0.00  0.00    -0.266 OA
ATOM      7  N   UNL     1       3.093  -8.711  -3.568  0.00  0.00    -0.283 N 
ENDROOT
BRANCH   1  11
ATOM      8  C   UNL     1       1.926  -3.919  -4.207  0.00  0.00    +0.121 A 
ATOM      9  C   UNL     1       1.396  -4.312  -2.987  0.00  0.00    +0.046 A 
ATOM     10  C   UNL     1       1.373  -5.650  -2.644  0.00  0.00    +0.009 A 
ATOM     11  C   UNL     1       1.878  -6.597  -3.516  0.00  0.00    -0.022 A 
ATOM     12  C   UNL     1       2.407  -6.208  -4.733  0.00  0.00    +0.009 A 
ATOM     13  C   UNL     1       2.427  -4.872  -5.083  0.00  0.00    +0.046 A 
BRANCH   8  14
ATOM     14  O   UNL     1       1.950  -2.603  -4.547  0.00  0.00    -0.492 OA
BRANCH  14  15
ATOM     15  C   UNL     1       1.418  -1.678  -3.597  0.00  0.00    +0.229 C 
BRANCH  15  16
ATOM     16  C   UNL     1       1.530  -0.257  -4.151  0.00  0.00    +0.041 C 
BRANCH  16  18
ATOM     17  C   UNL     1       1.072   2.155  -3.688  0.00  0.00    +0.004 C 
ATOM     18  C   UNL     1       0.960   0.734  -3.133  0.00  0.00    -0.000 C 
ENDBRANCH  16  18
ENDBRANCH  15  16
ENDBRANCH  14  15
ENDBRANCH   8  14
ENDBRANCH   1  11
BRANCH   2  19
ATOM     19  C   UNL     1      -0.701  -8.463  -3.768  0.00  0.00    +0.215 C 
ATOM     20  O   UNL     1      -1.103  -7.686  -2.922  0.00  0.00    -0.285 OA
BRANCH  19  21
ATOM     21  C   UNL     1      -1.655  -9.105  -4.694  0.00  0.00    +0.133 A 
ATOM     22  C   UNL     1      -3.028  -9.008  -4.638  0.00  0.00    +0.051 A 
ATOM     23  N   UNL     1      -3.520  -9.747  -5.670  0.00  0.00    -0.303 N 
ATOM     24  C   UNL     1      -4.795 -10.004  -6.090  0.00  0.00    +0.093 A 
ATOM     25  C   UNL     1      -5.021 -10.785  -7.166  0.00  0.00    +0.018 A 
ATOM     26  C   UNL     1      -3.944 -11.348  -7.872  0.00  0.00    +0.008 A 
ATOM     27  C   UNL     1      -2.670 -11.102  -7.468  0.00  0.00    -0.008 A 
ATOM     28  C   UNL     1      -2.448 -10.282  -6.340  0.00  0.00    +0.141 A 
ATOM     29  N   UNL     1      -1.336  -9.883  -5.744  0.00  0.00    -0.224 NA
ATOM     30  C   UNL     1      -1.506 -11.699  -8.216  0.00  0.00    +0.047 C 
ATOM     31  C   UNL     1      -3.833  -8.233  -3.626  0.00  0.00    +0.066 C 
ENDBRANCH  19  21
ENDBRANCH   2  19
BRANCH   7  32
ATOM     32  C   UNL     1       4.446  -8.366  -3.124  0.00  0.00    +0.111 C 
BRANCH  32  33
ATOM     33  C   UNL     1       4.799  -9.184  -1.880  0.00  0.00    +0.040 C 
BRANCH  33  34
ATOM     34  C   UNL     1       6.212  -8.825  -1.417  0.00  0.00    +0.124 C 
BRANCH  34  35
ATOM     35  N   UNL     1       6.550  -9.608  -0.226  0.00  0.00    -0.338 N 
ATOM     36  C   UNL     1       6.319  -9.249   1.074  0.00  0.00    +0.104 A 
ATOM     37  C   UNL     1       6.782 -10.253   1.844  0.00  0.00    +0.101 A 
ATOM     38  N   UNL     1       7.282 -11.199   1.035  0.00  0.00    -0.352 N 
ATOM     39  C   UNL     1       7.141 -10.822  -0.207  0.00  0.00    +0.173 A 
ATOM     40  H   UNL     1       7.681 -12.033   1.327  0.00  0.00    +0.166 HD
ENDBRANCH  34  35
ENDBRANCH  33  34
ENDBRANCH  32  33
ENDBRANCH   7  32
TORSDOF 11
