REMARK  Name = ZINC05687866
REMARK  3 active torsions:
REMARK  status: ('A' for Active; 'I' for Inactive)
REMARK    1  A    between atoms: C_3  and  N_7
REMARK    2  A    between atoms: N_7  and  C_8
REMARK    3  A    between atoms: C_13  and  C_15
REMARK                            x       y       z     vdW  Elec       q    Type
REMARK                         _______ _______ _______ _____ _____    ______ ____
ROOT
ATOM      1  C   UNL     1       4.756   1.271  -0.037  0.00  0.00    +0.107 C 
ATOM      2  C   UNL     1       5.976   1.916  -0.046  0.00  0.00    +0.165 C 
ATOM      3  C   UNL     1       7.307   1.299  -0.068  0.00  0.00    +0.366 C 
ATOM      4  O   UNL     1       7.570   0.110  -0.083  0.00  0.00    -0.243 OA
ATOM      5  O   UNL     1       8.178   2.330  -0.068  0.00  0.00    -0.402 OA
ATOM      6  C   UNL     1       7.483   3.484  -0.049  0.00  0.00    +0.232 C 
ATOM      7  N   UNL     1       6.199   3.266  -0.041  0.00  0.00    -0.204 NA
ENDROOT
BRANCH   6   8
ATOM      8  C   UNL     1       8.099   4.827  -0.043  0.00  0.00    +0.037 A 
ATOM      9  C   UNL     1       7.293   5.967  -0.016  0.00  0.00    +0.014 A 
ATOM     10  C   UNL     1       7.874   7.218  -0.011  0.00  0.00    +0.021 A 
ATOM     11  C   UNL     1       9.253   7.344  -0.033  0.00  0.00    +0.041 A 
ATOM     12  C   UNL     1      10.057   6.217  -0.060  0.00  0.00    +0.021 A 
ATOM     13  C   UNL     1       9.489   4.960  -0.059  0.00  0.00    +0.014 A 
ATOM     14 CL   UNL     1       9.977   8.922  -0.027  0.00  0.00    -0.084 Cl
ENDBRANCH   6   8
BRANCH   1  15
ATOM     15  N   UNL     1       3.604   1.994  -0.022  0.00  0.00    -0.317 N 
ATOM     16  H   UNL     1       3.640   2.964  -0.018  0.00  0.00    +0.152 HD
BRANCH  15  19
ATOM     17  C   UNL     1      -0.017   1.378   0.010  0.00  0.00    +0.021 A 
ATOM     18  C   UNL     1       1.183   2.071   0.002  0.00  0.00    +0.026 A 
ATOM     19  C   UNL     1       2.369   1.341  -0.013  0.00  0.00    +0.049 A 
ATOM     20  C   UNL     1       2.305  -0.047  -0.020  0.00  0.00    +0.133 A 
ATOM     21  N   UNL     1       1.142  -0.667  -0.012  0.00  0.00    -0.261 NA
ATOM     22  C   UNL     1       0.002  -0.004   0.002  0.00  0.00    +0.111 A 
ENDBRANCH  15  19
ENDBRANCH   1  15
TORSDOF 3
