REMARK  Name = ZINC21322991
REMARK  8 active torsions:
REMARK  status: ('A' for Active; 'I' for Inactive)
REMARK    1  A    between atoms: C_1  and  C_2
REMARK    2  A    between atoms: C_7  and  C_8
REMARK    3  A    between atoms: C_8  and  S_9
REMARK    4  A    between atoms: S_9  and  C_10
REMARK    5  A    between atoms: N_14  and  N_15
REMARK    6  A    between atoms: N_16  and  N_17
REMARK    7  A    between atoms: C_18  and  C_19
REMARK    8  A    between atoms: C_18  and  C_20
REMARK                            x       y       z     vdW  Elec       q    Type
REMARK                         _______ _______ _______ _____ _____    ______ ____
ROOT
ATOM      1  C   UNL     1      -2.079   1.760  -1.031  0.00  0.00    +0.210 A 
ATOM      2  N   UNL     1      -2.411   2.210  -2.218  0.00  0.00    -0.119 NA
ATOM      3  N   UNL     1      -1.257   2.230  -3.011  0.00  0.00    -0.109 NA
ATOM      4  C   UNL     1      -0.257   1.797  -2.282  0.00  0.00    +0.254 A 
ATOM      5  N   UNL     1      -0.741   1.490  -1.041  0.00  0.00    -0.211 N 
ATOM      6  N   UNL     1       1.060   1.669  -2.699  0.00  0.00    -0.204 N 
ATOM      7  H   UNL     1       1.823   1.290  -2.002  0.00  0.00    +0.178 HD
ENDROOT
BRANCH   5   8
ATOM      8  N   UNL     1      -0.012   1.005   0.008  0.00  0.00    -0.294 N 
ATOM      9  H   UNL     1       1.067   0.823  -0.110  0.00  0.00    +0.163 HD
ATOM     10  H   UNL     1      -0.503   0.796   0.969  0.00  0.00    +0.163 HD
ENDBRANCH   5   8
BRANCH   6  11
ATOM     11  N   UNL     1       1.419   2.022  -4.006  0.00  0.00    -0.184 NA
ATOM     12  C   UNL     1       2.652   1.902  -4.396  0.00  0.00    +0.063 C 
ATOM     13  C   UNL     1       3.697   1.383  -3.442  0.00  0.00    +0.068 C 
BRANCH  12  14
ATOM     14  C   UNL     1       3.030   2.273  -5.772  0.00  0.00    -0.002 A 
ATOM     15  C   UNL     1       4.356   2.151  -6.193  0.00  0.00    +0.011 A 
ATOM     16  C   UNL     1       4.702   2.496  -7.483  0.00  0.00    +0.016 A 
ATOM     17  C   UNL     1       3.739   2.972  -8.357  0.00  0.00    +0.018 A 
ATOM     18  C   UNL     1       2.424   3.101  -7.944  0.00  0.00    +0.016 A 
ATOM     19  C   UNL     1       2.064   2.755  -6.659  0.00  0.00    +0.011 A 
ATOM     20 BR   UNL     1       4.224   3.448 -10.121  0.00  0.00    -0.050 Br
ENDBRANCH  12  14
ENDBRANCH   6  11
BRANCH   1  21
ATOM     21  S   UNL     1      -3.170   1.542   0.336  0.00  0.00    -0.080 S 
BRANCH  21  22
ATOM     22  C   UNL     1      -4.783   2.076  -0.300  0.00  0.00    +0.112 C 
BRANCH  22  29
ATOM     23  C   UNL     1      -5.301   4.281   1.493  0.00  0.00    +0.044 C 
ATOM     24  C   UNL     1      -6.068   2.993   1.642  0.00  0.00    -0.046 A 
ATOM     25  C   UNL     1      -7.021   2.866   2.636  0.00  0.00    +0.003 A 
ATOM     26  C   UNL     1      -7.725   1.685   2.772  0.00  0.00    +0.000 A 
ATOM     27  C   UNL     1      -7.477   0.630   1.914  0.00  0.00    +0.000 A 
ATOM     28  C   UNL     1      -6.529   0.758   0.917  0.00  0.00    +0.005 A 
ATOM     29  C   UNL     1      -5.821   1.938   0.784  0.00  0.00    -0.034 A 
ENDBRANCH  22  29
ENDBRANCH  21  22
ENDBRANCH   1  21
TORSDOF 6
