REMARK  Name = ZINC11819775
REMARK  5 active torsions:
REMARK  status: ('A' for Active; 'I' for Inactive)
REMARK    1  A    between atoms: C_1  and  C_2
REMARK    2  A    between atoms: C_2  and  C_3
REMARK    3  A    between atoms: C_3  and  C_4
REMARK    4  A    between atoms: C_10  and  C_25
REMARK    5  A    between atoms: C_11  and  C_13
REMARK                            x       y       z     vdW  Elec       q    Type
REMARK                         _______ _______ _______ _____ _____    ______ ____
ROOT
ATOM      1  C   UNL     1       1.448   2.346   4.301  0.00  0.00    -0.047 A 
ATOM      2  C   UNL     1       0.419   2.841   5.091  0.00  0.00    +0.007 A 
ATOM      3  C   UNL     1      -0.872   2.900   4.612  0.00  0.00    +0.047 A 
ATOM      4  C   UNL     1      -1.152   2.458   3.324  0.00  0.00    +0.136 A 
ATOM      5  C   UNL     1      -0.105   1.957   2.527  0.00  0.00    +0.024 A 
ATOM      6  C   UNL     1       1.196   1.906   3.032  0.00  0.00    +0.015 A 
ATOM      7  C   UNL     1      -0.720   1.585   1.254  0.00  0.00    +0.008 A 
ATOM      8  C   UNL     1      -2.039   1.883   1.371  0.00  0.00    +0.194 A 
ATOM      9  O   UNL     1      -2.284   2.393   2.596  0.00  0.00    -0.450 OA
ATOM     10  C   UNL     1      -0.028   0.995   0.052  0.00  0.00    +0.048 C 
ENDROOT
BRANCH   8  11
ATOM     11  C   UNL     1      -3.049   1.679   0.323  0.00  0.00    +0.283 C 
ATOM     12  O   UNL     1      -2.707   1.339  -0.794  0.00  0.00    -0.267 OA
ATOM     13  N   UNL     1      -4.355   1.869   0.599  0.00  0.00    -0.290 N 
ATOM     14  C   UNL     1      -5.384   1.617  -0.420  0.00  0.00    +0.114 C 
ATOM     15  C   UNL     1      -6.274   0.455   0.040  0.00  0.00    +0.074 C 
ATOM     16  C   UNL     1      -6.636   0.665   1.489  0.00  0.00    +0.042 A 
ATOM     17  C   UNL     1      -5.974   1.496   2.334  0.00  0.00    +0.010 A 
ATOM     18  C   UNL     1      -6.587   1.424   3.582  0.00  0.00    +0.139 A 
ATOM     19  N   UNL     1      -7.586   0.581   3.494  0.00  0.00    -0.182 NA
ATOM     20  N   UNL     1      -7.635   0.091   2.181  0.00  0.00    -0.281 N 
ATOM     21  H   UNL     1      -8.296  -0.568   1.822  0.00  0.00    +0.189 HD
ATOM     22  C   UNL     1      -4.786   2.329   1.931  0.00  0.00    +0.146 C 
ENDBRANCH   8  11
BRANCH   1  23
ATOM     23  C   UNL     1       2.851   2.291   4.848  0.00  0.00    +0.035 C 
BRANCH  23  25
ATOM     24  C   UNL     1       5.000   3.544   5.079  0.00  0.00    +0.004 C 
ATOM     25  C   UNL     1       3.575   3.599   4.524  0.00  0.00    +0.001 C 
ENDBRANCH  23  25
ENDBRANCH   1  23
TORSDOF 3
