REMARK  Name = ZINC01122904
REMARK  10 active torsions:
REMARK  status: ('A' for Active; 'I' for Inactive)
REMARK    1  A    between atoms: C_1  and  C_2
REMARK    2  A    between atoms: C_2  and  O_3
REMARK    3  A    between atoms: O_3  and  C_4
REMARK    4  A    between atoms: C_7  and  C_12
REMARK    5  A    between atoms: C_9  and  O_10
REMARK    6  A    between atoms: O_10  and  C_11
REMARK    7  A    between atoms: C_17  and  C_27
REMARK    8  A    between atoms: C_30  and  O_34
REMARK    9  A    between atoms: C_31  and  O_33
REMARK   10  A    between atoms: O_34  and  C_35
REMARK                            x       y       z     vdW  Elec       q    Type
REMARK                         _______ _______ _______ _____ _____    ______ ____
ROOT
ATOM      1  C   UNL     1      -2.958   0.582  -4.237  0.00  0.00    +0.032 C 
ATOM      2  C   UNL     1      -3.300  -0.683  -3.451  0.00  0.00    +0.059 C 
ATOM      3  C   UNL     1      -2.873  -0.525  -2.002  0.00  0.00    +0.017 C 
ATOM      4  C   UNL     1      -2.897   0.682  -1.410  0.00  0.00    +0.036 C 
ATOM      5  C   UNL     1      -2.513   0.975   0.020  0.00  0.00    +0.136 C 
ATOM      6  N   UNL     1      -2.341  -0.200   0.848  0.00  0.00    -0.331 N 
ATOM      7  C   UNL     1      -1.327  -1.118   0.593  0.00  0.00    +0.049 A 
ATOM      8  C   UNL     1      -0.259  -1.277   1.460  0.00  0.00    +0.025 A 
ATOM      9  C   UNL     1       0.784  -2.116   1.108  0.00  0.00    +0.002 A 
ATOM     10  C   UNL     1       0.762  -2.792  -0.099  0.00  0.00    +0.002 A 
ATOM     11  C   UNL     1      -0.315  -2.652  -0.958  0.00  0.00    +0.025 A 
ATOM     12  C   UNL     1      -1.367  -1.827  -0.598  0.00  0.00    +0.052 A 
ATOM     13  N   UNL     1      -2.500  -1.678  -1.389  0.00  0.00    -0.316 N 
ATOM     14  C   UNL     1      -3.306   1.823  -2.139  0.00  0.00    +0.163 C 
ATOM     15  O   UNL     1      -3.336   2.900  -1.576  0.00  0.00    -0.292 OA
ATOM     16  C   UNL     1      -3.704   1.752  -3.583  0.00  0.00    +0.088 C 
ATOM     17  H   UNL     1      -2.942  -0.350   1.595  0.00  0.00    +0.147 HD
ATOM     18  H   UNL     1      -3.066  -2.455  -1.514  0.00  0.00    +0.152 HD
ENDROOT
BRANCH   1  22
ATOM     19  C   UNL     1      -4.225   0.149  -8.299  0.00  0.00    +0.162 A 
ATOM     20  C   UNL     1      -5.149   0.071  -7.270  0.00  0.00    +0.050 A 
ATOM     21  C   UNL     1      -4.737   0.212  -5.958  0.00  0.00    +0.008 A 
ATOM     22  C   UNL     1      -3.403   0.429  -5.669  0.00  0.00    -0.040 A 
ATOM     23  C   UNL     1      -2.476   0.513  -6.691  0.00  0.00    +0.053 A 
ATOM     24  C   UNL     1      -2.882   0.368  -8.008  0.00  0.00    +0.162 A 
BRANCH  24  25
ATOM     25  O   UNL     1      -1.970   0.445  -9.014  0.00  0.00    -0.491 OA
ATOM     26  C   UNL     1      -0.610   0.672  -8.642  0.00  0.00    +0.277 C 
ENDBRANCH  24  25
BRANCH  19  27
ATOM     27  O   UNL     1      -4.629   0.011  -9.590  0.00  0.00    -0.489 OA
BRANCH  27  29
ATOM     28  C   UNL     1      -6.284  -0.340 -11.315  0.00  0.00    +0.048 C 
ATOM     29  C   UNL     1      -6.023  -0.212  -9.813  0.00  0.00    +0.226 C 
ENDBRANCH  27  29
ENDBRANCH  19  27
ENDBRANCH   1  22
BRANCH   5  30
ATOM     30  C   UNL     1      -1.220   1.749   0.017  0.00  0.00    -0.019 A 
ATOM     31  C   UNL     1      -1.188   3.039   0.513  0.00  0.00    +0.009 A 
ATOM     32  C   UNL     1      -0.003   3.752   0.518  0.00  0.00    +0.050 A 
ATOM     33  C   UNL     1       1.154   3.175   0.020  0.00  0.00    +0.161 A 
ATOM     34  C   UNL     1       1.121   1.879  -0.484  0.00  0.00    +0.159 A 
ATOM     35  C   UNL     1      -0.070   1.170  -0.485  0.00  0.00    +0.055 A 
BRANCH  34  36
ATOM     36  O   UNL     1       2.254   1.309  -0.974  0.00  0.00    -0.503 OA
ATOM     37  H   UNL     1       2.769   0.827  -0.312  0.00  0.00    +0.292 HD
ENDBRANCH  34  36
BRANCH  33  38
ATOM     38  O   UNL     1       2.320   3.875   0.025  0.00  0.00    -0.491 OA
ATOM     39  C   UNL     1       2.280   5.200   0.558  0.00  0.00    +0.277 C 
ENDBRANCH  33  38
ENDBRANCH   5  30
TORSDOF 7
