REMARK  Name = ZINC12557610
REMARK  7 active torsions:
REMARK  status: ('A' for Active; 'I' for Inactive)
REMARK    1  A    between atoms: C_1  and  C_2
REMARK    2  A    between atoms: C_11  and  N_32
REMARK    3  A    between atoms: C_13  and  S_15
REMARK    4  A    between atoms: S_15  and  C_16
REMARK    5  A    between atoms: C_16  and  C_17
REMARK    6  A    between atoms: N_19  and  C_20
REMARK    7  A    between atoms: C_20  and  C_21
REMARK                            x       y       z     vdW  Elec       q    Type
REMARK                         _______ _______ _______ _____ _____    ______ ____
ROOT
ATOM      1  C   UNL     1      10.361  14.854   4.190  0.00  0.00    +0.008 C 
ATOM      2  C   UNL     1       9.117  14.154   3.639  0.00  0.00    -0.009 C 
ATOM      3  C   UNL     1       8.432  13.366   4.759  0.00  0.00    +0.008 C 
ATOM      4  C   UNL     1       7.340  12.471   4.171  0.00  0.00    +0.037 C 
ATOM      5  C   UNL     1       6.417  13.325   3.307  0.00  0.00    -0.025 A 
ATOM      6  C   UNL     1       6.815  14.531   2.856  0.00  0.00    -0.004 A 
ATOM      7  S   UNL     1       5.446  15.148   1.914  0.00  0.00    -0.073 S 
ATOM      8  C   UNL     1       4.336  13.781   2.127  0.00  0.00    +0.115 A 
ATOM      9  C   UNL     1       5.072  12.885   2.929  0.00  0.00    +0.051 A 
ATOM     10  C   UNL     1       4.406  11.673   3.263  0.00  0.00    +0.129 A 
ATOM     11  N   UNL     1       3.177  11.467   2.821  0.00  0.00    -0.207 NA
ATOM     12  C   UNL     1       2.542  12.354   2.063  0.00  0.00    +0.191 A 
ATOM     13  N   UNL     1       3.113  13.501   1.721  0.00  0.00    -0.214 NA
ATOM     14  C   UNL     1       8.133  15.201   3.101  0.00  0.00    +0.046 C 
ENDROOT
BRANCH  10  15
ATOM     15  N   UNL     1       5.036  10.722   4.045  0.00  0.00    -0.343 N 
ATOM     16  H   UNL     1       4.517  10.019   4.467  0.00  0.00    +0.144 HD
ATOM     17  H   UNL     1       5.997  10.758   4.172  0.00  0.00    +0.144 HD
ENDBRANCH  10  15
BRANCH  12  18
ATOM     18  S   UNL     1       0.907  12.003   1.508  0.00  0.00    -0.077 S 
BRANCH  18  19
ATOM     19  C   UNL     1       0.665  10.371   2.253  0.00  0.00    +0.173 C 
BRANCH  19  20
ATOM     20  C   UNL     1      -0.707   9.857   1.902  0.00  0.00    +0.223 C 
ATOM     21  O   UNL     1      -1.449  10.527   1.216  0.00  0.00    -0.275 OA
ATOM     22  N   UNL     1      -1.110   8.651   2.351  0.00  0.00    -0.311 N 
ATOM     23  H   UNL     1      -0.517   8.115   2.900  0.00  0.00    +0.149 HD
BRANCH  22  24
ATOM     24  C   UNL     1      -2.444   8.151   2.009  0.00  0.00    +0.152 C 
BRANCH  24  25
ATOM     25  C   UNL     1      -2.648   6.772   2.639  0.00  0.00    +0.228 C 
ATOM     26  C   UNL     1      -4.045   6.243   2.285  0.00  0.00    +0.275 C 
ATOM     27  O   UNL     1      -4.197   4.948   2.877  0.00  0.00    -0.485 OA
ATOM     28  C   UNL     1      -3.161   4.079   2.721  0.00  0.00    +0.162 A 
ATOM     29  C   UNL     1      -3.370   2.725   2.934  0.00  0.00    +0.049 A 
ATOM     30  C   UNL     1      -2.326   1.831   2.788  0.00  0.00    +0.004 A 
ATOM     31  C   UNL     1      -1.073   2.283   2.419  0.00  0.00    +0.004 A 
ATOM     32  C   UNL     1      -0.859   3.630   2.200  0.00  0.00    +0.049 A 
ATOM     33  C   UNL     1      -1.901   4.533   2.348  0.00  0.00    +0.163 A 
ATOM     34  O   UNL     1      -1.677   5.856   2.121  0.00  0.00    -0.480 OA
ENDBRANCH  24  25
ENDBRANCH  22  24
ENDBRANCH  19  20
ENDBRANCH  18  19
ENDBRANCH  12  18
TORSDOF 6
