REMARK  Name = ZINC20767858
REMARK  10 active torsions:
REMARK  status: ('A' for Active; 'I' for Inactive)
REMARK    1  A    between atoms: C_1  and  C_2
REMARK    2  A    between atoms: C_2  and  C_3
REMARK    3  A    between atoms: C_3  and  C_5
REMARK    4  A    between atoms: C_3  and  N_6
REMARK    5  A    between atoms: C_7  and  C_9
REMARK    6  A    between atoms: C_18  and  C_21
REMARK    7  A    between atoms: C_21  and  S_22
REMARK    8  A    between atoms: S_22  and  C_25
REMARK    9  A    between atoms: C_25  and  C_26
REMARK   10  A    between atoms: C_30  and  C_32
REMARK                            x       y       z     vdW  Elec       q    Type
REMARK                         _______ _______ _______ _____ _____    ______ ____
ROOT
ATOM      1  C   UNL     1      -3.431  -2.253  -4.770  0.00  0.00    +0.039 A 
ATOM      2  C   UNL     1      -2.034  -2.263  -4.794  0.00  0.00    +0.015 A 
ATOM      3  C   UNL     1      -1.325  -2.343  -3.615  0.00  0.00    +0.025 A 
ATOM      4  C   UNL     1      -1.999  -2.413  -2.404  0.00  0.00    +0.049 A 
ATOM      5  C   UNL     1      -3.397  -2.396  -2.370  0.00  0.00    +0.055 A 
ATOM      6  C   UNL     1      -4.111  -2.321  -3.550  0.00  0.00    +0.038 A 
ATOM      7  N   UNL     1      -4.062  -2.442  -1.139  0.00  0.00    -0.282 N 
ATOM      8  C   UNL     1      -3.385  -2.305   0.018  0.00  0.00    +0.239 C 
ATOM      9  O   UNL     1      -3.957  -2.470   1.074  0.00  0.00    -0.273 OA
ATOM     10  C   UNL     1      -1.919  -1.951   0.010  0.00  0.00    +0.178 C 
ATOM     11  N   UNL     1      -1.297  -2.504  -1.201  0.00  0.00    -0.330 N 
ATOM     12  H   UNL     1      -5.152  -2.590  -1.108  0.00  0.00    +0.155 HD
ATOM     13  H   UNL     1      -0.304  -2.974  -1.143  0.00  0.00    +0.147 HD
ENDROOT
BRANCH   1  15
ATOM     14  N   UNL     1      -3.534  -2.109  -7.209  0.00  0.00    -0.309 N 
ATOM     15  C   UNL     1      -4.189  -2.173  -6.033  0.00  0.00    +0.244 C 
ATOM     16  O   UNL     1      -5.405  -2.165  -6.013  0.00  0.00    -0.270 OA
ATOM     17  H   UNL     1      -2.434  -2.116  -7.227  0.00  0.00    +0.149 HD
BRANCH  14  18
ATOM     18  C   UNL     1      -4.287  -2.029  -8.463  0.00  0.00    +0.070 C 
ATOM     19  C   UNL     1      -4.646  -0.570  -8.751  0.00  0.00    +0.028 C 
BRANCH  18  21
ATOM     20  C   UNL     1      -3.178  -4.070  -9.382  0.00  0.00    +0.005 C 
ATOM     21  C   UNL     1      -3.432  -2.579  -9.607  0.00  0.00    +0.018 C 
ENDBRANCH  18  21
ENDBRANCH  14  18
ENDBRANCH   1  15
BRANCH  10  22
ATOM     22  C   UNL     1      -1.761  -0.429   0.017  0.00  0.00    +0.198 C 
BRANCH  22  23
ATOM     23  S   UNL     1       0.002  -0.004   0.002  0.00  0.00    -0.025 S 
ATOM     24  O   UNL     1       0.559  -0.439  -1.231  0.00  0.00    -0.174 OA
ATOM     25  O   UNL     1       0.583  -0.452   1.219  0.00  0.00    -0.174 OA
BRANCH  23  26
ATOM     26  C   UNL     1      -0.022   1.810   0.012  0.00  0.00    +0.201 C 
BRANCH  26  27
ATOM     27  C   UNL     1       1.391   2.331   0.001  0.00  0.00    -0.026 A 
ATOM     28  C   UNL     1       2.028   2.577  -1.201  0.00  0.00    +0.005 A 
ATOM     29  C   UNL     1       3.325   3.056  -1.211  0.00  0.00    +0.001 A 
ATOM     30  C   UNL     1       3.985   3.289  -0.018  0.00  0.00    +0.003 A 
ATOM     31  C   UNL     1       3.348   3.043   1.183  0.00  0.00    -0.050 A 
ATOM     32  C   UNL     1       2.049   2.570   1.193  0.00  0.00    +0.008 A 
ATOM     33  C   UNL     1       4.067   3.298   2.483  0.00  0.00    +0.044 C 
ENDBRANCH  26  27
ENDBRANCH  23  26
ENDBRANCH  22  23
ENDBRANCH  10  22
TORSDOF 7
