REMARK  Name = ZINC66314929
REMARK  8 active torsions:
REMARK  status: ('A' for Active; 'I' for Inactive)
REMARK    1  A    between atoms: C_1  and  C_2
REMARK    2  A    between atoms: C_6  and  C_24
REMARK    3  A    between atoms: C_7  and  N_8
REMARK    4  A    between atoms: C_9  and  C_11
REMARK    5  A    between atoms: C_11  and  C_12
REMARK    6  A    between atoms: C_12  and  C_14
REMARK    7  A    between atoms: C_12  and  N_15
REMARK    8  A    between atoms: C_16  and  C_18
REMARK                            x       y       z     vdW  Elec       q    Type
REMARK                         _______ _______ _______ _____ _____    ______ ____
ROOT
ATOM      1  N   UNL     1      -0.199  -0.037   2.420  0.00  0.00    -0.285 N 
ATOM      2  C   UNL     1      -0.389  -0.727   3.562  0.00  0.00    +0.219 C 
ATOM      3  O   UNL     1      -0.555  -1.928   3.525  0.00  0.00    -0.275 OA
ATOM      4  H   UNL     1      -0.118   0.929   2.445  0.00  0.00    +0.155 HD
ENDROOT
BRANCH   1  11
ATOM      5  C   UNL     1       1.719  -2.123   2.165  0.00  0.00    +0.046 C 
ATOM      6  C   UNL     1       0.803  -1.739   1.031  0.00  0.00    -0.028 A 
ATOM      7  C   UNL     1       0.877  -2.410  -0.174  0.00  0.00    +0.020 A 
ATOM      8  C   UNL     1       0.036  -2.058  -1.216  0.00  0.00    +0.018 A 
ATOM      9  C   UNL     1      -0.879  -1.034  -1.053  0.00  0.00    +0.020 A 
ATOM     10  C   UNL     1      -0.957  -0.359   0.150  0.00  0.00    -0.028 A 
ATOM     11  C   UNL     1      -0.118  -0.715   1.198  0.00  0.00    +0.039 A 
ATOM     12  C   UNL     1      -1.954   0.757   0.326  0.00  0.00    +0.046 C 
ATOM     13 BR   UNL     1       0.140  -2.979  -2.864  0.00  0.00    -0.050 Br
ENDBRANCH   1  11
BRANCH   2  14
ATOM     14  C   UNL     1      -0.395  -0.006   4.886  0.00  0.00    +0.118 C 
BRANCH  14  15
ATOM     15  C   UNL     1      -0.629  -1.013   6.014  0.00  0.00    +0.079 C 
ATOM     16  C   UNL     1      -0.511  -0.303   7.364  0.00  0.00    +0.028 C 
BRANCH  15  17
ATOM     17  N   UNL     1      -1.968  -1.593   5.881  0.00  0.00    -0.312 N 
ATOM     18  C   UNL     1      -2.230  -2.809   6.398  0.00  0.00    +0.216 C 
ATOM     19  O   UNL     1      -1.357  -3.425   6.973  0.00  0.00    -0.276 OA
ATOM     20  H   UNL     1      -2.666  -1.100   5.422  0.00  0.00    +0.149 HD
BRANCH  18  21
ATOM     21  C   UNL     1      -3.608  -3.405   6.262  0.00  0.00    +0.075 C 
ATOM     22  C   UNL     1      -4.629  -2.489   6.939  0.00  0.00    +0.013 C 
ATOM     23  C   UNL     1      -6.027  -3.094   6.801  0.00  0.00    +0.001 C 
ATOM     24  C   UNL     1      -6.056  -4.470   7.469  0.00  0.00    +0.000 C 
ATOM     25  C   UNL     1      -5.035  -5.386   6.792  0.00  0.00    +0.001 C 
ATOM     26  C   UNL     1      -3.636  -4.781   6.930  0.00  0.00    +0.013 C 
ENDBRANCH  18  21
ENDBRANCH  15  17
ENDBRANCH  14  15
ENDBRANCH   2  14
TORSDOF 5
