REMARK  Name = ZINC12288874
REMARK  8 active torsions:
REMARK  status: ('A' for Active; 'I' for Inactive)
REMARK    1  A    between atoms: C_2  and  C_3
REMARK    2  A    between atoms: C_3  and  N_4
REMARK    3  A    between atoms: C_7  and  N_27
REMARK    4  A    between atoms: N_13  and  C_14
REMARK    5  A    between atoms: C_14  and  C_16
REMARK    6  A    between atoms: C_16  and  C_17
REMARK    7  A    between atoms: C_17  and  S_18
REMARK    8  A    between atoms: S_18  and  C_21
REMARK                            x       y       z     vdW  Elec       q    Type
REMARK                         _______ _______ _______ _____ _____    ______ ____
ROOT
ATOM      1  N   UNL     1      -0.705   1.593   1.195  0.00  0.00    -0.317 N 
ATOM      2  C   UNL     1       0.019   1.938   2.321  0.00  0.00    +0.060 A 
ATOM      3  C   UNL     1       1.408   1.874   2.518  0.00  0.00    +0.059 A 
ATOM      4  C   UNL     1       1.968   2.260   3.712  0.00  0.00    +0.128 A 
ATOM      5  C   UNL     1       1.184   2.724   4.755  0.00  0.00    +0.034 A 
ATOM      6  C   UNL     1      -0.188   2.798   4.589  0.00  0.00    +0.019 A 
ATOM      7  C   UNL     1      -0.749   2.411   3.395  0.00  0.00    +0.039 A 
ATOM      8  S   UNL     1      -2.408   2.344   2.769  0.00  0.00    -0.052 S 
ATOM      9  C   UNL     1      -2.057   1.730   1.186  0.00  0.00    +0.167 A 
ATOM     10  N   UNL     1      -2.908   1.456   0.199  0.00  0.00    -0.156 NA
ENDROOT
BRANCH   4  11
ATOM     11  N   UNL     1       3.436   2.179   3.886  0.00  0.00    +0.056 N 
ATOM     12  O   UNL     1       4.135   1.773   2.976  0.00  0.00    -0.126 OA
ATOM     13  O   UNL     1       3.943   2.519   4.940  0.00  0.00    -0.126 OA
ENDBRANCH   4  11
BRANCH  10  14
ATOM     14  C   UNL     1      -4.210   1.653   0.371  0.00  0.00    +0.240 C 
ATOM     15  O   UNL     1      -4.625   2.085   1.430  0.00  0.00    -0.274 OA
BRANCH  14  16
ATOM     16  C   UNL     1      -5.173   1.343  -0.746  0.00  0.00    +0.121 C 
BRANCH  16  17
ATOM     17  C   UNL     1      -6.600   1.657  -0.291  0.00  0.00    +0.181 C 
BRANCH  17  18
ATOM     18  S   UNL     1      -7.759   1.283  -1.635  0.00  0.00    -0.003 S 
ATOM     19  O   UNL     1      -7.567   2.189  -2.713  0.00  0.00    -0.169 OA
ATOM     20  O   UNL     1      -7.806  -0.118  -1.866  0.00  0.00    -0.169 OA
BRANCH  18  21
ATOM     21  C   UNL     1      -9.348   1.685  -0.988  0.00  0.00    +0.088 A 
ATOM     22  C   UNL     1     -10.089   0.723  -0.329  0.00  0.00    +0.027 A 
ATOM     23  C   UNL     1     -11.334   1.040   0.183  0.00  0.00    +0.002 A 
ATOM     24  C   UNL     1     -11.841   2.316   0.027  0.00  0.00    +0.000 A 
ATOM     25  C   UNL     1     -11.102   3.277  -0.638  0.00  0.00    +0.002 A 
ATOM     26  C   UNL     1      -9.855   2.962  -1.145  0.00  0.00    +0.027 A 
ENDBRANCH  18  21
ENDBRANCH  17  18
ENDBRANCH  16  17
ENDBRANCH  14  16
ENDBRANCH  10  14
BRANCH   1  27
ATOM     27  C   UNL     1      -0.013   1.086   0.008  0.00  0.00    +0.151 C 
BRANCH  27  29
ATOM     28  C   UNL     1      -0.034   2.360  -2.075  0.00  0.00    +0.005 C 
ATOM     29  C   UNL     1      -0.695   1.606  -1.231  0.00  0.00    -0.013 C 
ENDBRANCH  27  29
ENDBRANCH   1  27
TORSDOF 8
