REMARK  Name = ZINC12050500
REMARK  8 active torsions:
REMARK  status: ('A' for Active; 'I' for Inactive)
REMARK    1  A    between atoms: C_1  and  C_2
REMARK    2  A    between atoms: C_2  and  N_61
REMARK    3  A    between atoms: C_6  and  C_8
REMARK    4  A    between atoms: C_8  and  N_9
REMARK    5  A    between atoms: C_10  and  C_12
REMARK    6  A    between atoms: C_12  and  C_13
REMARK    7  A    between atoms: C_13  and  C_14
REMARK    8  A    between atoms: C_20  and  C_22
REMARK                            x       y       z     vdW  Elec       q    Type
REMARK                         _______ _______ _______ _____ _____    ______ ____
ROOT
ATOM      1  C   UNL     1       0.193  -4.273  -2.765  0.00  0.00    -0.008 C 
ATOM      2  C   UNL     1      -0.736  -3.759  -3.867  0.00  0.00    +0.022 C 
ATOM      3  C   UNL     1      -0.077  -3.983  -5.232  0.00  0.00    +0.108 C 
ATOM      4  N   UNL     1       0.279  -5.403  -5.357  0.00  0.00    -0.296 N 
ATOM      5  C   UNL     1       1.095  -6.022  -4.304  0.00  0.00    +0.108 C 
ATOM      6  C   UNL     1       0.423  -5.775  -2.950  0.00  0.00    +0.022 C 
ATOM      7  C   UNL     1      -0.136  -6.123  -6.418  0.00  0.00    +0.262 C 
ATOM      8  O   UNL     1      -0.001  -7.332  -6.422  0.00  0.00    -0.269 OA
ENDROOT
BRANCH   7   9
ATOM      9  C   UNL     1      -0.750  -5.450  -7.568  0.00  0.00    +0.121 C 
ATOM     10  N   UNL     1      -0.752  -4.154  -7.624  0.00  0.00    -0.180 NA
ATOM     11  N   UNL     1      -1.329  -3.478  -8.703  0.00  0.00    -0.207 N 
ATOM     12  C   UNL     1      -2.218  -4.101  -9.502  0.00  0.00    +0.233 C 
ATOM     13  O   UNL     1      -2.719  -3.509 -10.434  0.00  0.00    -0.274 OA
ATOM     14  C   UNL     1      -2.587  -5.538  -9.233  0.00  0.00    +0.104 C 
ATOM     15  C   UNL     1      -1.365  -6.273  -8.668  0.00  0.00    +0.071 C 
ATOM     16  H   UNL     1      -1.089  -2.555  -8.878  0.00  0.00    +0.177 HD
ENDBRANCH   7   9
BRANCH   1  17
ATOM     17  C   UNL     1      -0.446  -4.019  -1.399  0.00  0.00    +0.013 C 
BRANCH  17  18
ATOM     18  C   UNL     1      -0.562  -2.512  -1.162  0.00  0.00    +0.096 C 
BRANCH  18  20
ATOM     19  N   UNL     1      -1.395  -1.000   0.609  0.00  0.00    -0.317 N 
ATOM     20  C   UNL     1      -1.192  -2.262   0.184  0.00  0.00    +0.213 C 
ATOM     21  O   UNL     1      -1.516  -3.197   0.885  0.00  0.00    -0.276 OA
ATOM     22  H   UNL     1      -1.135  -0.252   0.049  0.00  0.00    +0.149 HD
BRANCH  19  23
ATOM     23  C   UNL     1      -2.007  -0.757   1.918  0.00  0.00    +0.089 C 
BRANCH  23  27
ATOM     24  C   UNL     1      -1.959   1.839   4.218  0.00  0.00    -0.078 C 
ATOM     25  C   UNL     1      -1.079   2.580   3.181  0.00  0.00    -0.020 C 
ATOM     26  C   UNL     1      -0.882   1.487   2.095  0.00  0.00    -0.016 C 
ATOM     27  C   UNL     1      -2.235   0.745   2.103  0.00  0.00    -0.051 C 
ATOM     28  N   UNL     1      -2.873   1.015   3.402  0.00  0.00    +0.382 N 
ATOM     29  H   UNL     1      -3.749   1.528   3.250  0.00  0.00    -0.081 HD
BRANCH  28  31
ATOM     30  C   UNL     1      -3.740   0.042   5.489  0.00  0.00    -0.017 C 
ATOM     31  C   UNL     1      -3.173  -0.262   4.101  0.00  0.00    -0.082 C 
ENDBRANCH  28  31
ENDBRANCH  23  27
ENDBRANCH  19  23
ENDBRANCH  18  20
ENDBRANCH  17  18
ENDBRANCH   1  17
TORSDOF 7
