REMARK  Name = ZINC09224171
REMARK  9 active torsions:
REMARK  status: ('A' for Active; 'I' for Inactive)
REMARK    1  A    between atoms: C_1  and  C_2
REMARK    2  A    between atoms: C_5  and  C_32
REMARK    3  A    between atoms: C_6  and  S_8
REMARK    4  A    between atoms: S_8  and  N_11
REMARK    5  A    between atoms: N_11  and  C_12
REMARK    6  A    between atoms: C_15  and  S_21
REMARK    7  A    between atoms: C_17  and  N_18
REMARK    8  A    between atoms: S_21  and  N_24
REMARK    9  A    between atoms: C_28  and  C_31
REMARK                            x       y       z     vdW  Elec       q    Type
REMARK                         _______ _______ _______ _____ _____    ______ ____
ROOT
ATOM      1  C   UNL     1      -1.853   1.032   1.817  0.00  0.00    +0.078 A 
ATOM      2  C   UNL     1      -1.994  -0.278   1.377  0.00  0.00    +0.029 A 
ATOM      3  C   UNL     1      -3.092  -1.020   1.763  0.00  0.00    +0.030 A 
ATOM      4  C   UNL     1      -4.057  -0.458   2.579  0.00  0.00    +0.108 A 
ATOM      5  C   UNL     1      -3.923   0.848   3.015  0.00  0.00    +0.063 A 
ATOM      6  C   UNL     1      -2.824   1.594   2.636  0.00  0.00    +0.150 A 
ENDROOT
BRANCH   6   7
ATOM      7  N   UNL     1      -2.682   2.991   3.103  0.00  0.00    +0.058 N 
ATOM      8  O   UNL     1      -3.534   3.484   3.821  0.00  0.00    -0.126 OA
ATOM      9  O   UNL     1      -1.713   3.650   2.769  0.00  0.00    -0.126 OA
ENDBRANCH   6   7
BRANCH   4  10
ATOM     10  S   UNL     1      -5.460  -1.407   3.063  0.00  0.00    +0.061 S 
ATOM     11  O   UNL     1      -5.079  -2.772   2.970  0.00  0.00    -0.153 OA
ATOM     12  O   UNL     1      -5.943  -0.831   4.270  0.00  0.00    -0.153 OA
BRANCH  10  13
ATOM     13  N   UNL     1      -6.634  -1.163   1.921  0.00  0.00    -0.176 NA
ATOM     14  C   UNL     1      -7.606  -0.072   2.067  0.00  0.00    +0.109 C 
ATOM     15  C   UNL     1      -9.018  -0.646   1.958  0.00  0.00    +0.017 C 
ATOM     16  C   UNL     1      -9.147  -1.432   0.652  0.00  0.00    +0.006 C 
ATOM     17  C   UNL     1      -8.151  -2.594   0.653  0.00  0.00    +0.002 C 
ATOM     18  C   UNL     1      -6.726  -2.039   0.744  0.00  0.00    +0.112 C 
ATOM     19  C   UNL     1      -8.303  -3.399  -0.639  0.00  0.00    +0.009 C 
ENDBRANCH  10  13
ENDBRANCH   4  10
BRANCH   1  20
ATOM     20  N   UNL     1      -0.741   1.785   1.433  0.00  0.00    -0.214 N 
ATOM     21  H   UNL     1      -0.346   2.418   2.053  0.00  0.00    +0.174 HD
BRANCH  20  22
ATOM     22  S   UNL     1      -0.096   1.595  -0.080  0.00  0.00    +0.073 S 
ATOM     23  O   UNL     1       0.175   0.209  -0.236  0.00  0.00    -0.150 OA
ATOM     24  O   UNL     1       0.911   2.588  -0.220  0.00  0.00    -0.150 OA
BRANCH  22  30
ATOM     25  C   UNL     1      -3.444   0.251  -3.862  0.00  0.00    +0.044 C 
ATOM     26  C   UNL     1      -2.875   1.323  -2.969  0.00  0.00    -0.049 A 
ATOM     27  C   UNL     1      -3.346   2.620  -3.059  0.00  0.00    +0.004 A 
ATOM     28  C   UNL     1      -2.824   3.603  -2.240  0.00  0.00    +0.005 A 
ATOM     29  C   UNL     1      -1.832   3.290  -1.330  0.00  0.00    -0.024 A 
ATOM     30  C   UNL     1      -1.361   1.994  -1.240  0.00  0.00    +0.112 A 
ATOM     31  C   UNL     1      -1.879   1.011  -2.063  0.00  0.00    +0.032 A 
ATOM     32  C   UNL     1      -1.263   4.362  -0.438  0.00  0.00    +0.046 C 
ENDBRANCH  22  30
ENDBRANCH  20  22
ENDBRANCH   1  20
TORSDOF 6
