REMARK  Name = ZINC18244465
REMARK  4 active torsions:
REMARK  status: ('A' for Active; 'I' for Inactive)
REMARK    1  A    between atoms: C_1  and  C_2
REMARK    2  A    between atoms: C_2  and  C_30
REMARK    3  A    between atoms: C_6  and  C_22
REMARK    4  A    between atoms: C_16  and  C_18
REMARK                            x       y       z     vdW  Elec       q    Type
REMARK                         _______ _______ _______ _____ _____    ______ ____
ROOT
ATOM      1  C   UNL     1      -0.064   1.012   2.513  0.00  0.00    +0.011 C 
ATOM      2  C   UNL     1      -0.738   1.584   1.264  0.00  0.00    -0.023 C 
ATOM      3  C   UNL     1      -2.188   1.099   1.181  0.00  0.00    +0.058 C 
ATOM      4  C   UNL     1      -2.851   1.654  -0.069  0.00  0.00    +0.017 C 
ATOM      5  C   UNL     1      -2.132   1.863  -1.185  0.00  0.00    +0.040 C 
ATOM      6  C   UNL     1      -2.663   2.401  -2.492  0.00  0.00    +0.182 C 
ATOM      7  N   UNL     1      -4.107   2.454  -2.579  0.00  0.00    -0.248 N 
ATOM      8  C   UNL     1      -4.847   3.291  -1.742  0.00  0.00    +0.059 A 
ATOM      9  C   UNL     1      -5.533   4.388  -2.239  0.00  0.00    +0.025 A 
ATOM     10  C   UNL     1      -6.159   5.253  -1.359  0.00  0.00    +0.002 A 
ATOM     11  C   UNL     1      -6.104   5.028   0.004  0.00  0.00    +0.002 A 
ATOM     12  C   UNL     1      -5.438   3.921   0.502  0.00  0.00    +0.025 A 
ATOM     13  C   UNL     1      -4.826   3.045  -0.378  0.00  0.00    +0.053 A 
ATOM     14  N   UNL     1      -4.182   1.890   0.050  0.00  0.00    -0.316 N 
ATOM     15  C   UNL     1      -4.747   1.684  -3.481  0.00  0.00    +0.325 C 
ATOM     16  O   UNL     1      -4.113   0.953  -4.213  0.00  0.00    -0.265 OA
ATOM     17  C   UNL     1      -0.745   1.586  -1.201  0.00  0.00    +0.163 C 
ATOM     18  O   UNL     1      -0.124   1.760  -2.231  0.00  0.00    -0.292 OA
ATOM     19  C   UNL     1      -0.013   1.086   0.008  0.00  0.00    +0.086 C 
ATOM     20  C   UNL     1      -0.705   3.113   1.310  0.00  0.00    +0.011 C 
ATOM     21  H   UNL     1      -4.725   1.202   0.465  0.00  0.00    +0.152 HD
ENDROOT
BRANCH   6  22
ATOM     22  C   UNL     1      -2.121   3.793  -2.690  0.00  0.00    +0.130 A 
ATOM     23  C   UNL     1      -1.075   4.127  -3.467  0.00  0.00    +0.047 A 
ATOM     24  C   UNL     1      -0.917   5.528  -3.361  0.00  0.00    +0.041 A 
ATOM     25  C   UNL     1      -1.871   5.966  -2.520  0.00  0.00    +0.195 A 
ATOM     26  O   UNL     1      -2.598   4.910  -2.116  0.00  0.00    -0.466 OA
ENDBRANCH   6  22
BRANCH  15  27
ATOM     27  C   UNL     1      -6.250   1.730  -3.580  0.00  0.00    +0.470 C 
ATOM     28  F   UNL     1      -6.678   0.851  -4.580  0.00  0.00    -0.162 F 
ATOM     29  F   UNL     1      -6.810   1.353  -2.356  0.00  0.00    -0.162 F 
ATOM     30  F   UNL     1      -6.656   3.031  -3.898  0.00  0.00    -0.162 F 
ENDBRANCH  15  27
TORSDOF 2
