REMARK  Name = ZINC12442142
REMARK  7 active torsions:
REMARK  status: ('A' for Active; 'I' for Inactive)
REMARK    1  A    between atoms: C_1  and  N_2
REMARK    2  A    between atoms: C_6  and  S_7
REMARK    3  A    between atoms: S_7  and  C_8
REMARK    4  A    between atoms: C_11  and  C_13
REMARK    5  A    between atoms: C_13  and  N_52
REMARK    6  A    between atoms: C_17  and  C_20
REMARK    7  A    between atoms: C_20  and  C_22
REMARK                            x       y       z     vdW  Elec       q    Type
REMARK                         _______ _______ _______ _____ _____    ______ ____
ROOT
ATOM      1  C   UNL     1      -6.591   1.885   0.830  0.00  0.00    -0.078 C 
ATOM      2  C   UNL     1      -5.551   2.801   1.478  0.00  0.00    -0.018 C 
ATOM      3  C   UNL     1      -4.189   2.104   1.472  0.00  0.00    +0.008 C 
ATOM      4  C   UNL     1      -3.811   1.752   0.030  0.00  0.00    +0.044 C 
ATOM      5  C   UNL     1      -4.901   0.866  -0.577  0.00  0.00    -0.067 C 
ATOM      6  N   UNL     1      -6.182   1.604  -0.563  0.00  0.00    +0.385 N 
ATOM      7  H   UNL     1      -6.059   2.494  -1.059  0.00  0.00    -0.081 HD
ENDROOT
BRANCH   4   8
ATOM      8  C   UNL     1      -2.498   1.013   0.020  0.00  0.00    +0.165 C 
ATOM      9  O   UNL     1      -2.485  -0.200   0.014  0.00  0.00    -0.292 OA
BRANCH   8  10
ATOM     10  C   UNL     1      -1.234   1.761   0.017  0.00  0.00    +0.021 A 
ATOM     11  C   UNL     1      -1.246   3.161   0.028  0.00  0.00    +0.015 A 
ATOM     12  C   UNL     1      -0.060   3.859   0.022  0.00  0.00    +0.050 A 
ATOM     13  C   UNL     1       1.152   3.179   0.008  0.00  0.00    +0.166 A 
ATOM     14  C   UNL     1       1.172   1.783   0.000  0.00  0.00    +0.167 A 
ATOM     15  C   UNL     1      -0.013   1.076   0.008  0.00  0.00    +0.061 A 
ATOM     16  O   UNL     1       2.473   1.367  -0.013  0.00  0.00    -0.453 OA
ATOM     17  C   UNL     1       3.245   2.510   0.399  0.00  0.00    +0.466 C 
ATOM     18  O   UNL     1       2.438   3.632  -0.002  0.00  0.00    -0.453 OA
ENDBRANCH   8  10
ENDBRANCH   4   8
BRANCH   6  19
ATOM     19  C   UNL     1      -7.227   0.814  -1.246  0.00  0.00    -0.003 C 
BRANCH  19  23
ATOM     20  C   UNL     1     -10.392   2.627  -1.023  0.00  0.00    +0.169 A 
ATOM     21  C   UNL     1      -9.956   3.094  -2.216  0.00  0.00    +0.057 A 
ATOM     22  C   UNL     1      -8.708   2.478  -2.464  0.00  0.00    +0.044 A 
ATOM     23  C   UNL     1      -8.452   1.675  -1.416  0.00  0.00    +0.090 A 
ATOM     24  O   UNL     1      -9.477   1.764  -0.548  0.00  0.00    -0.455 OA
BRANCH  20  25
ATOM     25  S   UNL     1     -11.902   3.070  -0.230  0.00  0.00    -0.012 S 
BRANCH  25  31
ATOM     26  C   UNL     1     -13.960   2.756   2.340  0.00  0.00    +0.152 C 
ATOM     27  N   UNL     1     -12.691   2.031   2.245  0.00  0.00    -0.311 N 
ATOM     28  C   UNL     1     -12.174   1.151   3.155  0.00  0.00    +0.225 A 
ATOM     29  N   UNL     1     -11.031   0.735   2.686  0.00  0.00    -0.137 NA
ATOM     30  N   UNL     1     -10.795   1.284   1.548  0.00  0.00    -0.122 NA
ATOM     31  C   UNL     1     -11.779   2.093   1.231  0.00  0.00    +0.199 A 
ENDBRANCH  25  31
ENDBRANCH  20  25
ENDBRANCH  19  23
ENDBRANCH   6  19
TORSDOF 6
