REMARK  Name = ZINC40055614
REMARK  6 active torsions:
REMARK  status: ('A' for Active; 'I' for Inactive)
REMARK    1  A    between atoms: C_1  and  C_2
REMARK    2  A    between atoms: N_16  and  C_28
REMARK    3  A    between atoms: C_17  and  C_19
REMARK    4  A    between atoms: C_23  and  N_25
REMARK    5  A    between atoms: C_28  and  C_29
REMARK    6  A    between atoms: C_29  and  O_30
REMARK                            x       y       z     vdW  Elec       q    Type
REMARK                         _______ _______ _______ _____ _____    ______ ____
ROOT
ATOM      1  C   UNL     1      -0.018   1.503   0.010  0.00  0.00    +0.045 C 
ATOM      2  C   UNL     1       0.002  -0.004   0.002  0.00  0.00    -0.029 A 
ATOM      3  C   UNL     1       0.006  -0.677  -1.199  0.00  0.00    +0.051 A 
ATOM      4  C   UNL     1       0.026  -2.071  -1.222  0.00  0.00    +0.140 A 
ATOM      5  C   UNL     1       0.047  -2.767  -0.001  0.00  0.00    +0.066 A 
ATOM      6  C   UNL     1       0.040  -2.075   1.209  0.00  0.00    +0.035 A 
ATOM      7  C   UNL     1       0.023  -0.696   1.206  0.00  0.00    +0.045 A 
ATOM      8 CL   UNL     1       0.021   0.175   2.707  0.00  0.00    -0.083 Cl
ATOM      9  C   UNL     1       0.085  -4.251  -0.018  0.00  0.00    +0.199 A 
ATOM     10  O   UNL     1      -0.063  -4.933   0.980  0.00  0.00    -0.287 OA
ATOM     11  C   UNL     1       0.317  -4.817  -1.351  0.00  0.00    +0.072 A 
ATOM     12  C   UNL     1       0.278  -4.030  -2.467  0.00  0.00    +0.199 A 
ATOM     13  O   UNL     1       0.021  -2.708  -2.416  0.00  0.00    -0.450 OA
ATOM     14  C   UNL     1       0.555  -4.877  -3.640  0.00  0.00    +0.283 C 
ATOM     15  O   UNL     1       0.599  -4.483  -4.788  0.00  0.00    -0.267 OA
ATOM     16  N   UNL     1       0.754  -6.154  -3.253  0.00  0.00    -0.282 N 
ATOM     17  C   UNL     1       0.617  -6.213  -1.789  0.00  0.00    +0.145 C 
ENDROOT
BRANCH  17  18
ATOM     18  C   UNL     1      -0.515  -7.132  -1.409  0.00  0.00    -0.020 A 
ATOM     19  C   UNL     1      -1.667  -7.162  -2.174  0.00  0.00    +0.006 A 
ATOM     20  C   UNL     1      -2.705  -8.005  -1.825  0.00  0.00    +0.003 A 
ATOM     21  C   UNL     1      -2.592  -8.818  -0.713  0.00  0.00    +0.033 A 
ATOM     22  C   UNL     1      -1.440  -8.789   0.051  0.00  0.00    +0.127 A 
ATOM     23  C   UNL     1      -0.400  -7.948  -0.300  0.00  0.00    +0.038 A 
BRANCH  22  24
ATOM     24  N   UNL     1      -1.319  -9.659   1.242  0.00  0.00    +0.056 N 
ATOM     25  O   UNL     1      -2.228 -10.396   1.547  0.00  0.00    -0.126 OA
ATOM     26  O   UNL     1      -0.312  -9.633   1.910  0.00  0.00    -0.126 OA
ENDBRANCH  22  24
ENDBRANCH  17  18
BRANCH  16  27
ATOM     27  C   UNL     1       1.053  -7.284  -4.136  0.00  0.00    +0.137 C 
BRANCH  27  28
ATOM     28  C   UNL     1       2.568  -7.415  -4.302  0.00  0.00    +0.175 C 
BRANCH  28  29
ATOM     29  O   UNL     1       3.157  -7.752  -3.044  0.00  0.00    -0.393 OA
ATOM     30  H   UNL     1       4.119  -7.851  -3.074  0.00  0.00    +0.209 HD
ENDBRANCH  28  29
ENDBRANCH  27  28
ENDBRANCH  16  27
TORSDOF 5
