REMARK  Name = ZINC20348456
REMARK  11 active torsions:
REMARK  status: ('A' for Active; 'I' for Inactive)
REMARK    1  A    between atoms: C_1  and  C_2
REMARK    2  A    between atoms: C_3  and  C_29
REMARK    3  A    between atoms: C_4  and  C_22
REMARK    4  A    between atoms: C_6  and  C_20
REMARK    5  A    between atoms: C_7  and  S_9
REMARK    6  A    between atoms: S_9  and  C_10
REMARK    7  A    between atoms: C_10  and  C_11
REMARK    8  A    between atoms: N_13  and  C_14
REMARK    9  A    between atoms: C_29  and  O_31
REMARK   10  A    between atoms: O_31  and  C_32
REMARK   11  A    between atoms: C_32  and  C_33
REMARK                            x       y       z     vdW  Elec       q    Type
REMARK                         _______ _______ _______ _____ _____    ______ ____
ROOT
ATOM      1  C   UNL     1       2.579  -2.596  -0.776  0.00  0.00    +0.061 C 
ATOM      2  C   UNL     1       1.259  -1.988  -0.377  0.00  0.00    +0.016 C 
ATOM      3  C   UNL     1       0.151  -2.749  -0.385  0.00  0.00    +0.066 C 
ATOM      4  C   UNL     1      -1.188  -2.197   0.013  0.00  0.00    +0.102 C 
ATOM      5  C   UNL     1      -1.169  -0.695   0.015  0.00  0.00    +0.069 C 
ATOM      6  C   UNL     1       0.002  -0.004   0.002  0.00  0.00    +0.080 C 
ATOM      7  N   UNL     1       1.207  -0.671  -0.013  0.00  0.00    -0.312 N 
ATOM      8  H   UNL     1       2.129  -0.141   0.269  0.00  0.00    +0.152 HD
ENDROOT
BRANCH   4   9
ATOM      9  C   UNL     1      -1.535  -2.687   1.395  0.00  0.00    -0.016 A 
ATOM     10  C   UNL     1      -0.711  -2.385   2.462  0.00  0.00    +0.006 A 
ATOM     11  C   UNL     1      -1.032  -2.830   3.731  0.00  0.00    +0.000 A 
ATOM     12  C   UNL     1      -2.172  -3.586   3.932  0.00  0.00    +0.001 A 
ATOM     13  C   UNL     1      -2.995  -3.892   2.864  0.00  0.00    +0.020 A 
ATOM     14  C   UNL     1      -2.677  -3.443   1.595  0.00  0.00    +0.045 A 
ATOM     15 CL   UNL     1      -3.709  -3.828   0.253  0.00  0.00    -0.083 Cl
ENDBRANCH   4   9
BRANCH   5  16
ATOM     16  C   UNL     1      -2.408   0.023   0.028  0.00  0.00    +0.098 C 
ATOM     17  N   UNL     1      -3.391   0.593   0.038  0.00  0.00    -0.191 NA
ENDBRANCH   5  16
BRANCH   3  18
ATOM     18  C   UNL     1       0.249  -4.103  -0.776  0.00  0.00    +0.338 C 
ATOM     19  O   UNL     1       1.327  -4.566  -1.101  0.00  0.00    -0.245 OA
BRANCH  18  20
ATOM     20  O   UNL     1      -0.852  -4.883  -0.790  0.00  0.00    -0.457 OA
BRANCH  20  21
ATOM     21  C   UNL     1      -0.680  -6.242  -1.196  0.00  0.00    +0.259 C 
BRANCH  21  22
ATOM     22  C   UNL     1      -2.008  -6.953  -1.150  0.00  0.00    +0.006 C 
ATOM     23  C   UNL     1      -2.372  -7.727  -2.142  0.00  0.00    +0.007 C 
ENDBRANCH  21  22
ENDBRANCH  20  21
ENDBRANCH  18  20
ENDBRANCH   3  18
BRANCH   6  24
ATOM     24  S   UNL     1      -0.022   1.758   0.012  0.00  0.00    -0.100 S 
BRANCH  24  25
ATOM     25  C   UNL     1       1.756   2.096  -0.004  0.00  0.00    +0.171 C 
BRANCH  25  26
ATOM     26  C   UNL     1       1.984   3.586   0.002  0.00  0.00    +0.223 C 
ATOM     27  O   UNL     1       1.037   4.344   0.015  0.00  0.00    -0.275 OA
ATOM     28  N   UNL     1       3.240   4.076  -0.007  0.00  0.00    -0.312 N 
ATOM     29  H   UNL     1       4.098   3.388  -0.019  0.00  0.00    +0.149 HD
BRANCH  28  30
ATOM     30  C   UNL     1       3.461   5.524  -0.001  0.00  0.00    +0.073 C 
ATOM     31  C   UNL     1       3.400   6.055  -1.435  0.00  0.00    +0.022 C 
ATOM     32  C   UNL     1       3.631   7.567  -1.429  0.00  0.00    +0.002 C 
ATOM     33  C   UNL     1       5.006   7.870  -0.831  0.00  0.00    +0.000 C 
ATOM     34  C   UNL     1       5.067   7.340   0.603  0.00  0.00    +0.002 C 
ATOM     35  C   UNL     1       4.836   5.827   0.597  0.00  0.00    +0.022 C 
ENDBRANCH  28  30
ENDBRANCH  25  26
ENDBRANCH  24  25
ENDBRANCH   6  24
TORSDOF 10
