REMARK  Name = ZINC36601622
REMARK  16 active torsions:
REMARK  status: ('A' for Active; 'I' for Inactive)
REMARK    1  A    between atoms: C_1  and  C_2
REMARK    2  A    between atoms: C_5  and  C_7
REMARK    3  A    between atoms: C_7  and  N_8
REMARK    4  A    between atoms: N_8  and  C_9
REMARK    5  A    between atoms: C_9  and  C_11
REMARK    6  A    between atoms: C_9  and  C_25
REMARK    7  A    between atoms: N_27  and  C_28
REMARK    8  A    between atoms: C_28  and  C_29
REMARK    9  A    between atoms: C_28  and  C_30
REMARK   10  A    between atoms: C_28  and  C_31
REMARK   11  A    between atoms: C_31  and  C_32
REMARK   12  A    between atoms: C_32  and  C_33
REMARK   13  A    between atoms: C_32  and  C_34
REMARK   14  A    between atoms: C_32  and  C_35
REMARK   15  A    between atoms: C_36  and  C_38
REMARK   16  A    between atoms: C_38  and  C_40
REMARK                            x       y       z     vdW  Elec       q    Type
REMARK                         _______ _______ _______ _____ _____    ______ ____
ROOT
ATOM      1  C   UNL     1       3.490  -2.271  -2.859  0.00  0.00    +0.193 C 
ENDROOT
BRANCH   1   2
ATOM      2  C   UNL     1       3.895  -3.448  -3.709  0.00  0.00    -0.010 A 
ATOM      3  C   UNL     1       3.072  -4.513  -3.796  0.00  0.00    +0.015 A 
ATOM      4  C   UNL     1       3.407  -5.641  -4.580  0.00  0.00    -0.017 A 
ATOM      5  C   UNL     1       2.544  -6.743  -4.665  0.00  0.00    +0.008 A 
ATOM      6  C   UNL     1       2.892  -7.818  -5.429  0.00  0.00    +0.001 A 
ATOM      7  C   UNL     1       4.093  -7.838  -6.128  0.00  0.00    +0.001 A 
ATOM      8  C   UNL     1       4.955  -6.780  -6.066  0.00  0.00    +0.009 A 
ATOM      9  C   UNL     1       4.627  -5.665  -5.293  0.00  0.00    -0.010 A 
ATOM     10  C   UNL     1       5.521  -4.508  -5.198  0.00  0.00    -0.010 A 
ATOM     11  C   UNL     1       5.127  -3.409  -4.402  0.00  0.00    -0.012 A 
ATOM     12  C   UNL     1       5.973  -2.295  -4.309  0.00  0.00    +0.009 A 
ATOM     13  C   UNL     1       7.156  -2.284  -4.989  0.00  0.00    +0.001 A 
ATOM     14  C   UNL     1       7.537  -3.365  -5.775  0.00  0.00    +0.001 A 
ATOM     15  C   UNL     1       6.741  -4.470  -5.876  0.00  0.00    +0.009 A 
ENDBRANCH   1   2
BRANCH   1  16
ATOM     16  C   UNL     1       2.891  -1.201  -3.735  0.00  0.00    +0.239 C 
ATOM     17  O   UNL     1       1.775  -0.783  -3.505  0.00  0.00    -0.273 OA
ATOM     18  N   UNL     1       3.594  -0.709  -4.774  0.00  0.00    -0.308 N 
ATOM     19  H   UNL     1       4.470  -1.069  -4.981  0.00  0.00    +0.149 HD
BRANCH  18  20
ATOM     20  C   UNL     1       3.034   0.371  -5.591  0.00  0.00    +0.030 C 
ATOM     21  C   UNL     1       1.690  -0.073  -6.172  0.00  0.00    +0.031 C 
ATOM     22  C   UNL     1       2.829   1.614  -4.722  0.00  0.00    +0.031 C 
BRANCH  20  23
ATOM     23  C   UNL     1       3.999   0.700  -6.731  0.00  0.00    +0.031 C 
BRANCH  23  24
ATOM     24  C   UNL     1       5.227   1.419  -6.169  0.00  0.00    -0.036 C 
ATOM     25  C   UNL     1       5.673   0.733  -4.876  0.00  0.00    +0.010 C 
ATOM     26  C   UNL     1       6.363   1.366  -7.193  0.00  0.00    +0.010 C 
ATOM     27  C   UNL     1       4.873   2.879  -5.876  0.00  0.00    +0.010 C 
ENDBRANCH  23  24
ENDBRANCH  20  23
ENDBRANCH  18  20
ENDBRANCH   1  16
BRANCH   1  28
ATOM     28  N   UNL     1       2.501  -2.702  -1.868  0.00  0.00    -0.275 N 
ATOM     29  C   UNL     1       1.226  -2.927  -2.243  0.00  0.00    +0.243 C 
ATOM     30  O   UNL     1       0.431  -3.392  -1.447  0.00  0.00    -0.270 OA
BRANCH  29  31
ATOM     31  C   UNL     1       0.795  -2.610  -3.613  0.00  0.00    +0.004 C 
ATOM     32  C   UNL     1      -0.500  -2.498  -3.893  0.00  0.00    +0.017 C 
ATOM     33  C   UNL     1       1.821  -2.412  -4.699  0.00  0.00    +0.048 C 
ENDBRANCH  29  31
BRANCH  28  34
ATOM     34  C   UNL     1       2.897  -2.888  -0.470  0.00  0.00    +0.183 C 
BRANCH  34  39
ATOM     35  C   UNL     1       3.498   1.593   1.766  0.00  0.00    +0.086 C 
ATOM     36  C   UNL     1       2.862   0.316   1.280  0.00  0.00    +0.102 A 
ATOM     37  C   UNL     1       1.587  -0.058   1.494  0.00  0.00    +0.045 A 
ATOM     38  C   UNL     1       1.419  -1.314   0.867  0.00  0.00    +0.046 A 
ATOM     39  C   UNL     1       2.600  -1.632   0.308  0.00  0.00    +0.122 A 
ATOM     40  O   UNL     1       3.469  -0.639   0.557  0.00  0.00    -0.463 OA
ENDBRANCH  34  39
ENDBRANCH  28  34
ENDBRANCH   1  28
TORSDOF 9
