REMARK  Name = ZINC19656515
REMARK  6 active torsions:
REMARK  status: ('A' for Active; 'I' for Inactive)
REMARK    1  A    between atoms: C_1  and  C_2
REMARK    2  A    between atoms: C_2  and  C_3
REMARK    3  A    between atoms: C_2  and  C_4
REMARK    4  A    between atoms: C_2  and  N_22
REMARK    5  A    between atoms: C_4  and  N_5
REMARK    6  A    between atoms: C_6  and  C_8
REMARK                            x       y       z     vdW  Elec       q    Type
REMARK                         _______ _______ _______ _____ _____    ______ ____
ROOT
ATOM      1  N   UNL     1      -0.820   2.098   0.895  0.00  0.00    -0.311 N 
ATOM      2  C   UNL     1      -1.081   3.421   0.884  0.00  0.00    +0.265 C 
ATOM      3  O   UNL     1      -0.670   4.114  -0.026  0.00  0.00    -0.268 OA
ATOM      4  H   UNL     1      -1.192   1.471   1.719  0.00  0.00    +0.149 HD
ENDROOT
BRANCH   2   5
ATOM      5  C   UNL     1      -1.868   4.027   1.978  0.00  0.00    +0.154 A 
ATOM      6  C   UNL     1      -2.210   5.371   2.104  0.00  0.00    +0.047 A 
ATOM      7  C   UNL     1      -2.947   5.460   3.270  0.00  0.00    +0.076 A 
ATOM      8  N   UNL     1      -3.008   4.224   3.792  0.00  0.00    -0.276 N 
ATOM      9  H   UNL     1      -3.545   4.051   4.736  0.00  0.00    +0.189 HD
ATOM     10  N   UNL     1      -2.376   3.396   3.027  0.00  0.00    -0.168 NA
ATOM     11  C   UNL     1      -3.476   6.773   3.683  0.00  0.00    +0.042 A 
ATOM     12  C   UNL     1      -3.994   7.013   4.945  0.00  0.00    +0.013 A 
ATOM     13  C   UNL     1      -4.457   8.276   5.264  0.00  0.00    +0.001 A 
ATOM     14  C   UNL     1      -4.400   9.291   4.325  0.00  0.00    +0.004 A 
ATOM     15  C   UNL     1      -3.891   9.058   3.062  0.00  0.00    +0.046 A 
ATOM     16  C   UNL     1      -3.430   7.797   2.719  0.00  0.00    +0.130 A 
ATOM     17  O   UNL     1      -2.970   7.548   1.469  0.00  0.00    -0.487 OA
ATOM     18  C   UNL     1      -1.939   6.579   1.254  0.00  0.00    +0.269 C 
ENDBRANCH   2   5
BRANCH   1  19
ATOM     19  C   UNL     1      -0.040   1.497  -0.189  0.00  0.00    +0.092 C 
BRANCH  19  21
ATOM     20  C   UNL     1       0.885  -0.645  -1.083  0.00  0.00    -0.008 C 
ATOM     21  C   UNL     1       0.189   0.014   0.110  0.00  0.00    -0.055 C 
ATOM     22  C   UNL     1       1.068  -0.126   1.354  0.00  0.00    -0.008 C 
BRANCH  21  23
ATOM     23  N   UNL     1      -1.103  -0.643   0.347  0.00  0.00    +0.384 N 
ATOM     24  C   UNL     1      -0.920  -2.065   0.665  0.00  0.00    -0.078 C 
ATOM     25  C   UNL     1      -2.268  -2.681   1.048  0.00  0.00    -0.019 C 
ATOM     26  C   UNL     1      -3.245  -2.523  -0.120  0.00  0.00    -0.004 C 
ATOM     27  C   UNL     1      -3.381  -1.037  -0.464  0.00  0.00    -0.019 C 
ATOM     28  C   UNL     1      -2.001  -0.468  -0.802  0.00  0.00    -0.078 C 
ATOM     29  H   UNL     1      -1.574  -0.163   1.217  0.00  0.00    -0.081 HD
ENDBRANCH  21  23
ENDBRANCH  19  21
ENDBRANCH   1  19
TORSDOF 4
