REMARK  Name = ZINC44875991
REMARK  12 active torsions:
REMARK  status: ('A' for Active; 'I' for Inactive)
REMARK    1  A    between atoms: C_1  and  C_2
REMARK    2  A    between atoms: C_6  and  N_9
REMARK    3  A    between atoms: C_7  and  C_8
REMARK    4  A    between atoms: N_9  and  C_10
REMARK    5  A    between atoms: N_9  and  S_29
REMARK    6  A    between atoms: C_10  and  C_11
REMARK    7  A    between atoms: N_13  and  C_14
REMARK    8  A    between atoms: C_14  and  C_15
REMARK    9  A    between atoms: C_18  and  C_21
REMARK   10  A    between atoms: C_21  and  N_22
REMARK   11  A    between atoms: C_25  and  C_28
REMARK   12  A    between atoms: S_29  and  C_32
REMARK                            x       y       z     vdW  Elec       q    Type
REMARK                         _______ _______ _______ _____ _____    ______ ____
ROOT
ATOM      1  C   UNL     1       0.784  -2.505   5.330  0.00  0.00    +0.232 C 
ATOM      2  O   UNL     1       0.274  -1.406   5.359  0.00  0.00    -0.274 OA
ATOM      3  N   UNL     1       1.787  -2.805   6.179  0.00  0.00    -0.310 N 
ATOM      4  H   UNL     1       2.196  -3.685   6.156  0.00  0.00    +0.149 HD
ENDROOT
BRANCH   1   5
ATOM      5  C   UNL     1       0.297  -3.537   4.345  0.00  0.00    +0.227 C 
BRANCH   5   6
ATOM      6  N   UNL     1      -0.685  -2.927   3.445  0.00  0.00    -0.194 N 
BRANCH   6  12
ATOM      7  C   UNL     1       0.424  -2.862  -1.342  0.00  0.00    +0.044 C 
ATOM      8  C   UNL     1       0.291  -2.162  -0.014  0.00  0.00    -0.046 A 
ATOM      9  C   UNL     1       0.594  -0.817   0.091  0.00  0.00    +0.004 A 
ATOM     10  C   UNL     1       0.473  -0.171   1.308  0.00  0.00    +0.002 A 
ATOM     11  C   UNL     1       0.050  -0.868   2.422  0.00  0.00    +0.025 A 
ATOM     12  C   UNL     1      -0.256  -2.219   2.320  0.00  0.00    +0.055 A 
ATOM     13  C   UNL     1      -0.139  -2.864   1.095  0.00  0.00    -0.025 A 
ATOM     14  C   UNL     1      -0.475  -4.328   0.978  0.00  0.00    +0.046 C 
ENDBRANCH   6  12
BRANCH   6  15
ATOM     15  S   UNL     1      -2.303  -3.076   3.762  0.00  0.00    +0.075 S 
ATOM     16  O   UNL     1      -2.420  -3.389   5.143  0.00  0.00    -0.150 OA
ATOM     17  O   UNL     1      -2.937  -1.945   3.181  0.00  0.00    -0.150 OA
BRANCH  15  18
ATOM     18  C   UNL     1      -2.879  -4.487   2.876  0.00  0.00    +0.109 A 
ATOM     19  C   UNL     1      -3.484  -4.329   1.643  0.00  0.00    +0.029 A 
ATOM     20  C   UNL     1      -3.936  -5.435   0.948  0.00  0.00    +0.002 A 
ATOM     21  C   UNL     1      -3.782  -6.699   1.486  0.00  0.00    +0.000 A 
ATOM     22  C   UNL     1      -3.177  -6.857   2.719  0.00  0.00    +0.002 A 
ATOM     23  C   UNL     1      -2.721  -5.751   3.411  0.00  0.00    +0.029 A 
ENDBRANCH  15  18
ENDBRANCH   6  15
ENDBRANCH   5   6
ENDBRANCH   1   5
BRANCH   3  24
ATOM     24  C   UNL     1       2.261  -1.802   7.136  0.00  0.00    +0.139 C 
BRANCH  24  25
ATOM     25  C   UNL     1       3.379  -2.385   7.962  0.00  0.00    -0.030 A 
ATOM     26  C   UNL     1       3.095  -3.048   9.141  0.00  0.00    +0.005 A 
ATOM     27  C   UNL     1       4.121  -3.582   9.898  0.00  0.00    +0.002 A 
ATOM     28  C   UNL     1       5.431  -3.454   9.476  0.00  0.00    -0.064 A 
ATOM     29  C   UNL     1       5.715  -2.792   8.296  0.00  0.00    +0.002 A 
ATOM     30  C   UNL     1       4.689  -2.261   7.537  0.00  0.00    +0.005 A 
BRANCH  28  31
ATOM     31  C   UNL     1       6.549  -4.036  10.301  0.00  0.00    -0.043 C 
BRANCH  31  32
ATOM     32  N   UNL     1       6.806  -5.418   9.874  0.00  0.00    +0.382 N 
ATOM     33  C   UNL     1       7.293  -5.418   8.490  0.00  0.00    -0.078 C 
ATOM     34  C   UNL     1       7.484  -6.859   8.013  0.00  0.00    -0.016 C 
ATOM     35  C   UNL     1       8.505  -7.559   8.916  0.00  0.00    -0.018 C 
ATOM     36  C   UNL     1       8.022  -7.487  10.367  0.00  0.00    -0.016 C 
ATOM     37  C   UNL     1       7.811  -6.022  10.757  0.00  0.00    -0.078 C 
ATOM     38  C   UNL     1       8.643  -9.023   8.494  0.00  0.00    +0.007 C 
ATOM     39  H   UNL     1       5.949  -5.949   9.928  0.00  0.00    -0.081 HD
ENDBRANCH  31  32
ENDBRANCH  28  31
ENDBRANCH  24  25
ENDBRANCH   3  24
TORSDOF 9
