REMARK  Name = ZINC22928447
REMARK  11 active torsions:
REMARK  status: ('A' for Active; 'I' for Inactive)
REMARK    1  A    between atoms: C_1  and  C_2
REMARK    2  A    between atoms: C_2  and  C_3
REMARK    3  A    between atoms: C_3  and  C_5
REMARK    4  A    between atoms: C_3  and  N_16
REMARK    5  A    between atoms: N_9  and  C_10
REMARK    6  A    between atoms: N_16  and  C_17
REMARK    7  A    between atoms: N_16  and  C_25
REMARK    8  A    between atoms: C_17  and  C_18
REMARK    9  A    between atoms: C_18  and  N_19
REMARK   10  A    between atoms: C_25  and  C_26
REMARK   11  A    between atoms: C_32  and  C_38
REMARK                            x       y       z     vdW  Elec       q    Type
REMARK                         _______ _______ _______ _____ _____    ______ ____
ROOT
ATOM      1  N   UNL     1       2.982  -0.849  -1.376  0.00  0.00    +0.390 N 
ATOM      2  H   UNL     1       3.472  -1.407  -0.693  0.00  0.00    -0.080 HD
ENDROOT
BRANCH   1   3
ATOM      3  C   UNL     1       1.537  -0.923  -1.125  0.00  0.00    +0.003 C 
BRANCH   3   4
ATOM      4  C   UNL     1       0.808  -0.061  -2.123  0.00  0.00    +0.138 A 
ATOM      5  N   UNL     1       1.223   0.268  -3.322  0.00  0.00    -0.115 NA
ATOM      6  N   UNL     1       0.322   1.012  -3.865  0.00  0.00    -0.023 NA
ATOM      7  N   UNL     1      -0.657   1.166  -3.043  0.00  0.00    -0.044 NA
ATOM      8  N   UNL     1      -0.397   0.514  -1.960  0.00  0.00    -0.228 N 
BRANCH   8   9
ATOM      9  C   UNL     1      -1.251   0.422  -0.773  0.00  0.00    +0.111 C 
ATOM     10  C   UNL     1      -2.475  -0.440  -1.091  0.00  0.00    +0.027 C 
ATOM     11  C   UNL     1      -3.367  -0.536   0.148  0.00  0.00    +0.002 C 
ATOM     12  C   UNL     1      -3.824   0.866   0.558  0.00  0.00    +0.000 C 
ATOM     13  C   UNL     1      -2.600   1.728   0.876  0.00  0.00    +0.002 C 
ATOM     14  C   UNL     1      -1.708   1.824  -0.363  0.00  0.00    +0.027 C 
ENDBRANCH   8   9
ENDBRANCH   3   4
BRANCH   3  16
ATOM     15  C   UNL     1       1.785  -3.242  -0.229  0.00  0.00    +0.002 C 
ATOM     16  C   UNL     1       1.069  -2.373  -1.264  0.00  0.00    -0.011 C 
ENDBRANCH   3  16
ENDBRANCH   1   3
BRANCH   1  17
ATOM     17  C   UNL     1       3.272  -1.359  -2.723  0.00  0.00    -0.062 C 
BRANCH  17  18
ATOM     18  C   UNL     1       4.786  -1.406  -2.937  0.00  0.00    +0.066 C 
BRANCH  18  19
ATOM     19  N   UNL     1       5.074  -1.816  -4.318  0.00  0.00    -0.300 NA
ATOM     20  C   UNL     1       4.650  -3.204  -4.554  0.00  0.00    +0.112 C 
ATOM     21  C   UNL     1       4.913  -3.570  -6.018  0.00  0.00    +0.175 C 
ATOM     22  O   UNL     1       6.298  -3.368  -6.313  0.00  0.00    -0.377 OA
ATOM     23  C   UNL     1       6.743  -2.027  -6.095  0.00  0.00    +0.175 C 
ATOM     24  C   UNL     1       6.499  -1.646  -4.632  0.00  0.00    +0.112 C 
ENDBRANCH  18  19
ENDBRANCH  17  18
ENDBRANCH   1  17
BRANCH   1  25
ATOM     25  C   UNL     1       3.426   0.548  -1.276  0.00  0.00    -0.036 C 
BRANCH  25  26
ATOM     26  C   UNL     1       3.301   1.013   0.151  0.00  0.00    +0.001 A 
ATOM     27  C   UNL     1       4.358   0.901   0.994  0.00  0.00    +0.017 A 
ATOM     28  C   UNL     1       4.204   1.363   2.374  0.00  0.00    -0.001 A 
ATOM     29  C   UNL     1       5.258   1.274   3.289  0.00  0.00    +0.010 A 
ATOM     30  C   UNL     1       5.082   1.714   4.570  0.00  0.00    +0.001 A 
ATOM     31  C   UNL     1       3.866   2.250   4.973  0.00  0.00    +0.005 A 
ATOM     32  C   UNL     1       2.813   2.347   4.088  0.00  0.00    -0.026 A 
ATOM     33  C   UNL     1       2.969   1.906   2.778  0.00  0.00    +0.052 A 
ATOM     34  N   UNL     1       1.933   1.992   1.873  0.00  0.00    -0.322 N 
ATOM     35  H   UNL     1       1.084   2.367   2.153  0.00  0.00    +0.169 HD
ATOM     36  C   UNL     1       2.086   1.570   0.605  0.00  0.00    +0.251 A 
ATOM     37  O   UNL     1       1.150   1.667  -0.170  0.00  0.00    -0.268 OA
ATOM     38  C   UNL     1       1.499   2.930   4.539  0.00  0.00    +0.046 C 
ENDBRANCH  25  26
ENDBRANCH   1  25
TORSDOF 9
