REMARK  Name = ZINC08566681
REMARK  8 active torsions:
REMARK  status: ('A' for Active; 'I' for Inactive)
REMARK    1  A    between atoms: C_1  and  O_2
REMARK    2  A    between atoms: O_2  and  C_3
REMARK    3  A    between atoms: C_6  and  C_11
REMARK    4  A    between atoms: C_7  and  O_9
REMARK    5  A    between atoms: O_9  and  C_10
REMARK    6  A    between atoms: C_14  and  C_25
REMARK    7  A    between atoms: C_20  and  N_24
REMARK    8  A    between atoms: C_21  and  C_22
REMARK                            x       y       z     vdW  Elec       q    Type
REMARK                         _______ _______ _______ _____ _____    ______ ____
ROOT
ATOM      1  C   UNL     1       2.593  -2.541   4.316  0.00  0.00    +0.105 C 
ATOM      2  C   UNL     1       4.033  -2.102   4.373  0.00  0.00    +0.055 A 
ATOM      3  C   UNL     1       5.095  -2.437   3.526  0.00  0.00    +0.107 A 
ATOM      4  N   UNL     1       6.175  -1.813   3.962  0.00  0.00    -0.170 NA
ATOM      5  N   UNL     1       5.824  -1.067   5.098  0.00  0.00    -0.246 N 
ATOM      6  H   UNL     1       6.422  -0.511   5.622  0.00  0.00    +0.192 HD
ATOM      7  C   UNL     1       4.509  -1.258   5.334  0.00  0.00    +0.223 A 
ATOM      8  O   UNL     1       3.724  -0.749   6.316  0.00  0.00    -0.423 OA
ATOM      9  C   UNL     1       2.509  -1.306   6.497  0.00  0.00    +0.200 C 
ATOM     10  C   UNL     1       1.928  -2.148   5.612  0.00  0.00    +0.098 C 
ENDROOT
BRANCH   1  14
ATOM     11  C   UNL     1       0.626  -0.618   1.042  0.00  0.00    +0.124 A 
ATOM     12  C   UNL     1       1.202   0.139   2.051  0.00  0.00    +0.046 A 
ATOM     13  C   UNL     1       1.837  -0.484   3.108  0.00  0.00    +0.012 A 
ATOM     14  C   UNL     1       1.899  -1.864   3.163  0.00  0.00    +0.007 A 
ATOM     15  C   UNL     1       1.324  -2.626   2.156  0.00  0.00    +0.128 A 
ATOM     16  C   UNL     1       0.682  -2.002   1.097  0.00  0.00    +0.091 A 
BRANCH  11  18
ATOM     17  C   UNL     1      -0.017   1.425   0.010  0.00  0.00    +0.277 C 
ATOM     18  O   UNL     1       0.002  -0.004   0.002  0.00  0.00    -0.495 OA
ENDBRANCH  11  18
BRANCH  15  19
ATOM     19  O   UNL     1       1.386  -3.982   2.210  0.00  0.00    -0.495 OA
ATOM     20  C   UNL     1       0.773  -4.703   1.139  0.00  0.00    +0.277 C 
ENDBRANCH  15  19
ENDBRANCH   1  14
BRANCH   3  21
ATOM     21  C   UNL     1       5.022  -3.331   2.350  0.00  0.00    +0.040 A 
ATOM     22  C   UNL     1       5.699  -3.253   1.163  0.00  0.00    +0.018 A 
ATOM     23  C   UNL     1       5.465  -4.212   0.202  0.00  0.00    +0.008 A 
ATOM     24  C   UNL     1       4.573  -5.202   0.459  0.00  0.00    +0.046 A 
ATOM     25  S   UNL     1       4.032  -4.798   2.112  0.00  0.00    -0.095 S 
ENDBRANCH   3  21
BRANCH   9  26
ATOM     26  N   UNL     1       1.824  -1.003   7.647  0.00  0.00    -0.328 N 
ATOM     27  H   UNL     1       2.215  -0.404   8.301  0.00  0.00    +0.145 HD
ATOM     28  H   UNL     1       0.948  -1.389   7.805  0.00  0.00    +0.145 HD
ENDBRANCH   9  26
BRANCH  10  29
ATOM     29  C   UNL     1       0.634  -2.683   5.914  0.00  0.00    +0.101 C 
ATOM     30  N   UNL     1      -0.392  -3.107   6.154  0.00  0.00    -0.191 NA
ENDBRANCH  10  29
TORSDOF 6
