REMARK  Name = ZINC65468143
REMARK  9 active torsions:
REMARK  status: ('A' for Active; 'I' for Inactive)
REMARK    1  A    between atoms: C_1  and  C_2
REMARK    2  A    between atoms: C_4  and  C_21
REMARK    3  A    between atoms: N_8  and  C_9
REMARK    4  A    between atoms: N_8  and  C_10
REMARK    5  A    between atoms: C_10  and  C_11
REMARK    6  A    between atoms: C_12  and  C_20
REMARK    7  A    between atoms: C_13  and  O_18
REMARK    8  A    between atoms: C_14  and  C_17
REMARK    9  A    between atoms: O_18  and  C_19
REMARK                            x       y       z     vdW  Elec       q    Type
REMARK                         _______ _______ _______ _____ _____    ______ ____
ROOT
ATOM      1  C   UNL     1       0.240  -1.633   3.736  0.00  0.00    +0.163 C 
ENDROOT
BRANCH   1   9
ATOM      2  C   UNL     1      -0.523   0.366  -0.755  0.00  0.00    +0.066 C 
ATOM      3  C   UNL     1      -0.154  -1.018  -0.287  0.00  0.00    +0.044 A 
ATOM      4  C   UNL     1       0.085  -2.029  -1.205  0.00  0.00    +0.046 A 
ATOM      5  C   UNL     1       0.422  -3.287  -0.732  0.00  0.00    +0.044 A 
ATOM      6  N   UNL     1       0.505  -3.485   0.573  0.00  0.00    -0.220 NA
ATOM      7  C   UNL     1       0.270  -2.498   1.424  0.00  0.00    +0.218 A 
ATOM      8  N   UNL     1      -0.050  -1.282   1.005  0.00  0.00    -0.220 NA
ATOM      9  N   UNL     1       0.365  -2.740   2.784  0.00  0.00    -0.297 N 
ATOM     10  C   UNL     1       0.590  -4.103   3.271  0.00  0.00    +0.132 C 
ATOM     11  C   UNL     1       0.690  -4.417  -1.693  0.00  0.00    +0.066 C 
ENDBRANCH   1   9
BRANCH   1  12
ATOM     12  C   UNL     1      -1.182  -1.551   4.227  0.00  0.00    +0.065 A 
ATOM     13  C   UNL     1      -1.512  -2.091   5.453  0.00  0.00    +0.014 A 
ATOM     14  C   UNL     1      -2.829  -2.009   5.897  0.00  0.00    +0.129 A 
ATOM     15  C   UNL     1      -3.764  -1.381   5.079  0.00  0.00    +0.010 A 
ATOM     16  C   UNL     1      -3.355  -0.865   3.866  0.00  0.00    +0.118 A 
ATOM     17  N   UNL     1      -2.095  -0.958   3.482  0.00  0.00    -0.258 NA
ATOM     18  C   UNL     1      -5.203  -1.265   5.511  0.00  0.00    +0.049 C 
ATOM     19  C   UNL     1      -0.460  -2.762   6.300  0.00  0.00    +0.049 C 
BRANCH  14  20
ATOM     20  O   UNL     1      -3.192  -2.530   7.097  0.00  0.00    -0.494 OA
ATOM     21  C   UNL     1      -3.108  -1.665   8.232  0.00  0.00    +0.277 C 
ENDBRANCH  14  20
ENDBRANCH   1  12
TORSDOF 3
