REMARK  Name = ZINC09391455
REMARK  11 active torsions:
REMARK  status: ('A' for Active; 'I' for Inactive)
REMARK    1  A    between atoms: C_1  and  C_2
REMARK    2  A    between atoms: C_2  and  N_66
REMARK    3  A    between atoms: C_8  and  N_14
REMARK    4  A    between atoms: C_9  and  C_10
REMARK    5  A    between atoms: C_10  and  O_12
REMARK    6  A    between atoms: O_12  and  C_13
REMARK    7  A    between atoms: C_15  and  C_17
REMARK    8  A    between atoms: C_20  and  S_23
REMARK    9  A    between atoms: S_23  and  N_26
REMARK   10  A    between atoms: C_28  and  C_35
REMARK   11  A    between atoms: C_31  and  C_34
REMARK                            x       y       z     vdW  Elec       q    Type
REMARK                         _______ _______ _______ _____ _____    ______ ____
ROOT
ATOM      1  N   UNL     1       3.007  -2.428  -6.203  0.00  0.00    -0.275 N 
ATOM      2  C   UNL     1       1.806  -1.833  -6.339  0.00  0.00    +0.249 C 
ATOM      3  O   UNL     1       1.074  -2.143  -7.259  0.00  0.00    -0.270 OA
ATOM      4  H   UNL     1       3.591  -2.180  -5.469  0.00  0.00    +0.156 HD
ENDROOT
BRANCH   1  10
ATOM      5  C   UNL     1       5.635  -7.107  -9.329  0.00  0.00    -0.074 C 
ATOM      6  C   UNL     1       6.005  -5.952  -8.394  0.00  0.00    +0.018 C 
ATOM      7  C   UNL     1       4.771  -5.076  -8.210  0.00  0.00    -0.025 A 
ATOM      8  C   UNL     1       3.739  -5.167  -9.078  0.00  0.00    -0.021 A 
ATOM      9  S   UNL     1       2.546  -4.003  -8.486  0.00  0.00    -0.079 S 
ATOM     10  C   UNL     1       3.408  -3.393  -7.112  0.00  0.00    +0.086 A 
ATOM     11  C   UNL     1       4.598  -4.112  -7.138  0.00  0.00    +0.091 A 
ATOM     12  C   UNL     1       3.655  -6.072 -10.267  0.00  0.00    -0.035 C 
ATOM     13  N   UNL     1       5.024  -6.564 -10.560  0.00  0.00    +0.383 N 
ATOM     14  H   UNL     1       5.595  -5.782 -10.900  0.00  0.00    -0.081 HD
BRANCH  13  16
ATOM     15  C   UNL     1       4.101  -7.123 -12.762  0.00  0.00    -0.017 C 
ATOM     16  C   UNL     1       4.973  -7.611 -11.603  0.00  0.00    -0.082 C 
ENDBRANCH  13  16
BRANCH  11  17
ATOM     17  C   UNL     1       5.634  -3.906  -6.125  0.00  0.00    +0.342 C 
ATOM     18  O   UNL     1       5.627  -4.567  -5.104  0.00  0.00    -0.245 OA
BRANCH  17  19
ATOM     19  O   UNL     1       6.598  -2.984  -6.324  0.00  0.00    -0.464 OA
ATOM     20  C   UNL     1       7.593  -2.833  -5.278  0.00  0.00    +0.280 C 
ENDBRANCH  17  19
ENDBRANCH  11  17
ENDBRANCH   1  10
BRANCH   2  21
ATOM     21  C   UNL     1       1.378  -0.802  -5.370  0.00  0.00    +0.037 A 
ATOM     22  C   UNL     1       0.134  -0.184  -5.508  0.00  0.00    +0.015 A 
ATOM     23  C   UNL     1      -0.260   0.777  -4.600  0.00  0.00    +0.029 A 
ATOM     24  C   UNL     1       0.576   1.129  -3.554  0.00  0.00    +0.106 A 
ATOM     25  C   UNL     1       1.812   0.523  -3.414  0.00  0.00    +0.029 A 
ATOM     26  C   UNL     1       2.215  -0.444  -4.312  0.00  0.00    +0.015 A 
BRANCH  24  27
ATOM     27  S   UNL     1       0.066   2.357  -2.399  0.00  0.00    +0.061 S 
ATOM     28  O   UNL     1      -0.896   3.165  -3.063  0.00  0.00    -0.153 OA
ATOM     29  O   UNL     1       1.251   2.897  -1.830  0.00  0.00    -0.153 OA
BRANCH  27  30
ATOM     30  N   UNL     1      -0.734   1.578  -1.176  0.00  0.00    -0.172 NA
ATOM     31  C   UNL     1      -0.013   1.086   0.008  0.00  0.00    +0.140 C 
ATOM     32  C   UNL     1      -0.741   1.585   1.261  0.00  0.00    +0.131 C 
ATOM     33  O   UNL     1      -2.125   1.238   1.170  0.00  0.00    -0.371 OA
ATOM     34  C   UNL     1      -2.811   1.844   0.072  0.00  0.00    +0.131 C 
ATOM     35  C   UNL     1      -2.188   1.357  -1.242  0.00  0.00    +0.140 C 
ATOM     36  C   UNL     1      -4.289   1.452   0.112  0.00  0.00    +0.039 C 
ATOM     37  C   UNL     1      -0.129   0.932   2.502  0.00  0.00    +0.039 C 
ENDBRANCH  27  30
ENDBRANCH  24  27
ENDBRANCH   2  21
TORSDOF 7
