REMARK  Name = ZINC08862427
REMARK  8 active torsions:
REMARK  status: ('A' for Active; 'I' for Inactive)
REMARK    1  A    between atoms: C_1  and  C_2
REMARK    2  A    between atoms: C_2  and  C_3
REMARK    3  A    between atoms: C_10  and  C_12
REMARK    4  A    between atoms: C_12  and  O_14
REMARK    5  A    between atoms: O_14  and  C_15
REMARK    6  A    between atoms: C_15  and  C_16
REMARK    7  A    between atoms: C_21  and  C_34
REMARK    8  A    between atoms: N_23  and  C_26
REMARK                            x       y       z     vdW  Elec       q    Type
REMARK                         _______ _______ _______ _____ _____    ______ ____
ROOT
ATOM      1  C   UNL     1      -0.016   1.357   0.009  0.00  0.00    +0.059 A 
ATOM      2  C   UNL     1       0.002  -0.004   0.002  0.00  0.00    +0.076 A 
ATOM      3  C   UNL     1       1.241  -0.678  -0.013  0.00  0.00    +0.193 A 
ATOM      4  O   UNL     1       1.304  -1.899  -0.021  0.00  0.00    -0.287 OA
ATOM      5  C   UNL     1       2.452   0.152  -0.021  0.00  0.00    +0.086 A 
ATOM      6  C   UNL     1       3.809  -0.122  -0.035  0.00  0.00    +0.073 A 
ATOM      7  N   UNL     1       4.480   1.041  -0.035  0.00  0.00    -0.174 NA
ATOM      8  N   UNL     1       3.563   2.100  -0.021  0.00  0.00    -0.243 N 
ATOM      9  C   UNL     1       2.296   1.563  -0.012  0.00  0.00    +0.141 A 
ATOM     10  N   UNL     1       1.086   2.090   0.003  0.00  0.00    -0.340 N 
ATOM     11  C   UNL     1       4.429  -1.496  -0.048  0.00  0.00    +0.068 C 
ATOM     12  H   UNL     1       1.017   3.187   0.010  0.00  0.00    +0.167 HD
ENDROOT
BRANCH   8  13
ATOM     13  C   UNL     1       3.895   3.527  -0.017  0.00  0.00    +0.132 C 
ATOM     14  C   UNL     1       4.735   3.868  -1.259  0.00  0.00    +0.051 C 
ATOM     15  C   UNL     1       5.355   5.278  -1.106  0.00  0.00    +0.168 C 
ATOM     16  S   UNL     1       5.509   5.455   0.718  0.00  0.00    -0.029 S 
ATOM     17  O   UNL     1       4.689   6.533   1.149  0.00  0.00    -0.174 OA
ATOM     18  O   UNL     1       6.886   5.440   1.070  0.00  0.00    -0.174 OA
ATOM     19  C   UNL     1       4.738   3.867   1.245  0.00  0.00    +0.192 C 
ENDBRANCH   8  13
BRANCH   1  20
ATOM     20  C   UNL     1      -1.349   2.060   0.019  0.00  0.00    +0.285 C 
BRANCH  20  21
ATOM     21  O   UNL     1      -2.416   1.075   0.019  0.00  0.00    -0.455 OA
BRANCH  21  22
ATOM     22  C   UNL     1      -3.681   1.542   0.028  0.00  0.00    +0.346 C 
ATOM     23  O   UNL     1      -3.887   2.741   0.035  0.00  0.00    -0.244 OA
BRANCH  22  30
ATOM     24  C   UNL     1      -9.204  -1.329   0.500  0.00  0.00    -0.007 C 
ATOM     25  C   UNL     1      -8.684  -2.492  -0.349  0.00  0.00    +0.009 C 
ATOM     26  C   UNL     1      -7.217  -2.755   0.019  0.00  0.00    +0.043 C 
ATOM     27  C   UNL     1      -6.490  -1.445   0.024  0.00  0.00    -0.006 A 
ATOM     28  C   UNL     1      -7.043  -0.196   0.034  0.00  0.00    -0.036 A 
ATOM     29  C   UNL     1      -6.165   0.875   0.036  0.00  0.00    +0.026 A 
ATOM     30  C   UNL     1      -4.807   0.607   0.028  0.00  0.00    +0.097 A 
ATOM     31  S   UNL     1      -4.788  -1.178   0.010  0.00  0.00    -0.086 S 
ATOM     32  C   UNL     1      -8.559  -0.020   0.043  0.00  0.00    +0.039 C 
BRANCH  24  34
ATOM     33  C   UNL     1     -11.259  -0.148   1.290  0.00  0.00    +0.004 C 
ATOM     34  C   UNL     1     -10.723  -1.227   0.347  0.00  0.00    +0.000 C 
ENDBRANCH  24  34
ENDBRANCH  22  30
ENDBRANCH  21  22
ENDBRANCH  20  21
ENDBRANCH   1  20
TORSDOF 6
