REMARK  Name = ZINC06743735
REMARK  4 active torsions:
REMARK  status: ('A' for Active; 'I' for Inactive)
REMARK    1  A    between atoms: C_1  and  C_2
REMARK    2  A    between atoms: C_2  and  C_3
REMARK    3  A    between atoms: C_10  and  C_20
REMARK    4  A    between atoms: C_12  and  C_14
REMARK                            x       y       z     vdW  Elec       q    Type
REMARK                         _______ _______ _______ _____ _____    ______ ____
ROOT
ATOM      1  C   UNL     1      -0.718   1.572   1.248  0.00  0.00    -0.045 A 
ATOM      2  C   UNL     1      -1.718   0.806   1.815  0.00  0.00    +0.005 A 
ATOM      3  C   UNL     1      -2.361   1.238   2.966  0.00  0.00    +0.026 A 
ATOM      4  C   UNL     1      -2.010   2.443   3.542  0.00  0.00    +0.058 A 
ATOM      5  C   UNL     1      -1.016   3.237   2.958  0.00  0.00    +0.088 A 
ATOM      6  C   UNL     1      -0.357   2.780   1.816  0.00  0.00    +0.033 A 
ATOM      7  N   UNL     1      -0.706   4.458   3.479  0.00  0.00    -0.226 NA
ATOM      8  C   UNL     1      -0.637   4.760   4.734  0.00  0.00    +0.162 C 
ATOM      9  N   UNL     1      -0.845   3.949   5.783  0.00  0.00    -0.212 NA
ATOM     10  C   UNL     1      -1.818   3.072   5.838  0.00  0.00    +0.133 C 
ATOM     11  N   UNL     1      -2.626   2.858   4.741  0.00  0.00    -0.297 N 
ATOM     12  H   UNL     1      -3.586   2.988   4.792  0.00  0.00    +0.154 HD
ENDROOT
BRANCH  10  13
ATOM     13  C   UNL     1      -2.050   2.309   7.082  0.00  0.00    +0.018 A 
ATOM     14  C   UNL     1      -3.086   1.371   7.168  0.00  0.00    +0.031 A 
ATOM     15  C   UNL     1      -3.263   0.677   8.348  0.00  0.00    +0.111 A 
ATOM     16  N   UNL     1      -2.481   0.895   9.387  0.00  0.00    -0.263 NA
ATOM     17  C   UNL     1      -1.497   1.773   9.350  0.00  0.00    +0.111 A 
ATOM     18  C   UNL     1      -1.244   2.508   8.209  0.00  0.00    +0.031 A 
ENDBRANCH  10  13
BRANCH   8  19
ATOM     19  C   UNL     1      -0.287   6.164   5.051  0.00  0.00    +0.022 A 
ATOM     20  C   UNL     1      -0.044   7.092   4.033  0.00  0.00    +0.031 A 
ATOM     21  C   UNL     1       0.274   8.391   4.374  0.00  0.00    +0.111 A 
ATOM     22  N   UNL     1       0.360   8.758   5.638  0.00  0.00    -0.263 NA
ATOM     23  C   UNL     1       0.143   7.915   6.628  0.00  0.00    +0.111 A 
ATOM     24  C   UNL     1      -0.185   6.597   6.378  0.00  0.00    +0.031 A 
ENDBRANCH   8  19
BRANCH   1  26
ATOM     25  C   UNL     1      -0.753   1.593  -1.232  0.00  0.00    +0.009 C 
ATOM     26  C   UNL     1      -0.013   1.086   0.008  0.00  0.00    +0.032 C 
ENDBRANCH   1  26
TORSDOF 3
