REMARK  Name = ZINC01374865
REMARK  12 active torsions:
REMARK  status: ('A' for Active; 'I' for Inactive)
REMARK    1  A    between atoms: C_1  and  C_2
REMARK    2  A    between atoms: C_2  and  C_3
REMARK    3  A    between atoms: C_3  and  C_5
REMARK    4  A    between atoms: C_3  and  N_16
REMARK    5  A    between atoms: N_9  and  C_10
REMARK    6  A    between atoms: C_10  and  C_11
REMARK    7  A    between atoms: N_16  and  C_17
REMARK    8  A    between atoms: N_16  and  C_26
REMARK    9  A    between atoms: C_17  and  C_18
REMARK   10  A    between atoms: C_21  and  O_24
REMARK   11  A    between atoms: O_24  and  C_25
REMARK   12  A    between atoms: C_26  and  C_27
REMARK                            x       y       z     vdW  Elec       q    Type
REMARK                         _______ _______ _______ _____ _____    ______ ____
ROOT
ATOM      1  N   UNL     1      -1.745   0.614  -0.979  0.00  0.00    -0.284 NA
ENDROOT
BRANCH   1   2
ATOM      2  C   UNL     1      -1.147  -0.545  -0.303  0.00  0.00    +0.127 C 
BRANCH   2   3
ATOM      3  C   UNL     1      -1.552  -1.808  -1.018  0.00  0.00    +0.169 A 
ATOM      4  N   UNL     1      -1.236  -2.149  -2.244  0.00  0.00    -0.112 NA
ATOM      5  N   UNL     1      -1.770  -3.296  -2.487  0.00  0.00    -0.023 NA
ATOM      6  N   UNL     1      -2.417  -3.696  -1.449  0.00  0.00    -0.043 NA
ATOM      7  N   UNL     1      -2.301  -2.809  -0.519  0.00  0.00    -0.220 N 
BRANCH   7   8
ATOM      8  C   UNL     1      -2.881  -2.876   0.824  0.00  0.00    +0.221 C 
BRANCH   8   9
ATOM      9  C   UNL     1      -4.291  -2.344   0.790  0.00  0.00    +0.126 A 
ATOM     10  C   UNL     1      -5.407  -3.083   0.656  0.00  0.00    +0.046 A 
ATOM     11  C   UNL     1      -6.498  -2.184   0.675  0.00  0.00    +0.041 A 
ATOM     12  C   UNL     1      -5.983  -0.950   0.819  0.00  0.00    +0.195 A 
ATOM     13  O   UNL     1      -4.646  -1.053   0.894  0.00  0.00    -0.466 OA
ENDBRANCH   8   9
ENDBRANCH   7   8
ENDBRANCH   2   3
BRANCH   2  15
ATOM     14  C   UNL     1       0.795   0.793   0.521  0.00  0.00    +0.006 C 
ATOM     15  C   UNL     1       0.377  -0.414  -0.320  0.00  0.00    +0.023 C 
ENDBRANCH   2  15
ENDBRANCH   1   2
BRANCH   1  16
ATOM     16  C   UNL     1      -3.059   0.938  -0.407  0.00  0.00    +0.120 C 
BRANCH  16  17
ATOM     17  C   UNL     1      -2.872   1.618   0.925  0.00  0.00    -0.033 A 
ATOM     18  C   UNL     1      -2.837   0.867   2.085  0.00  0.00    +0.008 A 
ATOM     19  C   UNL     1      -2.666   1.488   3.307  0.00  0.00    +0.046 A 
ATOM     20  C   UNL     1      -2.530   2.867   3.370  0.00  0.00    +0.120 A 
ATOM     21  C   UNL     1      -2.565   3.619   2.204  0.00  0.00    +0.046 A 
ATOM     22  C   UNL     1      -2.730   2.992   0.984  0.00  0.00    +0.008 A 
BRANCH  20  23
ATOM     23  O   UNL     1      -2.362   3.481   4.571  0.00  0.00    -0.495 OA
ATOM     24  C   UNL     1      -2.228   4.903   4.559  0.00  0.00    +0.277 C 
ENDBRANCH  20  23
ENDBRANCH  16  17
ENDBRANCH   1  16
BRANCH   1  25
ATOM     25  C   UNL     1      -1.845   0.385  -2.427  0.00  0.00    +0.126 C 
BRANCH  25  26
ATOM     26  C   UNL     1      -0.508   0.653  -3.071  0.00  0.00    +0.031 A 
ATOM     27  C   UNL     1       0.396  -0.352  -3.196  0.00  0.00    +0.020 A 
ATOM     28  C   UNL     1       1.683  -0.060  -3.825  0.00  0.00    +0.003 A 
ATOM     29  C   UNL     1       2.654  -1.056  -3.979  0.00  0.00    +0.059 A 
ATOM     30  C   UNL     1       3.858  -0.752  -4.578  0.00  0.00    +0.163 A 
ATOM     31  C   UNL     1       4.111   0.546  -5.032  0.00  0.00    +0.164 A 
ATOM     32  C   UNL     1       3.157   1.538  -4.881  0.00  0.00    +0.075 A 
ATOM     33  C   UNL     1       1.940   1.248  -4.280  0.00  0.00    +0.053 A 
ATOM     34  N   UNL     1       0.977   2.225  -4.122  0.00  0.00    -0.322 N 
ATOM     35  H   UNL     1       1.155   3.126  -4.435  0.00  0.00    +0.169 HD
ATOM     36  C   UNL     1      -0.205   1.945  -3.546  0.00  0.00    +0.254 A 
ATOM     37  O   UNL     1      -1.033   2.831  -3.428  0.00  0.00    -0.268 OA
ATOM     38  O   UNL     1       5.293   0.853  -5.631  0.00  0.00    -0.485 OA
ATOM     39  C   UNL     1       6.373  -0.065  -5.432  0.00  0.00    +0.270 C 
ATOM     40  C   UNL     1       5.844  -1.488  -5.660  0.00  0.00    +0.270 C 
ATOM     41  O   UNL     1       4.794  -1.732  -4.718  0.00  0.00    -0.485 OA
ENDBRANCH  25  26
ENDBRANCH   1  25
TORSDOF 10
