REMARK  Name = ZINC15307356
REMARK  3 active torsions:
REMARK  status: ('A' for Active; 'I' for Inactive)
REMARK    1  A    between atoms: C_9  and  C_11
REMARK    2  A    between atoms: N_14  and  C_17
REMARK    3  A    between atoms: N_22  and  C_25
REMARK                            x       y       z     vdW  Elec       q    Type
REMARK                         _______ _______ _______ _____ _____    ______ ____
ROOT
ATOM      1  C   UNL     1       3.337  -3.264   0.652  0.00  0.00    +0.052 C 
ATOM      2  C   UNL     1       2.526  -4.283  -0.152  0.00  0.00    -0.008 C 
ATOM      3  C   UNL     1       3.376  -5.534  -0.387  0.00  0.00    -0.077 C 
ATOM      4  N   UNL     1       3.758  -6.119   0.904  0.00  0.00    +0.388 N 
ATOM      5  C   UNL     1       4.596  -5.174   1.652  0.00  0.00    -0.077 C 
ATOM      6  C   UNL     1       3.792  -3.910   1.964  0.00  0.00    -0.008 C 
ATOM      7  H   UNL     1       2.926  -6.324   1.438  0.00  0.00    -0.081 HD
ENDROOT
BRANCH   1  16
ATOM      8  C   UNL     1      -0.571   1.148   1.903  0.00  0.00    +0.002 A 
ATOM      9  C   UNL     1       0.563   1.938   1.782  0.00  0.00    +0.002 A 
ATOM     10  C   UNL     1       1.774   1.378   1.488  0.00  0.00    +0.030 A 
ATOM     11  C   UNL     1       1.877  -0.004   1.308  0.00  0.00    +0.089 A 
ATOM     12  C   UNL     1       0.729  -0.804   1.431  0.00  0.00    +0.066 A 
ATOM     13  C   UNL     1      -0.494  -0.218   1.729  0.00  0.00    +0.028 A 
ATOM     14  N   UNL     1       1.142  -2.102   1.202  0.00  0.00    -0.342 N 
ATOM     15  H   UNL     1       0.583  -2.894   1.214  0.00  0.00    +0.167 HD
ATOM     16  C   UNL     1       2.479  -2.062   0.954  0.00  0.00    +0.111 A 
ATOM     17  N   UNL     1       2.909  -0.836   1.016  0.00  0.00    -0.232 NA
ENDBRANCH   1  16
BRANCH   4  18
ATOM     18  C   UNL     1       4.508  -7.361   0.674  0.00  0.00    +0.029 C 
ATOM     19  C   UNL     1       4.876  -8.029   2.015  0.00  0.00    +0.090 C 
ATOM     20  C   UNL     1       4.173  -9.367   1.950  0.00  0.00    +0.225 C 
ATOM     21  O   UNL     1       4.200 -10.217   2.814  0.00  0.00    -0.275 OA
ATOM     22  N   UNL     1       3.515  -9.463   0.788  0.00  0.00    -0.212 N 
ATOM     23  C   UNL     1       3.636  -8.391  -0.010  0.00  0.00    +0.213 C 
ATOM     24  O   UNL     1       3.127  -8.265  -1.104  0.00  0.00    -0.277 OA
BRANCH  22  25
ATOM     25  C   UNL     1       2.764 -10.592   0.433  0.00  0.00    +0.044 A 
ATOM     26  C   UNL     1       3.180 -11.403  -0.614  0.00  0.00    +0.025 A 
ATOM     27  C   UNL     1       2.438 -12.515  -0.962  0.00  0.00    +0.017 A 
ATOM     28  C   UNL     1       1.281 -12.820  -0.269  0.00  0.00    +0.018 A 
ATOM     29  C   UNL     1       0.863 -12.014   0.775  0.00  0.00    +0.017 A 
ATOM     30  C   UNL     1       1.605 -10.904   1.131  0.00  0.00    +0.025 A 
ATOM     31 BR   UNL     1       0.267 -14.343  -0.749  0.00  0.00    -0.050 Br
ENDBRANCH  22  25
ENDBRANCH   4  18
TORSDOF 3
