REMARK  Name = ZINC09282248
REMARK  14 active torsions:
REMARK  status: ('A' for Active; 'I' for Inactive)
REMARK    1  A    between atoms: C_1  and  C_2
REMARK    2  A    between atoms: C_2  and  N_65
REMARK    3  A    between atoms: C_3  and  C_4
REMARK    4  A    between atoms: C_3  and  N_65
REMARK    5  A    between atoms: C_5  and  C_6
REMARK    6  A    between atoms: C_5  and  N_65
REMARK    7  A    between atoms: C_6  and  C_7
REMARK    8  A    between atoms: C_7  and  N_8
REMARK    9  A    between atoms: C_9  and  C_28
REMARK   10  A    between atoms: C_11  and  C_16
REMARK   11  A    between atoms: C_12  and  O_15
REMARK   12  A    between atoms: C_16  and  C_18
REMARK   13  A    between atoms: C_19  and  C_27
REMARK   14  A    between atoms: C_31  and  N_34
REMARK                            x       y       z     vdW  Elec       q    Type
REMARK                         _______ _______ _______ _____ _____    ______ ____
ROOT
ATOM      1  N   UNL     1      -2.164  -0.676  -1.708  0.00  0.00    -0.284 N 
ATOM      2  C   UNL     1      -1.867  -1.995  -2.279  0.00  0.00    +0.145 C 
ATOM      3  C   UNL     1      -0.680  -2.528  -1.512  0.00  0.00    +0.073 C 
ATOM      4  C   UNL     1      -0.356  -1.590  -0.593  0.00  0.00    +0.188 C 
ATOM      5  C   UNL     1      -1.279  -0.446  -0.720  0.00  0.00    +0.282 C 
ATOM      6  O   UNL     1      -1.246   0.556  -0.033  0.00  0.00    -0.267 OA
ENDROOT
BRANCH   2   7
ATOM      7  C   UNL     1      -1.519  -1.861  -3.739  0.00  0.00    -0.022 A 
ATOM      8  C   UNL     1      -0.471  -1.048  -4.128  0.00  0.00    +0.008 A 
ATOM      9  C   UNL     1      -0.148  -0.930  -5.467  0.00  0.00    +0.033 A 
ATOM     10  C   UNL     1      -0.881  -1.615  -6.418  0.00  0.00    +0.126 A 
ATOM     11  C   UNL     1      -1.933  -2.423  -6.030  0.00  0.00    +0.033 A 
ATOM     12  C   UNL     1      -2.252  -2.547  -4.690  0.00  0.00    +0.008 A 
BRANCH  10  13
ATOM     13  N   UNL     1      -0.539  -1.484  -7.852  0.00  0.00    +0.056 N 
ATOM     14  O   UNL     1      -1.184  -2.088  -8.690  0.00  0.00    -0.126 OA
ATOM     15  O   UNL     1       0.388  -0.772  -8.194  0.00  0.00    -0.126 OA
ENDBRANCH  10  13
ENDBRANCH   2   7
BRANCH   4  16
ATOM     16  O   UNL     1       0.655  -1.686   0.303  0.00  0.00    -0.502 OA
ATOM     17  H   UNL     1       0.680  -0.860   0.867  0.00  0.00    +0.292 HD
ENDBRANCH   4  16
BRANCH   3  18
ATOM     18  C   UNL     1      -0.010  -3.818  -1.719  0.00  0.00    +0.213 C 
ATOM     19  O   UNL     1       1.091  -3.857  -2.241  0.00  0.00    -0.285 OA
BRANCH  18  20
ATOM     20  C   UNL     1      -0.644  -5.019  -1.312  0.00  0.00    +0.116 A 
ATOM     21  C   UNL     1      -1.816  -5.133  -0.576  0.00  0.00    +0.068 A 
ATOM     22  N   UNL     1      -2.072  -6.418  -0.406  0.00  0.00    -0.232 NA
ATOM     23  C   UNL     1      -1.126  -7.151  -0.994  0.00  0.00    +0.138 A 
ATOM     24  N   UNL     1      -0.220  -6.309  -1.574  0.00  0.00    -0.296 N 
ATOM     25  C   UNL     1       0.858  -6.802  -2.240  0.00  0.00    +0.093 A 
ATOM     26  C   UNL     1       1.048  -8.138  -2.350  0.00  0.00    +0.018 A 
ATOM     27  C   UNL     1       0.135  -9.028  -1.770  0.00  0.00    +0.005 A 
ATOM     28  C   UNL     1      -0.946  -8.541  -1.096  0.00  0.00    +0.047 A 
ATOM     29  C   UNL     1      -2.651  -3.989  -0.061  0.00  0.00    +0.068 C 
ENDBRANCH  18  20
ENDBRANCH   3  18
BRANCH   1  30
ATOM     30  C   UNL     1      -3.236   0.227  -2.133  0.00  0.00    +0.107 C 
BRANCH  30  31
ATOM     31  C   UNL     1      -2.713   1.159  -3.228  0.00  0.00    +0.000 C 
BRANCH  31  32
ATOM     32  C   UNL     1      -3.833   2.103  -3.672  0.00  0.00    -0.077 C 
BRANCH  32  33
ATOM     33  N   UNL     1      -3.307   3.010  -4.713  0.00  0.00    +0.379 N 
ATOM     34  H   UNL     1      -2.444   3.447  -4.370  0.00  0.00    -0.082 HD
BRANCH  33  36
ATOM     35  C   UNL     1      -4.284   1.667  -6.545  0.00  0.00    -0.017 C 
ATOM     36  C   UNL     1      -3.003   2.246  -5.942  0.00  0.00    -0.082 C 
ENDBRANCH  33  36
BRANCH  33  37
ATOM     37  C   UNL     1      -4.296   4.068  -5.008  0.00  0.00    -0.082 C 
ATOM     38  C   UNL     1      -3.639   5.123  -5.901  0.00  0.00    -0.017 C 
ENDBRANCH  33  37
ENDBRANCH  32  33
ENDBRANCH  31  32
ENDBRANCH  30  31
ENDBRANCH   1  30
TORSDOF 11
