REMARK  Name = ZINC49078685
REMARK  6 active torsions:
REMARK  status: ('A' for Active; 'I' for Inactive)
REMARK    1  A    between atoms: C_1  and  C_2
REMARK    2  A    between atoms: C_6  and  N_18
REMARK    3  A    between atoms: C_7  and  S_8
REMARK    4  A    between atoms: S_8  and  N_11
REMARK    5  A    between atoms: N_11  and  C_12
REMARK    6  A    between atoms: C_12  and  C_17
REMARK                            x       y       z     vdW  Elec       q    Type
REMARK                         _______ _______ _______ _____ _____    ______ ____
ROOT
ATOM      1  S   UNL     1       1.166   1.851   1.873  0.00  0.00    +0.061 S 
ATOM      2  O   UNL     1       2.279   1.422   2.646  0.00  0.00    -0.153 OA
ATOM      3  O   UNL     1       0.970   3.210   1.510  0.00  0.00    -0.153 OA
ENDROOT
BRANCH   1  10
ATOM      4  C   UNL     1       3.174  -0.331   1.276  0.00  0.00    +0.046 C 
ATOM      5  C   UNL     1       2.168  -0.050   0.190  0.00  0.00    -0.022 A 
ATOM      6  C   UNL     1       2.199  -0.777  -0.986  0.00  0.00    +0.005 A 
ATOM      7  C   UNL     1       1.277  -0.519  -1.982  0.00  0.00    +0.003 A 
ATOM      8  C   UNL     1       0.322   0.465  -1.803  0.00  0.00    +0.035 A 
ATOM      9  C   UNL     1       0.290   1.191  -0.627  0.00  0.00    +0.153 A 
ATOM     10  C   UNL     1       1.210   0.930   0.371  0.00  0.00    +0.138 A 
BRANCH   9  11
ATOM     11  N   UNL     1      -0.731   2.244  -0.435  0.00  0.00    +0.058 N 
ATOM     12  O   UNL     1      -1.213   2.801  -1.394  0.00  0.00    -0.126 OA
ATOM     13  O   UNL     1      -1.084   2.549   0.680  0.00  0.00    -0.126 OA
ENDBRANCH   9  11
ENDBRANCH   1  10
BRANCH   1  14
ATOM     14  N   UNL     1      -0.192   1.380   2.696  0.00  0.00    -0.184 NA
ATOM     15  H   UNL     1      -0.882   2.028   2.904  0.00  0.00    +0.149 HD
BRANCH  14  16
ATOM     16  C   UNL     1      -0.349  -0.016   3.111  0.00  0.00    +0.037 C 
ATOM     17  C   UNL     1      -0.477  -0.922   1.874  0.00  0.00    +0.023 C 
ATOM     18  C   UNL     1      -1.855  -1.609   1.970  0.00  0.00    +0.002 C 
ATOM     19  C   UNL     1      -2.689  -0.662   2.867  0.00  0.00    +0.002 C 
ATOM     20  C   UNL     1      -1.654  -0.184   3.916  0.00  0.00    +0.023 C 
ATOM     21  C   UNL     1       0.849  -0.450   3.958  0.00  0.00    +0.029 C 
ENDBRANCH  14  16
ENDBRANCH   1  14
TORSDOF 4
