REMARK  Name = ZINC36613768
REMARK  8 active torsions:
REMARK  status: ('A' for Active; 'I' for Inactive)
REMARK    1  A    between atoms: C_1  and  C_2
REMARK    2  A    between atoms: C_5  and  C_9
REMARK    3  A    between atoms: C_6  and  C_8
REMARK    4  A    between atoms: C_9  and  C_11
REMARK    5  A    between atoms: C_9  and  N_12
REMARK    6  A    between atoms: C_13  and  C_15
REMARK    7  A    between atoms: C_17  and  C_25
REMARK    8  A    between atoms: C_21  and  C_24
REMARK                            x       y       z     vdW  Elec       q    Type
REMARK                         _______ _______ _______ _____ _____    ______ ____
ROOT
ATOM      1  N   UNL     1       0.155  -5.380  -1.245  0.00  0.00    -0.305 N 
ATOM      2  C   UNL     1       0.945  -6.471  -1.298  0.00  0.00    +0.245 C 
ATOM      3  O   UNL     1       1.134  -7.134  -0.297  0.00  0.00    -0.270 OA
ATOM      4  H   UNL     1       0.004  -4.851  -2.044  0.00  0.00    +0.150 HD
ENDROOT
BRANCH   2   5
ATOM      5  C   UNL     1       1.583  -6.861  -2.575  0.00  0.00    +0.053 A 
ATOM      6  C   UNL     1       0.928  -6.676  -3.793  0.00  0.00    +0.037 A 
ATOM      7  C   UNL     1       1.562  -7.056  -4.965  0.00  0.00    +0.043 A 
ATOM      8  N   UNL     1       2.766  -7.587  -4.959  0.00  0.00    -0.215 NA
ATOM      9  C   UNL     1       3.439  -7.788  -3.836  0.00  0.00    +0.259 A 
ATOM     10  C   UNL     1       2.872  -7.426  -2.602  0.00  0.00    +0.076 A 
ATOM     11  C   UNL     1       3.856  -7.764  -1.574  0.00  0.00    +0.091 A 
ATOM     12  N   UNL     1       4.889  -8.267  -2.178  0.00  0.00    -0.080 NA
ATOM     13  O   UNL     1       4.657  -8.303  -3.571  0.00  0.00    -0.334 OA
ATOM     14  C   UNL     1       3.700  -7.564  -0.088  0.00  0.00    +0.070 C 
ATOM     15  C   UNL     1       0.855  -6.856  -6.281  0.00  0.00    +0.066 C 
ENDBRANCH   2   5
BRANCH   1  16
ATOM     16  C   UNL     1      -0.476  -4.994   0.020  0.00  0.00    +0.101 C 
ATOM     17  C   UNL     1      -1.784  -5.769   0.195  0.00  0.00    +0.033 C 
BRANCH  16  22
ATOM     18  C   UNL     1      -1.595   0.675  -0.037  0.00  0.00    +0.044 C 
ATOM     19  C   UNL     1      -1.303  -0.803  -0.022  0.00  0.00    -0.050 A 
ATOM     20  C   UNL     1      -1.202  -1.500  -1.212  0.00  0.00    +0.004 A 
ATOM     21  C   UNL     1      -0.934  -2.856  -1.199  0.00  0.00    +0.006 A 
ATOM     22  C   UNL     1      -0.767  -3.515   0.005  0.00  0.00    -0.025 A 
ATOM     23  C   UNL     1      -0.867  -2.819   1.194  0.00  0.00    -0.045 A 
ATOM     24  C   UNL     1      -1.130  -1.462   1.181  0.00  0.00    +0.007 A 
ATOM     25  C   UNL     1      -0.685  -3.538   2.506  0.00  0.00    +0.044 C 
ENDBRANCH  16  22
ENDBRANCH   1  16
TORSDOF 3
