REMARK  Name = ZINC06409941
REMARK  13 active torsions:
REMARK  status: ('A' for Active; 'I' for Inactive)
REMARK    1  A    between atoms: C_1  and  C_2
REMARK    2  A    between atoms: C_7  and  C_14
REMARK    3  A    between atoms: C_14  and  C_16
REMARK    4  A    between atoms: C_14  and  N_72
REMARK    5  A    between atoms: N_20  and  C_21
REMARK    6  A    between atoms: C_21  and  C_22
REMARK    7  A    between atoms: C_21  and  C_23
REMARK    8  A    between atoms: C_21  and  C_24
REMARK    9  A    between atoms: C_25  and  C_26
REMARK   10  A    between atoms: C_25  and  N_72
REMARK   11  A    between atoms: C_26  and  C_27
REMARK   12  A    between atoms: C_33  and  C_34
REMARK   13  A    between atoms: C_33  and  N_72
REMARK                            x       y       z     vdW  Elec       q    Type
REMARK                         _______ _______ _______ _____ _____    ______ ____
ROOT
ATOM      1  C   UNL     1      -0.221  -2.441  -2.192  0.00  0.00    +0.039 C 
ENDROOT
BRANCH   1   8
ATOM      2  C   UNL     1      -1.779   4.824  -5.092  0.00  0.00    +0.044 C 
ATOM      3  C   UNL     1      -1.547   3.373  -4.755  0.00  0.00    -0.048 A 
ATOM      4  C   UNL     1      -1.779   2.399  -5.717  0.00  0.00    +0.004 A 
ATOM      5  C   UNL     1      -1.575   1.079  -5.432  0.00  0.00    +0.010 A 
ATOM      6  C   UNL     1      -1.128   0.705  -4.161  0.00  0.00    -0.001 A 
ATOM      7  C   UNL     1      -0.899  -0.701  -3.822  0.00  0.00    +0.017 A 
ATOM      8  C   UNL     1      -0.466  -1.004  -2.573  0.00  0.00    +0.011 A 
ATOM      9  C   UNL     1      -0.249   0.021  -1.628  0.00  0.00    +0.251 A 
ATOM     10  O   UNL     1       0.136  -0.274  -0.509  0.00  0.00    -0.268 OA
ATOM     11  N   UNL     1      -0.451   1.315  -1.931  0.00  0.00    -0.322 N 
ATOM     12  H   UNL     1      -0.288   1.995  -1.259  0.00  0.00    +0.169 HD
ATOM     13  C   UNL     1      -0.891   1.689  -3.183  0.00  0.00    +0.049 A 
ATOM     14  C   UNL     1      -1.106   3.028  -3.496  0.00  0.00    +0.029 A 
ENDBRANCH   1   8
BRANCH   1  15
ATOM     15  C   UNL     1      -1.085  -2.802  -1.011  0.00  0.00    +0.143 A 
ATOM     16  N   UNL     1      -0.812  -2.588   0.253  0.00  0.00    -0.115 NA
ATOM     17  N   UNL     1      -1.796  -3.035   0.954  0.00  0.00    -0.023 NA
ATOM     18  N   UNL     1      -2.686  -3.536   0.171  0.00  0.00    -0.043 NA
ATOM     19  N   UNL     1      -2.284  -3.411  -1.049  0.00  0.00    -0.225 N 
BRANCH  19  20
ATOM     20  C   UNL     1      -3.000  -3.850  -2.250  0.00  0.00    +0.059 C 
ATOM     21  C   UNL     1      -2.196  -4.948  -2.950  0.00  0.00    +0.036 C 
ATOM     22  C   UNL     1      -4.373  -4.396  -1.854  0.00  0.00    +0.036 C 
ATOM     23  C   UNL     1      -3.177  -2.663  -3.199  0.00  0.00    +0.036 C 
ENDBRANCH  19  20
ENDBRANCH   1  15
BRANCH   1  24
ATOM     24  N   UNL     1       1.197  -2.608  -1.810  0.00  0.00    +0.392 N 
ATOM     25  H   UNL     1       1.340  -2.209  -0.875  0.00  0.00    -0.080 HD
BRANCH  24  26
ATOM     26  C   UNL     1       2.066  -1.899  -2.772  0.00  0.00    -0.072 C 
BRANCH  26  27
ATOM     27  C   UNL     1       3.499  -1.897  -2.235  0.00  0.00    +0.016 C 
BRANCH  27  28
ATOM     28  C   UNL     1       4.395  -1.157  -3.196  0.00  0.00    -0.049 A 
ATOM     29  C   UNL     1       5.029  -1.842  -4.215  0.00  0.00    +0.003 A 
ATOM     30  C   UNL     1       5.846  -1.163  -5.100  0.00  0.00    +0.000 A 
ATOM     31  C   UNL     1       6.038   0.199  -4.958  0.00  0.00    +0.000 A 
ATOM     32  C   UNL     1       5.408   0.882  -3.935  0.00  0.00    +0.000 A 
ATOM     33  C   UNL     1       4.586   0.204  -3.054  0.00  0.00    +0.003 A 
ENDBRANCH  27  28
ENDBRANCH  26  27
ENDBRANCH  24  26
BRANCH  24  34
ATOM     34  C   UNL     1       1.546  -4.044  -1.778  0.00  0.00    -0.042 C 
BRANCH  34  35
ATOM     35  C   UNL     1       1.017  -4.641  -0.499  0.00  0.00    -0.064 A 
ATOM     36  C   UNL     1      -0.172  -5.345  -0.506  0.00  0.00    +0.004 A 
ATOM     37  C   UNL     1      -0.659  -5.893   0.666  0.00  0.00    +0.038 A 
ATOM     38  C   UNL     1       0.045  -5.735   1.848  0.00  0.00    +0.123 A 
ATOM     39  C   UNL     1       1.236  -5.029   1.854  0.00  0.00    +0.038 A 
ATOM     40  C   UNL     1       1.721  -4.482   0.680  0.00  0.00    +0.004 A 
ATOM     41  F   UNL     1      -0.429  -6.270   2.994  0.00  0.00    -0.205 F 
ENDBRANCH  34  35
ENDBRANCH  24  34
ENDBRANCH   1  24
TORSDOF 9
