REMARK  Name = ZINC32983652
REMARK  10 active torsions:
REMARK  status: ('A' for Active; 'I' for Inactive)
REMARK    1  A    between atoms: C_1  and  C_2
REMARK    2  A    between atoms: C_2  and  C_3
REMARK    3  A    between atoms: C_3  and  C_5
REMARK    4  A    between atoms: C_3  and  N_15
REMARK    5  A    between atoms: C_5  and  N_6
REMARK    6  A    between atoms: N_6  and  C_7
REMARK    7  A    between atoms: N_6  and  C_8
REMARK    8  A    between atoms: C_8  and  C_9
REMARK    9  A    between atoms: C_16  and  C_18
REMARK   10  A    between atoms: C_28  and  C_29
REMARK                            x       y       z     vdW  Elec       q    Type
REMARK                         _______ _______ _______ _____ _____    ______ ____
ROOT
ATOM      1  C   UNL     1       1.774  -0.495  -0.854  0.00  0.00    +0.039 A 
ATOM      2  C   UNL     1       0.494  -0.005  -0.578  0.00  0.00    +0.017 A 
ATOM      3  C   UNL     1       0.307   1.339  -0.338  0.00  0.00    +0.049 A 
ATOM      4  C   UNL     1       1.387   2.210  -0.370  0.00  0.00    +0.150 A 
ATOM      5  C   UNL     1       2.669   1.728  -0.645  0.00  0.00    +0.077 A 
ATOM      6  C   UNL     1       2.862   0.380  -0.887  0.00  0.00    +0.040 A 
ATOM      7  N   UNL     1       3.760   2.608  -0.675  0.00  0.00    -0.276 N 
ATOM      8  C   UNL     1       3.605   3.857  -0.175  0.00  0.00    +0.284 C 
ATOM      9  O   UNL     1       4.526   4.653  -0.167  0.00  0.00    -0.266 OA
ATOM     10  C   UNL     1       2.276   4.218   0.361  0.00  0.00    +0.191 C 
ATOM     11  C   UNL     1       2.131   5.177   1.302  0.00  0.00    +0.059 C 
ATOM     12  O   UNL     1       1.198   3.537  -0.137  0.00  0.00    -0.449 OA
ATOM     13  H   UNL     1       4.720   2.279  -1.099  0.00  0.00    +0.155 HD
ENDROOT
BRANCH  11  14
ATOM     14  C   UNL     1       3.317   5.750   1.957  0.00  0.00    -0.021 A 
ATOM     15  C   UNL     1       3.354   7.110   2.280  0.00  0.00    +0.009 A 
ATOM     16  C   UNL     1       4.466   7.639   2.898  0.00  0.00    +0.020 A 
ATOM     17  C   UNL     1       5.551   6.829   3.190  0.00  0.00    +0.041 A 
ATOM     18  C   UNL     1       5.525   5.481   2.869  0.00  0.00    +0.020 A 
ATOM     19  C   UNL     1       4.416   4.938   2.255  0.00  0.00    +0.009 A 
ATOM     20 CL   UNL     1       6.952   7.505   3.962  0.00  0.00    -0.084 Cl
ENDBRANCH  11  14
BRANCH   1  22
ATOM     21  N   UNL     1       0.923  -2.777  -1.080  0.00  0.00    -0.310 N 
ATOM     22  C   UNL     1       1.974  -1.934  -1.112  0.00  0.00    +0.244 C 
ATOM     23  O   UNL     1       3.087  -2.359  -1.353  0.00  0.00    -0.270 OA
ATOM     24  H   UNL     1      -0.084  -2.393  -0.862  0.00  0.00    +0.149 HD
BRANCH  21  25
ATOM     25  C   UNL     1       1.122  -4.206  -1.335  0.00  0.00    +0.056 C 
BRANCH  25  27
ATOM     26  C   UNL     1       2.287  -3.764  -3.501  0.00  0.00    +0.005 C 
ATOM     27  C   UNL     1       1.095  -4.463  -2.843  0.00  0.00    +0.017 C 
ENDBRANCH  25  27
BRANCH  25  28
ATOM     28  C   UNL     1       0.005  -5.005  -0.662  0.00  0.00    -0.056 C 
BRANCH  28  29
ATOM     29  N   UNL     1      -0.046  -4.667   0.767  0.00  0.00    +0.382 N 
ATOM     30  C   UNL     1       1.170  -5.116   1.458  0.00  0.00    -0.096 C 
ATOM     31  H   UNL     1      -0.099  -3.572   0.853  0.00  0.00    -0.082 HD
BRANCH  29  32
ATOM     32  C   UNL     1      -1.248  -5.229   1.398  0.00  0.00    -0.043 C 
BRANCH  32  33
ATOM     33  C   UNL     1      -1.395  -4.664   2.788  0.00  0.00    -0.064 A 
ATOM     34  C   UNL     1      -0.816  -5.312   3.862  0.00  0.00    +0.002 A 
ATOM     35  C   UNL     1      -0.948  -4.792   5.136  0.00  0.00    +0.000 A 
ATOM     36  C   UNL     1      -1.667  -3.629   5.337  0.00  0.00    +0.000 A 
ATOM     37  C   UNL     1      -2.251  -2.983   4.263  0.00  0.00    +0.000 A 
ATOM     38  C   UNL     1      -2.115  -3.501   2.988  0.00  0.00    +0.002 A 
ENDBRANCH  32  33
ENDBRANCH  29  32
ENDBRANCH  28  29
ENDBRANCH  25  28
ENDBRANCH  21  25
ENDBRANCH   1  22
TORSDOF 8
