REMARK  Name = ZINC24880279
REMARK  10 active torsions:
REMARK  status: ('A' for Active; 'I' for Inactive)
REMARK    1  A    between atoms: C_1  and  C_2
REMARK    2  A    between atoms: C_5  and  N_9
REMARK    3  A    between atoms: C_7  and  C_8
REMARK    4  A    between atoms: N_9  and  S_10
REMARK    5  A    between atoms: S_10  and  C_13
REMARK    6  A    between atoms: C_16  and  C_19
REMARK    7  A    between atoms: N_21  and  C_22
REMARK    8  A    between atoms: C_22  and  C_23
REMARK    9  A    between atoms: C_23  and  C_25
REMARK   10  A    between atoms: C_23  and  N_30
REMARK                            x       y       z     vdW  Elec       q    Type
REMARK                         _______ _______ _______ _____ _____    ______ ____
ROOT
ATOM      1  C   UNL     1       2.108   1.598  -7.261  0.00  0.00    +0.109 A 
ATOM      2  C   UNL     1       0.938   2.333  -7.323  0.00  0.00    +0.029 A 
ATOM      3  C   UNL     1       0.250   2.638  -6.167  0.00  0.00    +0.015 A 
ATOM      4  C   UNL     1       0.738   2.204  -4.933  0.00  0.00    +0.037 A 
ATOM      5  C   UNL     1       1.922   1.467  -4.878  0.00  0.00    +0.015 A 
ATOM      6  C   UNL     1       2.597   1.164  -6.042  0.00  0.00    +0.029 A 
ENDROOT
BRANCH   4   7
ATOM      7  C   UNL     1       0.006   2.527  -3.690  0.00  0.00    +0.244 C 
ATOM      8  O   UNL     1      -1.023   3.173  -3.741  0.00  0.00    -0.270 OA
ATOM      9  N   UNL     1       0.479   2.107  -2.500  0.00  0.00    -0.312 N 
ATOM     10  H   UNL     1       1.410   1.522  -2.454  0.00  0.00    +0.149 HD
BRANCH   9  11
ATOM     11  C   UNL     1      -0.246   2.428  -1.268  0.00  0.00    +0.097 C 
BRANCH  11  12
ATOM     12  C   UNL     1       0.499   1.837  -0.069  0.00  0.00    +0.016 C 
BRANCH  12  13
ATOM     13  N   UNL     1       1.888   2.314  -0.073  0.00  0.00    +0.387 N 
ATOM     14  C   UNL     1       1.942   3.795  -0.178  0.00  0.00    -0.078 C 
ATOM     15  C   UNL     1       3.357   4.137   0.354  0.00  0.00    -0.020 C 
ATOM     16  C   UNL     1       3.548   3.122   1.504  0.00  0.00    -0.020 C 
ATOM     17  C   UNL     1       2.568   1.975   1.196  0.00  0.00    -0.078 C 
ATOM     18  H   UNL     1       2.371   1.825  -0.932  0.00  0.00    -0.081 HD
ENDBRANCH  12  13
BRANCH  12  19
ATOM     19  C   UNL     1      -0.178   2.270   1.206  0.00  0.00    +0.093 A 
ATOM     20  C   UNL     1      -0.931   1.489   2.000  0.00  0.00    +0.043 A 
ATOM     21  C   UNL     1      -1.362   2.296   3.079  0.00  0.00    +0.041 A 
ATOM     22  C   UNL     1      -0.852   3.523   2.874  0.00  0.00    +0.195 A 
ATOM     23  O   UNL     1      -0.136   3.502   1.738  0.00  0.00    -0.469 OA
ENDBRANCH  12  19
ENDBRANCH  11  12
ENDBRANCH   9  11
ENDBRANCH   4   7
BRANCH   1  24
ATOM     24  S   UNL     1       2.981   1.212  -8.743  0.00  0.00    +0.072 S 
ATOM     25  O   UNL     1       3.669  -0.007  -8.503  0.00  0.00    -0.150 OA
ATOM     26  O   UNL     1       2.057   1.368  -9.811  0.00  0.00    -0.150 OA
BRANCH  24  27
ATOM     27  N   UNL     1       4.140   2.378  -8.946  0.00  0.00    -0.216 N 
ATOM     28  H   UNL     1       4.100   3.047  -9.818  0.00  0.00    +0.174 HD
BRANCH  27  33
ATOM     29  C   UNL     1       8.314   2.920  -5.146  0.00  0.00    +0.044 C 
ATOM     30  C   UNL     1       7.204   2.776  -6.156  0.00  0.00    -0.047 A 
ATOM     31  C   UNL     1       6.179   3.703  -6.191  0.00  0.00    +0.005 A 
ATOM     32  C   UNL     1       5.164   3.577  -7.119  0.00  0.00    +0.025 A 
ATOM     33  C   UNL     1       5.168   2.511  -8.010  0.00  0.00    +0.048 A 
ATOM     34  C   UNL     1       6.199   1.581  -7.971  0.00  0.00    +0.028 A 
ATOM     35  C   UNL     1       7.214   1.717  -7.045  0.00  0.00    -0.046 A 
ATOM     36  C   UNL     1       8.333   0.708  -7.002  0.00  0.00    +0.044 C 
ENDBRANCH  27  33
ENDBRANCH  24  27
ENDBRANCH   1  24
TORSDOF 8
