REMARK  Name = ZINC12711006
REMARK  10 active torsions:
REMARK  status: ('A' for Active; 'I' for Inactive)
REMARK    1  A    between atoms: C_1  and  C_2
REMARK    2  A    between atoms: C_5  and  N_9
REMARK    3  A    between atoms: C_6  and  C_8
REMARK    4  A    between atoms: N_9  and  C_10
REMARK    5  A    between atoms: C_10  and  C_12
REMARK    6  A    between atoms: C_10  and  C_17
REMARK    7  A    between atoms: N_19  and  C_20
REMARK    8  A    between atoms: C_25  and  C_27
REMARK    9  A    between atoms: C_28  and  N_35
REMARK   10  A    between atoms: C_29  and  C_32
REMARK                            x       y       z     vdW  Elec       q    Type
REMARK                         _______ _______ _______ _____ _____    ______ ____
ROOT
ATOM      1  N   UNL     1       0.810   2.388   5.968  0.00  0.00    -0.250 N 
ATOM      2  C   UNL     1       1.506   1.549   6.760  0.00  0.00    +0.262 C 
ATOM      3  O   UNL     1       2.023   0.553   6.288  0.00  0.00    -0.269 OA
ENDROOT
BRANCH   1   8
ATOM      4  C   UNL     1      -1.597   7.029   8.168  0.00  0.00    +0.044 C 
ATOM      5  C   UNL     1      -0.957   5.796   7.584  0.00  0.00    -0.050 A 
ATOM      6  C   UNL     1      -1.693   4.632   7.455  0.00  0.00    +0.005 A 
ATOM      7  C   UNL     1      -1.112   3.502   6.914  0.00  0.00    +0.024 A 
ATOM      8  C   UNL     1       0.217   3.532   6.511  0.00  0.00    +0.041 A 
ATOM      9  C   UNL     1       0.953   4.702   6.642  0.00  0.00    -0.029 A 
ATOM     10  C   UNL     1       0.364   5.830   7.178  0.00  0.00    +0.008 A 
ATOM     11  C   UNL     1       2.394   4.741   6.200  0.00  0.00    +0.045 C 
ENDBRANCH   1   8
BRANCH   2  12
ATOM     12  C   UNL     1       1.640   1.835   8.190  0.00  0.00    +0.116 A 
ATOM     13  C   UNL     1       2.308   1.109   9.179  0.00  0.00    +0.076 A 
ATOM     14  C   UNL     1       2.212   1.707  10.436  0.00  0.00    +0.155 A 
ATOM     15  N   UNL     1       1.542   2.830  10.565  0.00  0.00    -0.203 NA
ATOM     16  S   UNL     1       1.003   3.205   9.132  0.00  0.00    +0.019 S 
BRANCH  14  17
ATOM     17  C   UNL     1       2.855   1.084  11.607  0.00  0.00    +0.262 C 
ATOM     18  O   UNL     1       3.473   0.045  11.481  0.00  0.00    -0.269 OA
ATOM     19  N   UNL     1       2.758   1.667  12.819  0.00  0.00    -0.324 N 
ATOM     20  H   UNL     1       2.264   2.496  12.919  0.00  0.00    +0.145 HD
ATOM     21  H   UNL     1       3.181   1.258  13.589  0.00  0.00    +0.145 HD
ENDBRANCH  14  17
BRANCH  13  22
ATOM     22  N   UNL     1       2.991  -0.075   8.938  0.00  0.00    -0.355 N 
ATOM     23  H   UNL     1       3.023  -0.443   8.041  0.00  0.00    +0.142 HD
ATOM     24  H   UNL     1       3.437  -0.535   9.666  0.00  0.00    +0.142 HD
ENDBRANCH  13  22
ENDBRANCH   2  12
BRANCH   1  25
ATOM     25  C   UNL     1       0.676   2.102   4.537  0.00  0.00    +0.204 C 
BRANCH  25  26
ATOM     26  C   UNL     1       1.079   3.316   3.742  0.00  0.00    +0.019 A 
ATOM     27  C   UNL     1       2.088   3.454   2.847  0.00  0.00    +0.013 A 
ATOM     28  C   UNL     1       2.272   4.676   2.227  0.00  0.00    +0.008 A 
ATOM     29  C   UNL     1       1.444   5.703   2.540  0.00  0.00    +0.045 A 
ATOM     30  S   UNL     1       0.357   4.949   3.739  0.00  0.00    -0.099 S 
ENDBRANCH  25  26
BRANCH  25  31
ATOM     31  C   UNL     1      -0.756   1.751   4.228  0.00  0.00    +0.239 C 
ATOM     32  O   UNL     1      -1.584   1.742   5.114  0.00  0.00    -0.273 OA
ATOM     33  N   UNL     1      -1.118   1.448   2.965  0.00  0.00    -0.311 N 
ATOM     34  H   UNL     1      -0.457   1.456   2.256  0.00  0.00    +0.149 HD
BRANCH  33  35
ATOM     35  C   UNL     1      -2.511   1.108   2.664  0.00  0.00    +0.073 C 
ATOM     36  C   UNL     1      -2.591   0.230   1.398  0.00  0.00    +0.022 C 
ATOM     37  C   UNL     1      -3.845   0.678   0.628  0.00  0.00    +0.002 C 
ATOM     38  C   UNL     1      -4.485   1.814   1.453  0.00  0.00    +0.002 C 
ATOM     39  C   UNL     1      -3.314   2.381   2.293  0.00  0.00    +0.022 C 
ENDBRANCH  33  35
ENDBRANCH  25  31
ENDBRANCH   1  25
TORSDOF 8
