REMARK  Name = ZINC09609630
REMARK  8 active torsions:
REMARK  status: ('A' for Active; 'I' for Inactive)
REMARK    1  A    between atoms: C_1  and  C_2
REMARK    2  A    between atoms: C_2  and  N_3
REMARK    3  A    between atoms: C_7  and  C_9
REMARK    4  A    between atoms: C_9  and  C_11
REMARK    5  A    between atoms: C_9  and  O_12
REMARK    6  A    between atoms: O_12  and  C_13
REMARK    7  A    between atoms: C_13  and  C_15
REMARK    8  A    between atoms: C_20  and  N_21
REMARK                            x       y       z     vdW  Elec       q    Type
REMARK                         _______ _______ _______ _____ _____    ______ ____
ROOT
ATOM      1  O   UNL     1      -0.676   1.543  -1.203  0.00  0.00    -0.449 OA
ENDROOT
BRANCH   1   2
ATOM      2  C   UNL     1       0.034   1.058  -0.033  0.00  0.00    +0.259 C 
ATOM      3  C   UNL     1      -0.656   1.571   1.232  0.00  0.00    +0.062 C 
BRANCH   2   8
ATOM      4  N   UNL     1       4.487   1.183   1.774  0.00  0.00    -0.299 N 
ATOM      5  C   UNL     1       3.608   1.592   0.838  0.00  0.00    +0.306 C 
ATOM      6  O   UNL     1       3.961   2.362  -0.033  0.00  0.00    -0.252 OA
ATOM      7  N   UNL     1       2.336   1.147   0.869  0.00  0.00    -0.237 N 
ATOM      8  C   UNL     1       1.456   1.556  -0.067  0.00  0.00    +0.261 C 
ATOM      9  O   UNL     1       1.809   2.324  -0.936  0.00  0.00    -0.271 OA
ATOM     10  H   UNL     1       4.205   0.569   2.470  0.00  0.00    +0.150 HD
ATOM     11  H   UNL     1       2.054   0.532   1.564  0.00  0.00    +0.159 HD
BRANCH   4  13
ATOM     12  C   UNL     1       6.652   1.056   2.905  0.00  0.00    +0.024 C 
ATOM     13  C   UNL     1       5.870   1.667   1.741  0.00  0.00    +0.102 C 
ENDBRANCH   4  13
ENDBRANCH   2   8
ENDBRANCH   1   2
BRANCH   1  14
ATOM     14  C   UNL     1      -1.672   0.769  -1.679  0.00  0.00    +0.342 C 
ATOM     15  O   UNL     1      -1.939  -0.282  -1.131  0.00  0.00    -0.245 OA
BRANCH  14  16
ATOM     16  C   UNL     1      -2.437   1.198  -2.862  0.00  0.00    +0.081 A 
ATOM     17  C   UNL     1      -2.218   2.461  -3.421  0.00  0.00    +0.032 A 
ATOM     18  C   UNL     1      -2.933   2.854  -4.531  0.00  0.00    +0.019 A 
ATOM     19  C   UNL     1      -3.878   2.008  -5.092  0.00  0.00    +0.017 A 
ATOM     20  C   UNL     1      -4.109   0.761  -4.548  0.00  0.00    +0.024 A 
ATOM     21  C   UNL     1      -3.394   0.344  -3.432  0.00  0.00    +0.039 A 
ATOM     22 BR   UNL     1      -2.630   4.559  -5.290  0.00  0.00    -0.050 Br
BRANCH  21  23
ATOM     23  N   UNL     1      -3.625  -0.910  -2.883  0.00  0.00    -0.357 N 
ATOM     24  H   UNL     1      -3.185  -1.167  -2.058  0.00  0.00    +0.142 HD
ATOM     25  H   UNL     1      -4.227  -1.529  -3.325  0.00  0.00    +0.142 HD
ENDBRANCH  21  23
ENDBRANCH  14  16
ENDBRANCH   1  14
TORSDOF 6
