REMARK  Name = ZINC13506483
REMARK  10 active torsions:
REMARK  status: ('A' for Active; 'I' for Inactive)
REMARK    1  A    between atoms: C_1  and  C_2
REMARK    2  A    between atoms: C_7  and  C_8
REMARK    3  A    between atoms: C_8  and  C_10
REMARK    4  A    between atoms: C_8  and  N_19
REMARK    5  A    between atoms: N_12  and  C_13
REMARK    6  A    between atoms: N_19  and  C_20
REMARK    7  A    between atoms: C_20  and  C_21
REMARK    8  A    between atoms: C_26  and  C_28
REMARK    9  A    between atoms: C_28  and  N_29
REMARK   10  A    between atoms: C_30  and  C_32
REMARK                            x       y       z     vdW  Elec       q    Type
REMARK                         _______ _______ _______ _____ _____    ______ ____
ROOT
ATOM      1  N   UNL     1      -2.463  -0.442   0.679  0.00  0.00    -0.277 N 
ATOM      2  C   UNL     1      -3.249  -0.760   1.726  0.00  0.00    +0.234 C 
ATOM      3  O   UNL     1      -4.001   0.068   2.194  0.00  0.00    -0.274 OA
ENDROOT
BRANCH   1   4
ATOM      4  C   UNL     1      -2.517   0.906   0.106  0.00  0.00    +0.193 C 
BRANCH   4  11
ATOM      5  C   UNL     1      -1.357   1.970   2.528  0.00  0.00    +0.044 C 
ATOM      6  C   UNL     1      -0.577   2.006   1.240  0.00  0.00    -0.045 A 
ATOM      7  C   UNL     1       0.693   2.554   1.216  0.00  0.00    +0.004 A 
ATOM      8  C   UNL     1       1.409   2.587   0.034  0.00  0.00    +0.000 A 
ATOM      9  C   UNL     1       0.856   2.072  -1.124  0.00  0.00    +0.000 A 
ATOM     10  C   UNL     1      -0.413   1.525  -1.100  0.00  0.00    +0.006 A 
ATOM     11  C   UNL     1      -1.131   1.497   0.081  0.00  0.00    -0.015 A 
ENDBRANCH   4  11
BRANCH   4  12
ATOM     12  C   UNL     1      -3.057   0.833  -1.299  0.00  0.00    +0.238 C 
ATOM     13  O   UNL     1      -3.247  -0.246  -1.821  0.00  0.00    -0.273 OA
ATOM     14  N   UNL     1      -3.330   1.966  -1.976  0.00  0.00    -0.311 N 
ATOM     15  H   UNL     1      -3.111   2.827  -1.588  0.00  0.00    +0.149 HD
BRANCH  14  16
ATOM     16  C   UNL     1      -3.957   1.896  -3.299  0.00  0.00    +0.073 C 
ATOM     17  C   UNL     1      -2.878   1.693  -4.364  0.00  0.00    +0.022 C 
ATOM     18  C   UNL     1      -3.533   1.620  -5.745  0.00  0.00    +0.002 C 
ATOM     19  C   UNL     1      -4.284   2.924  -6.023  0.00  0.00    +0.000 C 
ATOM     20  C   UNL     1      -5.363   3.127  -4.957  0.00  0.00    +0.002 C 
ATOM     21  C   UNL     1      -4.708   3.200  -3.576  0.00  0.00    +0.022 C 
ENDBRANCH  14  16
ENDBRANCH   4  12
ENDBRANCH   1   4
BRANCH   1  22
ATOM     22  C   UNL     1      -1.555  -1.442   0.113  0.00  0.00    +0.183 C 
BRANCH  22  23
ATOM     23  C   UNL     1      -0.265  -1.446   0.891  0.00  0.00    +0.122 A 
ATOM     24  C   UNL     1       0.041  -2.277   1.904  0.00  0.00    +0.046 A 
ATOM     25  C   UNL     1       1.341  -1.932   2.339  0.00  0.00    +0.041 A 
ATOM     26  C   UNL     1       1.752  -0.910   1.566  0.00  0.00    +0.195 A 
ATOM     27  O   UNL     1       0.778  -0.624   0.687  0.00  0.00    -0.466 OA
ENDBRANCH  22  23
ENDBRANCH   1  22
BRANCH   2  28
ATOM     28  C   UNL     1      -3.194  -2.146   2.316  0.00  0.00    +0.200 C 
BRANCH  28  29
ATOM     29  N   UNL     1      -4.135  -2.239   3.434  0.00  0.00    -0.302 N 
ATOM     30  C   UNL     1      -4.257  -3.394   4.118  0.00  0.00    +0.251 C 
ATOM     31  O   UNL     1      -3.586  -4.360   3.806  0.00  0.00    -0.270 OA
ATOM     32  H   UNL     1      -4.670  -1.469   3.683  0.00  0.00    +0.150 HD
BRANCH  30  33
ATOM     33  C   UNL     1      -5.199  -3.487   5.237  0.00  0.00    +0.074 A 
ATOM     34  C   UNL     1      -5.478  -4.569   6.057  0.00  0.00    +0.021 A 
ATOM     35  C   UNL     1      -6.413  -4.381   7.044  0.00  0.00    +0.008 A 
ATOM     36  C   UNL     1      -7.018  -3.170   7.163  0.00  0.00    +0.046 A 
ATOM     37  S   UNL     1      -6.291  -2.238   5.895  0.00  0.00    -0.092 S 
ENDBRANCH  30  33
ENDBRANCH  28  29
ENDBRANCH   2  28
TORSDOF 9
