REMARK  Name = ZINC04301585
REMARK  4 active torsions:
REMARK  status: ('A' for Active; 'I' for Inactive)
REMARK    1  A    between atoms: C_6  and  C_7
REMARK    2  A    between atoms: C_7  and  N_54
REMARK    3  A    between atoms: C_10  and  O_28
REMARK    4  A    between atoms: C_17  and  C_19
REMARK                            x       y       z     vdW  Elec       q    Type
REMARK                         _______ _______ _______ _____ _____    ______ ____
ROOT
ATOM      1  C   UNL     1       2.230   1.886   1.318  0.00  0.00    -0.075 C 
ATOM      2  C   UNL     1       3.660   2.400   1.130  0.00  0.00    +0.016 C 
ATOM      3  C   UNL     1       3.612   3.869   0.704  0.00  0.00    +0.066 C 
ATOM      4  C   UNL     1       5.030   4.387   0.457  0.00  0.00    +0.035 C 
ATOM      5  C   UNL     1       4.963   5.857   0.037  0.00  0.00    +0.003 C 
ATOM      6  C   UNL     1       4.137   5.989  -1.244  0.00  0.00    +0.000 C 
ATOM      7  C   UNL     1       2.722   5.459  -1.001  0.00  0.00    +0.005 C 
ATOM      8  C   UNL     1       2.798   3.989  -0.587  0.00  0.00    +0.011 C 
ATOM      9  C   UNL     1       1.392   3.438  -0.348  0.00  0.00    -0.031 C 
ATOM     10  N   UNL     1       1.498   2.014   0.040  0.00  0.00    +0.387 N 
ATOM     11  H   UNL     1       2.013   1.508  -0.691  0.00  0.00    -0.080 HD
ENDROOT
BRANCH   9  12
ATOM     12  C   UNL     1       0.718   4.236   0.739  0.00  0.00    -0.057 A 
ATOM     13  C   UNL     1       0.535   5.597   0.583  0.00  0.00    +0.006 A 
ATOM     14  C   UNL     1      -0.083   6.333   1.577  0.00  0.00    +0.050 A 
ATOM     15  C   UNL     1      -0.521   5.707   2.732  0.00  0.00    +0.166 A 
ATOM     16  C   UNL     1      -0.336   4.336   2.890  0.00  0.00    +0.166 A 
ATOM     17  C   UNL     1       0.280   3.604   1.887  0.00  0.00    +0.051 A 
ATOM     18  O   UNL     1      -0.848   3.963   4.099  0.00  0.00    -0.453 OA
ATOM     19  C   UNL     1      -1.711   5.043   4.501  0.00  0.00    +0.466 C 
ATOM     20  O   UNL     1      -1.148   6.193   3.843  0.00  0.00    -0.453 OA
ENDBRANCH   9  12
BRANCH   3  21
ATOM     21  O   UNL     1       2.993   4.644   1.732  0.00  0.00    -0.388 OA
ATOM     22  H   UNL     1       3.456   4.615   2.580  0.00  0.00    +0.210 HD
ENDBRANCH   3  21
BRANCH  10  23
ATOM     23  C   UNL     1       0.149   1.426   0.171  0.00  0.00    -0.042 C 
BRANCH  23  29
ATOM     24  C   UNL     1       0.366  -0.970  -0.522  0.00  0.00    +0.004 A 
ATOM     25  C   UNL     1       0.497  -2.312  -0.224  0.00  0.00    +0.038 A 
ATOM     26  C   UNL     1       0.538  -2.727   1.097  0.00  0.00    +0.123 A 
ATOM     27  C   UNL     1       0.453  -1.795   2.117  0.00  0.00    +0.038 A 
ATOM     28  C   UNL     1       0.327  -0.452   1.816  0.00  0.00    +0.004 A 
ATOM     29  C   UNL     1       0.287  -0.039   0.497  0.00  0.00    -0.064 A 
ATOM     30  F   UNL     1       0.661  -4.040   1.390  0.00  0.00    -0.205 F 
ENDBRANCH  23  29
ENDBRANCH  10  23
TORSDOF 4
