REMARK  Name = ZINC33937141
REMARK  12 active torsions:
REMARK  status: ('A' for Active; 'I' for Inactive)
REMARK    1  A    between atoms: C_1  and  C_2
REMARK    2  A    between atoms: C_2  and  C_3
REMARK    3  A    between atoms: C_3  and  C_5
REMARK    4  A    between atoms: C_3  and  N_16
REMARK    5  A    between atoms: N_9  and  C_10
REMARK    6  A    between atoms: N_16  and  C_17
REMARK    7  A    between atoms: N_16  and  C_33
REMARK    8  A    between atoms: C_17  and  C_18
REMARK    9  A    between atoms: C_22  and  O_30
REMARK   10  A    between atoms: O_30  and  C_31
REMARK   11  A    between atoms: C_31  and  C_32
REMARK   12  A    between atoms: C_33  and  C_34
REMARK                            x       y       z     vdW  Elec       q    Type
REMARK                         _______ _______ _______ _____ _____    ______ ____
ROOT
ATOM      1  N   UNL     1      -0.081   0.211   2.555  0.00  0.00    +0.391 N 
ATOM      2  H   UNL     1      -1.064  -0.002   2.636  0.00  0.00    -0.080 HD
ENDROOT
BRANCH   1   3
ATOM      3  C   UNL     1       0.450  -0.392   1.326  0.00  0.00    +0.003 C 
BRANCH   3   4
ATOM      4  C   UNL     1       1.920  -0.083   1.209  0.00  0.00    +0.138 A 
ATOM      5  N   UNL     1       2.834  -0.270   2.130  0.00  0.00    -0.115 NA
ATOM      6  N   UNL     1       3.966   0.116   1.651  0.00  0.00    -0.023 NA
ATOM      7  N   UNL     1       3.798   0.544   0.448  0.00  0.00    -0.044 NA
ATOM      8  N   UNL     1       2.551   0.432   0.138  0.00  0.00    -0.228 N 
BRANCH   8   9
ATOM      9  C   UNL     1       1.936   0.800  -1.140  0.00  0.00    +0.111 C 
ATOM     10  C   UNL     1       2.573  -0.015  -2.267  0.00  0.00    +0.027 C 
ATOM     11  C   UNL     1       1.931   0.369  -3.601  0.00  0.00    +0.002 C 
ATOM     12  C   UNL     1       2.152   1.860  -3.863  0.00  0.00    +0.000 C 
ATOM     13  C   UNL     1       1.515   2.676  -2.736  0.00  0.00    +0.002 C 
ATOM     14  C   UNL     1       2.158   2.291  -1.402  0.00  0.00    +0.027 C 
ENDBRANCH   8   9
ENDBRANCH   3   4
BRANCH   3  16
ATOM     15  C   UNL     1      -1.247  -2.224   1.415  0.00  0.00    +0.002 C 
ATOM     16  C   UNL     1       0.250  -1.908   1.374  0.00  0.00    -0.011 C 
ENDBRANCH   3  16
ENDBRANCH   1   3
BRANCH   1  17
ATOM     17  C   UNL     1       0.635  -0.333   3.717  0.00  0.00    -0.036 C 
BRANCH  17  18
ATOM     18  C   UNL     1      -0.017   0.157   4.984  0.00  0.00    +0.001 A 
ATOM     19  C   UNL     1      -0.943  -0.612   5.608  0.00  0.00    +0.017 A 
ATOM     20  C   UNL     1      -1.558  -0.107   6.837  0.00  0.00    +0.002 A 
ATOM     21  C   UNL     1      -2.519  -0.857   7.524  0.00  0.00    +0.055 A 
ATOM     22  C   UNL     1      -3.078  -0.352   8.680  0.00  0.00    +0.121 A 
ATOM     23  C   UNL     1      -2.691   0.896   9.162  0.00  0.00    +0.047 A 
ATOM     24  C   UNL     1      -1.746   1.644   8.494  0.00  0.00    +0.030 A 
ATOM     25  C   UNL     1      -1.170   1.153   7.327  0.00  0.00    +0.049 A 
ATOM     26  N   UNL     1      -0.221   1.887   6.644  0.00  0.00    -0.322 N 
ATOM     27  H   UNL     1       0.046   2.756   6.982  0.00  0.00    +0.169 HD
ATOM     28  C   UNL     1       0.342   1.412   5.519  0.00  0.00    +0.251 A 
ATOM     29  O   UNL     1       1.180   2.086   4.945  0.00  0.00    -0.268 OA
BRANCH  22  30
ATOM     30  O   UNL     1      -4.013  -1.076   9.352  0.00  0.00    -0.492 OA
BRANCH  30  31
ATOM     31  C   UNL     1      -4.552  -0.495  10.541  0.00  0.00    +0.225 C 
ATOM     32  C   UNL     1      -5.579  -1.448  11.154  0.00  0.00    +0.048 C 
ENDBRANCH  30  31
ENDBRANCH  22  30
ENDBRANCH  17  18
ENDBRANCH   1  17
BRANCH   1  33
ATOM     33  C   UNL     1       0.102   1.668   2.505  0.00  0.00    -0.045 C 
BRANCH  33  34
ATOM     34  C   UNL     1      -0.726   2.247   1.356  0.00  0.00    +0.102 C 
ATOM     35  C   UNL     1      -0.478   3.766   1.246  0.00  0.00    +0.032 C 
ATOM     36  C   UNL     1      -1.895   4.309   0.918  0.00  0.00    +0.030 C 
ATOM     37  C   UNL     1      -2.780   3.326   1.724  0.00  0.00    +0.160 C 
ATOM     38  O   UNL     1      -2.121   2.053   1.617  0.00  0.00    -0.378 OA
ENDBRANCH  33  34
ENDBRANCH   1  33
TORSDOF 10
