REMARK  Name = ZINC06679057
REMARK  5 active torsions:
REMARK  status: ('A' for Active; 'I' for Inactive)
REMARK    1  A    between atoms: C_1  and  C_2
REMARK    2  A    between atoms: C_5  and  N_8
REMARK    3  A    between atoms: C_11  and  C_13
REMARK    4  A    between atoms: C_14  and  C_23
REMARK    5  A    between atoms: C_17  and  C_22
REMARK                            x       y       z     vdW  Elec       q    Type
REMARK                         _______ _______ _______ _____ _____    ______ ____
ROOT
ATOM      1  N   UNL     1       0.059  -4.172  -0.021  0.00  0.00    -0.218 N 
ATOM      2  C   UNL     1       0.787  -4.975   0.829  0.00  0.00    +0.133 A 
ATOM      3  C   UNL     1       0.521  -6.255   0.487  0.00  0.00    +0.033 A 
ATOM      4  C   UNL     1      -0.386  -6.233  -0.594  0.00  0.00    +0.067 A 
ATOM      5  N   UNL     1      -0.662  -4.995  -0.887  0.00  0.00    -0.170 NA
ATOM      6  C   UNL     1      -0.948  -7.446  -1.290  0.00  0.00    +0.068 C 
ATOM      7  C   UNL     1       1.030  -7.536   1.070  0.00  0.00    +0.112 C 
ATOM      8  S   UNL     1       1.312  -7.448   2.841  0.00  0.00    -0.135 S 
ATOM      9  C   UNL     1       2.690  -6.316   3.069  0.00  0.00    +0.130 C 
ATOM     10  C   UNL     1       2.346  -4.916   2.743  0.00  0.00    +0.231 C 
ATOM     11  O   UNL     1       2.841  -4.085   3.475  0.00  0.00    -0.274 OA
ATOM     12  N   UNL     1       1.598  -4.433   1.796  0.00  0.00    -0.269 N 
ATOM     13  C   UNL     1       3.145  -6.382   4.528  0.00  0.00    +0.029 C 
ATOM     14  H   UNL     1       1.618  -3.464   1.765  0.00  0.00    +0.156 HD
ENDROOT
BRANCH   7  15
ATOM     15  C   UNL     1       0.026  -8.625   0.796  0.00  0.00    -0.026 A 
ATOM     16  C   UNL     1      -1.265  -8.509   1.277  0.00  0.00    +0.009 A 
ATOM     17  C   UNL     1      -2.191  -9.505   1.028  0.00  0.00    +0.050 A 
ATOM     18  C   UNL     1      -1.826 -10.623   0.295  0.00  0.00    +0.166 A 
ATOM     19  C   UNL     1      -0.525 -10.740  -0.189  0.00  0.00    +0.167 A 
ATOM     20  C   UNL     1       0.395  -9.735   0.059  0.00  0.00    +0.054 A 
ATOM     21  O   UNL     1      -0.418 -11.917  -0.872  0.00  0.00    -0.453 OA
ATOM     22  C   UNL     1      -1.546 -12.708  -0.453  0.00  0.00    +0.466 C 
ATOM     23  O   UNL     1      -2.533 -11.728  -0.084  0.00  0.00    -0.453 OA
ENDBRANCH   7  15
BRANCH   1  28
ATOM     24  C   UNL     1      -0.016   1.503   0.008  0.00  0.00    +0.044 C 
ATOM     25  C   UNL     1       0.004  -0.004   0.001  0.00  0.00    -0.050 A 
ATOM     26  C   UNL     1       1.204  -0.679   0.125  0.00  0.00    +0.005 A 
ATOM     27  C   UNL     1       1.226  -2.060   0.118  0.00  0.00    +0.028 A 
ATOM     28  C   UNL     1       0.040  -2.771  -0.013  0.00  0.00    +0.067 A 
ATOM     29  C   UNL     1      -1.164  -2.090  -0.137  0.00  0.00    +0.028 A 
ATOM     30  C   UNL     1      -1.179  -0.709  -0.125  0.00  0.00    +0.005 A 
ENDBRANCH   1  28
TORSDOF 2
