REMARK  Name = ZINC03557953
REMARK  8 active torsions:
REMARK  status: ('A' for Active; 'I' for Inactive)
REMARK    1  A    between atoms: C_1  and  C_2
REMARK    2  A    between atoms: C_7  and  N_8
REMARK    3  A    between atoms: C_9  and  C_29
REMARK    4  A    between atoms: C_12  and  S_13
REMARK    5  A    between atoms: S_13  and  C_14
REMARK    6  A    between atoms: C_14  and  C_16
REMARK    7  A    between atoms: C_14  and  C_22
REMARK    8  A    between atoms: N_27  and  C_28
REMARK                            x       y       z     vdW  Elec       q    Type
REMARK                         _______ _______ _______ _____ _____    ______ ____
ROOT
ATOM      1  N   UNL     1      -6.429   1.006   1.041  0.00  0.00    -0.270 N 
ATOM      2  C   UNL     1      -7.095  -0.194   0.911  0.00  0.00    +0.169 A 
ATOM      3  N   UNL     1      -6.222  -1.073   0.476  0.00  0.00    -0.128 NA
ATOM      4  N   UNL     1      -5.075  -0.515   0.323  0.00  0.00    -0.122 NA
ATOM      5  C   UNL     1      -5.141   0.755   0.658  0.00  0.00    +0.197 A 
ENDROOT
BRANCH   1  12
ATOM      6  C   UNL     1      -6.360   1.589   3.826  0.00  0.00    +0.046 C 
ATOM      7  C   UNL     1      -6.948   2.551   2.826  0.00  0.00    -0.026 A 
ATOM      8  C   UNL     1      -7.469   3.757   3.251  0.00  0.00    +0.005 A 
ATOM      9  C   UNL     1      -8.013   4.638   2.335  0.00  0.00    +0.000 A 
ATOM     10  C   UNL     1      -8.033   4.317   0.990  0.00  0.00    +0.002 A 
ATOM     11  C   UNL     1      -7.509   3.114   0.558  0.00  0.00    +0.026 A 
ATOM     12  C   UNL     1      -6.961   2.228   1.476  0.00  0.00    +0.053 A 
ENDBRANCH   1  12
BRANCH   2  13
ATOM     13  C   UNL     1      -8.521  -0.444   1.205  0.00  0.00    +0.022 A 
ATOM     14  C   UNL     1      -9.272   0.471   1.954  0.00  0.00    +0.031 A 
ATOM     15  C   UNL     1     -10.601   0.200   2.202  0.00  0.00    +0.111 A 
ATOM     16  N   UNL     1     -11.162  -0.907   1.752  0.00  0.00    -0.263 NA
ATOM     17  C   UNL     1     -10.490  -1.797   1.046  0.00  0.00    +0.111 A 
ATOM     18  C   UNL     1      -9.158  -1.604   0.748  0.00  0.00    +0.031 A 
ENDBRANCH   2  13
BRANCH   5  19
ATOM     19  S   UNL     1      -3.818   1.918   0.614  0.00  0.00    -0.068 S 
BRANCH  19  20
ATOM     20  C   UNL     1      -2.482   0.853   0.018  0.00  0.00    +0.170 C 
BRANCH  20  21
ATOM     21  C   UNL     1      -1.187   1.624   0.017  0.00  0.00    +0.238 C 
ATOM     22  O   UNL     1      -1.204   2.836   0.023  0.00  0.00    -0.274 OA
ATOM     23  N   UNL     1      -0.011   0.966   0.007  0.00  0.00    -0.239 N 
ATOM     24  C   UNL     1       1.147   1.655   0.000  0.00  0.00    +0.306 C 
ATOM     25  O   UNL     1       1.130   2.871   0.007  0.00  0.00    -0.252 OA
ATOM     26  N   UNL     1       2.323   0.998  -0.015  0.00  0.00    -0.302 N 
ATOM     27  C   UNL     1       3.582   1.747  -0.023  0.00  0.00    +0.129 C 
ATOM     28  H   UNL     1       0.002  -0.004   0.002  0.00  0.00    +0.159 HD
ATOM     29  H   UNL     1       2.336   0.028  -0.020  0.00  0.00    +0.150 HD
ENDBRANCH  20  21
BRANCH  20  30
ATOM     30  C   UNL     1      -2.794   0.391  -1.382  0.00  0.00    -0.025 A 
ATOM     31  C   UNL     1      -2.964   1.318  -2.393  0.00  0.00    +0.005 A 
ATOM     32  C   UNL     1      -3.246   0.895  -3.679  0.00  0.00    +0.000 A 
ATOM     33  C   UNL     1      -3.367  -0.455  -3.951  0.00  0.00    +0.000 A 
ATOM     34  C   UNL     1      -3.202  -1.382  -2.938  0.00  0.00    +0.000 A 
ATOM     35  C   UNL     1      -2.915  -0.959  -1.654  0.00  0.00    +0.005 A 
ENDBRANCH  20  30
ENDBRANCH  19  20
ENDBRANCH   5  19
TORSDOF 6
