REMARK  Name = ZINC63142289
REMARK  7 active torsions:
REMARK  status: ('A' for Active; 'I' for Inactive)
REMARK    1  A    between atoms: C_1  and  O_2
REMARK    2  A    between atoms: O_2  and  C_3
REMARK    3  A    between atoms: C_3  and  C_5
REMARK    4  A    between atoms: C_8  and  C_11
REMARK    5  A    between atoms: N_30  and  C_33
REMARK    6  A    between atoms: C_33  and  C_34
REMARK    7  A    between atoms: C_34  and  C_35
REMARK                            x       y       z     vdW  Elec       q    Type
REMARK                         _______ _______ _______ _____ _____    ______ ____
ROOT
ATOM      1  C   UNL     1       0.851  -6.357   1.260  0.00  0.00    +0.133 C 
ATOM      2  C   UNL     1       2.216  -6.821   0.751  0.00  0.00    +0.131 C 
ATOM      3  C   UNL     1       3.204  -6.525   1.877  0.00  0.00    -0.034 C 
ATOM      4  C   UNL     1       4.092  -5.669   1.391  0.00  0.00    -0.001 A 
ATOM      5  C   UNL     1       5.285  -5.049   1.991  0.00  0.00    +0.010 A 
ATOM      6  C   UNL     1       5.983  -4.197   1.194  0.00  0.00    +0.001 A 
ATOM      7  C   UNL     1       5.619  -3.905  -0.124  0.00  0.00    +0.002 A 
ATOM      8  C   UNL     1       4.539  -4.429  -0.756  0.00  0.00    +0.026 A 
ATOM      9  C   UNL     1       3.727  -5.341  -0.021  0.00  0.00    +0.043 A 
ATOM     10  N   UNL     1       2.646  -5.999  -0.388  0.00  0.00    -0.375 N 
ATOM     11  C   UNL     1       3.043  -7.144   3.238  0.00  0.00    +0.065 C 
ATOM     12  C   UNL     1       1.588  -7.144   3.631  0.00  0.00    +0.167 C 
ATOM     13  N   UNL     1       0.608  -6.787   2.629  0.00  0.00    -0.279 N 
ATOM     14  C   UNL     1      -0.699  -6.817   3.051  0.00  0.00    +0.234 C 
ATOM     15  O   UNL     1      -1.617  -6.604   2.288  0.00  0.00    -0.274 OA
ATOM     16  C   UNL     1      -0.940  -7.129   4.513  0.00  0.00    +0.203 C 
ATOM     17  N   UNL     1       0.026  -6.360   5.320  0.00  0.00    -0.291 N 
ATOM     18  C   UNL     1       1.320  -6.373   4.899  0.00  0.00    +0.237 C 
ATOM     19  O   UNL     1       2.201  -5.803   5.507  0.00  0.00    -0.274 OA
ATOM     20  H   UNL     1       2.204  -5.954  -1.251  0.00  0.00    +0.160 HD
ENDROOT
BRANCH   1  24
ATOM     21  C   UNL     1       0.680  -2.088   1.091  0.00  0.00    +0.059 A 
ATOM     22  C   UNL     1       0.101  -2.854   0.077  0.00  0.00    +0.015 A 
ATOM     23  C   UNL     1       0.160  -4.231   0.138  0.00  0.00    +0.006 A 
ATOM     24  C   UNL     1       0.791  -4.853   1.200  0.00  0.00    -0.025 A 
ATOM     25  C   UNL     1       1.366  -4.100   2.209  0.00  0.00    +0.006 A 
ATOM     26  C   UNL     1       1.320  -2.722   2.157  0.00  0.00    +0.015 A 
BRANCH  21  27
ATOM     27  C   UNL     1       0.620  -0.613   1.032  0.00  0.00    +0.339 C 
ATOM     28  O   UNL     1       1.129   0.051   1.913  0.00  0.00    -0.245 OA
BRANCH  27  30
ATOM     29  C   UNL     1      -0.017   1.425   0.010  0.00  0.00    +0.280 C 
ATOM     30  O   UNL     1       0.002  -0.004   0.002  0.00  0.00    -0.464 OA
ENDBRANCH  27  30
ENDBRANCH  21  27
ENDBRANCH   1  24
BRANCH  17  31
ATOM     31  C   UNL     1      -0.388  -5.619   6.514  0.00  0.00    +0.112 C 
BRANCH  31  32
ATOM     32  C   UNL     1      -0.281  -6.527   7.740  0.00  0.00    +0.049 C 
BRANCH  32  33
ATOM     33  C   UNL     1      -0.707  -5.764   8.969  0.00  0.00    -0.072 C 
ATOM     34  C   UNL     1      -1.935  -5.884   9.362  0.00  0.00    -0.028 C 
ATOM     35  C   UNL     1      -2.506  -5.181  10.558  0.00  0.00    +0.027 C 
ATOM     36  C   UNL     1      -1.379  -4.671  11.459  0.00  0.00    +0.004 C 
ATOM     37  C   UNL     1      -0.369  -3.912  10.590  0.00  0.00    +0.005 C 
ATOM     38  C   UNL     1       0.319  -4.918   9.662  0.00  0.00    +0.030 C 
ENDBRANCH  32  33
ENDBRANCH  31  32
ENDBRANCH  17  31
TORSDOF 6
