REMARK  Name = ZINC25574404
REMARK  13 active torsions:
REMARK  status: ('A' for Active; 'I' for Inactive)
REMARK    1  A    between atoms: C_1  and  C_2
REMARK    2  A    between atoms: C_2  and  C_3
REMARK    3  A    between atoms: C_3  and  C_4
REMARK    4  A    between atoms: C_4  and  N_5
REMARK    5  A    between atoms: N_5  and  C_6
REMARK    6  A    between atoms: N_5  and  C_7
REMARK    7  A    between atoms: C_7  and  C_8
REMARK    8  A    between atoms: C_10  and  C_28
REMARK    9  A    between atoms: C_15  and  C_17
REMARK   10  A    between atoms: C_18  and  C_27
REMARK   11  A    between atoms: N_22  and  N_23
REMARK   12  A    between atoms: C_24  and  C_26
REMARK   13  A    between atoms: C_33  and  O_34
REMARK                            x       y       z     vdW  Elec       q    Type
REMARK                         _______ _______ _______ _____ _____    ______ ____
ROOT
ATOM      1  C   UNL     1       2.276  -4.474  -3.728  0.00  0.00    +0.112 C 
ATOM      2  C   UNL     1       2.191  -5.972  -3.937  0.00  0.00    +0.081 C 
ATOM      3  N   UNL     1       1.753  -6.160  -5.141  0.00  0.00    -0.173 NA
ATOM      4  N   UNL     1       1.515  -4.969  -5.820  0.00  0.00    -0.122 N 
ATOM      5  C   UNL     1       1.804  -3.897  -5.048  0.00  0.00    +0.249 C 
ATOM      6  O   UNL     1       1.705  -2.726  -5.345  0.00  0.00    -0.273 OA
ATOM      7  C   UNL     1       1.057  -4.894  -7.085  0.00  0.00    +0.281 C 
ATOM      8  O   UNL     1       0.876  -3.807  -7.603  0.00  0.00    -0.267 OA
ENDROOT
BRANCH   7   9
ATOM      9  C   UNL     1       0.785  -6.079  -7.812  0.00  0.00    +0.100 A 
ATOM     10  C   UNL     1       0.319  -6.236  -9.112  0.00  0.00    +0.060 A 
ATOM     11  N   UNL     1       0.159  -7.467  -9.527  0.00  0.00    -0.228 NA
ATOM     12  C   UNL     1       0.428  -8.499  -8.747  0.00  0.00    +0.175 A 
ATOM     13  S   UNL     1       0.954  -7.786  -7.316  0.00  0.00    -0.046 S 
ATOM     14  N   UNL     1       0.311  -9.841  -9.038  0.00  0.00    -0.243 N 
ATOM     15  C   UNL     1       0.013  -5.053  -9.995  0.00  0.00    +0.067 C 
ATOM     16  H   UNL     1       0.544 -10.504  -8.370  0.00  0.00    +0.172 HD
BRANCH  14  17
ATOM     17  N   UNL     1      -0.144 -10.247 -10.299  0.00  0.00    -0.235 N 
ATOM     18  C   UNL     1      -0.258 -11.560 -10.584  0.00  0.00    +0.226 C 
ATOM     19  O   UNL     1       0.033 -12.389  -9.748  0.00  0.00    -0.275 OA
ATOM     20  C   UNL     1      -0.747 -11.996 -11.941  0.00  0.00    +0.110 C 
ATOM     21  H   UNL     1      -0.376  -9.584 -10.968  0.00  0.00    +0.173 HD
ENDBRANCH  14  17
ENDBRANCH   7   9
BRANCH   2  22
ATOM     22  C   UNL     1       2.540  -7.016  -2.957  0.00  0.00    +0.040 A 
ATOM     23  C   UNL     1       2.997  -6.661  -1.686  0.00  0.00    +0.013 A 
ATOM     24  C   UNL     1       3.321  -7.643  -0.773  0.00  0.00    +0.001 A 
ATOM     25  C   UNL     1       3.195  -8.979  -1.112  0.00  0.00    +0.004 A 
ATOM     26  C   UNL     1       2.745  -9.343  -2.366  0.00  0.00    +0.046 A 
ATOM     27  C   UNL     1       2.409  -8.370  -3.293  0.00  0.00    +0.126 A 
BRANCH  27  28
ATOM     28  O   UNL     1       1.961  -8.727  -4.525  0.00  0.00    -0.506 OA
ATOM     29  H   UNL     1       2.662  -8.836  -5.182  0.00  0.00    +0.292 HD
ENDBRANCH  27  28
ENDBRANCH   2  22
BRANCH   1  30
ATOM     30  C   UNL     1       1.354  -4.037  -2.588  0.00  0.00    -0.060 C 
BRANCH  30  31
ATOM     31  N   UNL     1       1.459  -2.583  -2.404  0.00  0.00    +0.379 N 
ATOM     32  C   UNL     1       0.472  -2.143  -1.409  0.00  0.00    -0.096 C 
ATOM     33  H   UNL     1       1.281  -2.119  -3.282  0.00  0.00    -0.082 HD
BRANCH  31  34
ATOM     34  C   UNL     1       2.810  -2.245  -1.937  0.00  0.00    -0.079 C 
BRANCH  34  35
ATOM     35  C   UNL     1       2.959  -0.724  -1.864  0.00  0.00    -0.019 C 
BRANCH  35  37
ATOM     36  C   UNL     1       4.515   1.149  -1.305  0.00  0.00    +0.004 C 
ATOM     37  C   UNL     1       4.366  -0.372  -1.378  0.00  0.00    -0.005 C 
ENDBRANCH  35  37
ENDBRANCH  34  35
ENDBRANCH  31  34
ENDBRANCH  30  31
ENDBRANCH   1  30
TORSDOF 9
