REMARK  Name = ZINC12064253
REMARK  15 active torsions:
REMARK  status: ('A' for Active; 'I' for Inactive)
REMARK    1  A    between atoms: C_1  and  C_2
REMARK    2  A    between atoms: C_9  and  N_15
REMARK    3  A    between atoms: C_10  and  C_11
REMARK    4  A    between atoms: N_13  and  C_14
REMARK    5  A    between atoms: C_16  and  C_18
REMARK    6  A    between atoms: C_21  and  S_24
REMARK    7  A    between atoms: S_24  and  N_27
REMARK    8  A    between atoms: N_27  and  C_28
REMARK    9  A    between atoms: N_27  and  C_32
REMARK   10  A    between atoms: C_28  and  C_29
REMARK   11  A    between atoms: C_29  and  C_30
REMARK   12  A    between atoms: C_29  and  C_31
REMARK   13  A    between atoms: C_32  and  C_33
REMARK   14  A    between atoms: C_33  and  C_34
REMARK   15  A    between atoms: C_33  and  C_35
REMARK                            x       y       z     vdW  Elec       q    Type
REMARK                         _______ _______ _______ _____ _____    ______ ____
ROOT
ATOM      1  N   UNL     1       4.659  -5.604  -0.896  0.00  0.00    -0.275 N 
ATOM      2  C   UNL     1       4.653  -5.817  -2.227  0.00  0.00    +0.249 C 
ATOM      3  O   UNL     1       4.788  -4.882  -2.993  0.00  0.00    -0.270 OA
ATOM      4  H   UNL     1       4.552  -6.349  -0.285  0.00  0.00    +0.156 HD
ENDROOT
BRANCH   1  12
ATOM      5  C   UNL     1       5.492   1.798   1.489  0.00  0.00    +0.008 C 
ATOM      6  C   UNL     1       5.016   0.346   1.411  0.00  0.00    -0.009 C 
ATOM      7  C   UNL     1       5.734  -0.488   2.475  0.00  0.00    +0.008 C 
ATOM      8  C   UNL     1       5.092  -1.873   2.571  0.00  0.00    +0.037 C 
ATOM      9  C   UNL     1       5.035  -2.485   1.176  0.00  0.00    -0.023 A 
ATOM     10  C   UNL     1       5.153  -1.714   0.074  0.00  0.00    -0.004 A 
ATOM     11  S   UNL     1       5.027  -2.843  -1.284  0.00  0.00    -0.077 S 
ATOM     12  C   UNL     1       4.820  -4.320  -0.401  0.00  0.00    +0.085 A 
ATOM     13  C   UNL     1       4.853  -3.904   0.923  0.00  0.00    +0.069 A 
ATOM     14  C   UNL     1       5.346  -0.229   0.026  0.00  0.00    +0.046 C 
BRANCH  13  15
ATOM     15  C   UNL     1       4.711  -4.861   2.024  0.00  0.00    +0.246 C 
ATOM     16  O   UNL     1       3.607  -5.121   2.465  0.00  0.00    -0.270 OA
ATOM     17  N   UNL     1       5.803  -5.452   2.549  0.00  0.00    -0.314 N 
ATOM     18  C   UNL     1       5.660  -6.408   3.649  0.00  0.00    +0.128 C 
ATOM     19  H   UNL     1       6.682  -5.244   2.197  0.00  0.00    +0.149 HD
ENDBRANCH  13  15
ENDBRANCH   1  12
BRANCH   2  20
ATOM     20  C   UNL     1       4.482  -7.186  -2.755  0.00  0.00    +0.037 A 
ATOM     21  C   UNL     1       4.332  -8.262  -1.879  0.00  0.00    +0.015 A 
ATOM     22  C   UNL     1       4.168  -9.537  -2.378  0.00  0.00    +0.029 A 
ATOM     23  C   UNL     1       4.162  -9.753  -3.745  0.00  0.00    +0.106 A 
ATOM     24  C   UNL     1       4.315  -8.691  -4.620  0.00  0.00    +0.029 A 
ATOM     25  C   UNL     1       4.474  -7.410  -4.133  0.00  0.00    +0.015 A 
BRANCH  23  26
ATOM     26  S   UNL     1       3.957 -11.386  -4.375  0.00  0.00    +0.061 S 
ATOM     27  O   UNL     1       3.288 -12.129  -3.366  0.00  0.00    -0.153 OA
ATOM     28  O   UNL     1       3.440 -11.251  -5.692  0.00  0.00    -0.153 OA
BRANCH  26  29
ATOM     29  N   UNL     1       5.468 -12.045  -4.525  0.00  0.00    -0.176 NA
BRANCH  29  30
ATOM     30  C   UNL     1       6.059 -12.784  -3.407  0.00  0.00    +0.112 C 
BRANCH  30  31
ATOM     31  C   UNL     1       6.010 -14.284  -3.704  0.00  0.00    -0.001 C 
ATOM     32  C   UNL     1       6.738 -15.048  -2.596  0.00  0.00    +0.008 C 
ATOM     33  C   UNL     1       4.552 -14.744  -3.768  0.00  0.00    +0.008 C 
ENDBRANCH  30  31
ENDBRANCH  29  30
BRANCH  29  34
ATOM     34  C   UNL     1       6.215 -11.890  -5.776  0.00  0.00    +0.112 C 
BRANCH  34  35
ATOM     35  C   UNL     1       7.109 -10.652  -5.686  0.00  0.00    -0.001 C 
ATOM     36  C   UNL     1       8.134 -10.844  -4.566  0.00  0.00    +0.008 C 
ATOM     37  C   UNL     1       7.839 -10.453  -7.016  0.00  0.00    +0.008 C 
ENDBRANCH  34  35
ENDBRANCH  29  34
ENDBRANCH  26  29
ENDBRANCH  23  26
ENDBRANCH   2  20
TORSDOF 9
