REMARK  Name = ZINC36093609
REMARK  7 active torsions:
REMARK  status: ('A' for Active; 'I' for Inactive)
REMARK    1  A    between atoms: C_1  and  N_2
REMARK    2  A    between atoms: C_10  and  O_34
REMARK    3  A    between atoms: C_12  and  C_15
REMARK    4  A    between atoms: C_19  and  O_21
REMARK    5  A    between atoms: O_21  and  C_22
REMARK    6  A    between atoms: C_25  and  N_31
REMARK    7  A    between atoms: C_27  and  N_28
REMARK                            x       y       z     vdW  Elec       q    Type
REMARK                         _______ _______ _______ _____ _____    ______ ____
ROOT
ATOM      1  C   UNL     1       1.306  -7.163   0.143  0.00  0.00    -0.002 A 
ATOM      2  C   UNL     1       2.626  -6.911   0.470  0.00  0.00    +0.007 A 
ATOM      3  C   UNL     1       3.613  -7.030  -0.490  0.00  0.00    +0.004 A 
ATOM      4  C   UNL     1       3.283  -7.402  -1.779  0.00  0.00    +0.046 A 
ATOM      5  C   UNL     1       1.960  -7.655  -2.110  0.00  0.00    +0.129 A 
ATOM      6  C   UNL     1       0.972  -7.540  -1.142  0.00  0.00    +0.053 A 
ENDROOT
BRANCH   1  18
ATOM      7  C   UNL     1      -0.533   1.281   0.223  0.00  0.00    -0.096 C 
ATOM      8  N   UNL     1      -0.434  -0.184   0.181  0.00  0.00    +0.381 N 
ATOM      9  C   UNL     1      -1.782  -0.766   0.175  0.00  0.00    -0.074 C 
ATOM     10  C   UNL     1      -1.714  -2.255  -0.181  0.00  0.00    +0.018 C 
ATOM     11  C   UNL     1      -0.699  -2.912   0.745  0.00  0.00    -0.027 A 
ATOM     12  C   UNL     1       0.191  -2.150   1.425  0.00  0.00    -0.021 A 
ATOM     13  S   UNL     1       1.152  -3.305   2.360  0.00  0.00    -0.080 S 
ATOM     14  C   UNL     1       0.426  -4.717   1.879  0.00  0.00    +0.080 A 
ATOM     15  C   UNL     1      -0.585  -4.336   0.988  0.00  0.00    +0.067 A 
ATOM     16  C   UNL     1      -1.423  -5.413   0.402  0.00  0.00    +0.220 C 
ATOM     17  N   UNL     1      -1.017  -6.645   0.549  0.00  0.00    -0.223 NA
ATOM     18  C   UNL     1       0.232  -7.032   1.193  0.00  0.00    +0.224 C 
ATOM     19  N   UNL     1       0.659  -6.037   2.194  0.00  0.00    -0.313 N 
ATOM     20  C   UNL     1       0.305  -0.660   1.366  0.00  0.00    -0.036 C 
ATOM     21  H   UNL     1       1.080  -6.298   3.027  0.00  0.00    +0.149 HD
ATOM     22  H   UNL     1       0.057  -0.464  -0.655  0.00  0.00    -0.082 HD
BRANCH  16  23
ATOM     23  O   UNL     1      -2.568  -5.128  -0.261  0.00  0.00    -0.492 OA
ATOM     24  H   UNL     1      -3.031  -5.907  -0.599  0.00  0.00    +0.294 HD
ENDBRANCH  16  23
ENDBRANCH   1  18
BRANCH   5  25
ATOM     25  O   UNL     1       1.633  -8.020  -3.377  0.00  0.00    -0.454 OA
BRANCH  25  26
ATOM     26  C   UNL     1       0.904  -7.149  -4.123  0.00  0.00    +0.159 A 
ATOM     27  C   UNL     1       0.625  -5.880  -3.636  0.00  0.00    +0.051 A 
ATOM     28  C   UNL     1      -0.116  -4.997  -4.397  0.00  0.00    +0.036 A 
ATOM     29  C   UNL     1      -0.580  -5.377  -5.643  0.00  0.00    +0.129 A 
ATOM     30  C   UNL     1      -0.304  -6.640  -6.131  0.00  0.00    +0.069 A 
ATOM     31  C   UNL     1       0.441  -7.526  -5.376  0.00  0.00    +0.170 A 
BRANCH  31  32
ATOM     32  N   UNL     1       0.742  -8.877  -5.901  0.00  0.00    +0.060 N 
ATOM     33  O   UNL     1       0.338  -9.204  -6.993  0.00  0.00    -0.126 OA
ATOM     34  O   UNL     1       1.390  -9.652  -5.239  0.00  0.00    -0.126 OA
ENDBRANCH  31  32
BRANCH  29  35
ATOM     35  N   UNL     1      -1.375  -4.428  -6.456  0.00  0.00    +0.057 N 
ATOM     36  O   UNL     1      -1.617  -3.323  -6.030  0.00  0.00    -0.126 OA
ATOM     37  O   UNL     1      -1.781  -4.759  -7.545  0.00  0.00    -0.126 OA
ENDBRANCH  29  35
ENDBRANCH  25  26
ENDBRANCH   5  25
TORSDOF 6
