REMARK  Name = ZINC29167803
REMARK  4 active torsions:
REMARK  status: ('A' for Active; 'I' for Inactive)
REMARK    1  A    between atoms: C_5  and  C_6
REMARK    2  A    between atoms: C_6  and  N_7
REMARK    3  A    between atoms: C_8  and  C_10
REMARK    4  A    between atoms: C_10  and  N_11
REMARK                            x       y       z     vdW  Elec       q    Type
REMARK                         _______ _______ _______ _____ _____    ______ ____
ROOT
ATOM      1  N   UNL     1       4.242  -0.538  -1.424  0.00  0.00    -0.309 N 
ATOM      2  C   UNL     1       5.498  -0.951  -1.685  0.00  0.00    +0.231 C 
ATOM      3  O   UNL     1       6.256  -1.202  -0.772  0.00  0.00    -0.274 OA
ATOM      4  H   UNL     1       3.554  -0.310  -2.252  0.00  0.00    +0.149 HD
ENDROOT
BRANCH   1   5
ATOM      5  C   UNL     1       3.791  -0.394  -0.037  0.00  0.00    +0.146 C 
BRANCH   5  10
ATOM      6  C   UNL     1       1.220  -0.657  -0.013  0.00  0.00    +0.014 A 
ATOM      7  C   UNL     1       0.002  -0.004   0.002  0.00  0.00    +0.023 A 
ATOM      8  C   UNL     1      -0.016   1.352   0.009  0.00  0.00    +0.055 A 
ATOM      9  S   UNL     1       1.725   1.745  -0.005  0.00  0.00    -0.085 S 
ATOM     10  C   UNL     1       2.360   0.076  -0.020  0.00  0.00    +0.008 A 
ATOM     11 BR   UNL     1      -1.501   2.523   0.023  0.00  0.00    -0.043 Br
ENDBRANCH   5  10
ENDBRANCH   1   5
BRANCH   2  12
ATOM     12  C   UNL     1       5.961  -1.099  -3.111  0.00  0.00    +0.201 C 
BRANCH  12  13
ATOM     13  N   UNL     1       7.353  -1.556  -3.127  0.00  0.00    -0.291 N 
ATOM     14  C   UNL     1       7.981  -1.760  -4.302  0.00  0.00    +0.297 C 
ATOM     15  O   UNL     1       7.394  -1.564  -5.348  0.00  0.00    -0.253 OA
ATOM     16  N   UNL     1       9.262  -2.181  -4.317  0.00  0.00    -0.313 N 
ATOM     17  H   UNL     1       7.885  -1.734  -2.181  0.00  0.00    +0.151 HD
ATOM     18  H   UNL     1       9.775  -2.347  -5.276  0.00  0.00    +0.146 HD
ATOM     19  H   UNL     1       9.794  -2.358  -3.371  0.00  0.00    +0.146 HD
ENDBRANCH  12  13
ENDBRANCH   2  12
TORSDOF 4
