REMARK  Name = ZINC02277969
REMARK  9 active torsions:
REMARK  status: ('A' for Active; 'I' for Inactive)
REMARK    1  A    between atoms: C_1  and  C_2
REMARK    2  A    between atoms: C_2  and  C_3
REMARK    3  A    between atoms: C_3  and  C_4
REMARK    4  A    between atoms: C_4  and  N_5
REMARK    5  A    between atoms: C_19  and  C_34
REMARK    6  A    between atoms: C_20  and  C_30
REMARK    7  A    between atoms: C_21  and  C_23
REMARK    8  A    between atoms: C_30  and  O_32
REMARK    9  A    between atoms: O_32  and  C_33
REMARK                            x       y       z     vdW  Elec       q    Type
REMARK                         _______ _______ _______ _____ _____    ______ ____
ROOT
ATOM      1  N   UNL     1      -0.316   3.413  -6.723  0.00  0.00    -0.267 N 
ATOM      2  C   UNL     1      -0.474   4.793  -6.759  0.00  0.00    +0.044 A 
ATOM      3  C   UNL     1      -0.405   5.704  -7.806  0.00  0.00    +0.024 A 
ATOM      4  C   UNL     1      -0.605   7.050  -7.569  0.00  0.00    +0.002 A 
ATOM      5  C   UNL     1      -0.877   7.509  -6.291  0.00  0.00    +0.001 A 
ATOM      6  C   UNL     1      -0.951   6.621  -5.238  0.00  0.00    +0.010 A 
ATOM      7  C   UNL     1      -0.750   5.262  -5.466  0.00  0.00    +0.010 A 
ATOM      8  C   UNL     1      -0.758   4.076  -4.584  0.00  0.00    +0.065 C 
ATOM      9  C   UNL     1      -0.985   4.042  -3.222  0.00  0.00    +0.093 A 
ATOM     10  C   UNL     1      -1.004   2.884  -2.299  0.00  0.00    +0.269 A 
ATOM     11  O   UNL     1      -0.800   1.756  -2.702  0.00  0.00    -0.266 OA
ATOM     12  N   UNL     1      -1.252   3.124  -1.004  0.00  0.00    -0.275 N 
ATOM     13  C   UNL     1      -1.474   4.421  -0.602  0.00  0.00    +0.178 A 
ATOM     14  N   UNL     1      -1.726   4.771   0.632  0.00  0.00    -0.228 NA
ATOM     15  C   UNL     1      -1.800   3.931   1.658  0.00  0.00    +0.053 C 
ATOM     16  C   UNL     1      -1.610   2.592   1.475  0.00  0.00    +0.085 C 
ATOM     17  C   UNL     1      -1.313   2.100   0.077  0.00  0.00    +0.162 C 
ATOM     18  C   UNL     1      -2.098   4.461   3.037  0.00  0.00    +0.066 C 
ATOM     19  S   UNL     1      -1.335   5.383  -2.096  0.00  0.00    -0.045 S 
ATOM     20  C   UNL     1      -0.465   2.934  -5.476  0.00  0.00    +0.253 C 
ATOM     21  O   UNL     1      -0.377   1.768  -5.141  0.00  0.00    -0.270 OA
ENDROOT
BRANCH  17  22
ATOM     22  C   UNL     1       0.010   1.380   0.109  0.00  0.00    -0.020 A 
ATOM     23  C   UNL     1       1.189   2.100   0.085  0.00  0.00    +0.007 A 
ATOM     24  C   UNL     1       2.403   1.440   0.108  0.00  0.00    +0.020 A 
ATOM     25  C   UNL     1       2.438   0.057   0.157  0.00  0.00    +0.041 A 
ATOM     26  C   UNL     1       1.257  -0.663   0.182  0.00  0.00    +0.020 A 
ATOM     27  C   UNL     1       0.043  -0.001   0.158  0.00  0.00    +0.007 A 
ATOM     28 CL   UNL     1       3.962  -0.773   0.187  0.00  0.00    -0.084 Cl
ENDBRANCH  17  22
BRANCH  16  29
ATOM     29  C   UNL     1      -1.687   1.695   2.556  0.00  0.00    +0.339 C 
ATOM     30  O   UNL     1      -1.820   2.118   3.690  0.00  0.00    -0.245 OA
BRANCH  29  31
ATOM     31  O   UNL     1      -1.614   0.364   2.337  0.00  0.00    -0.465 OA
ATOM     32  C   UNL     1      -1.700  -0.488   3.480  0.00  0.00    +0.280 C 
ENDBRANCH  29  31
ENDBRANCH  16  29
BRANCH   1  33
ATOM     33  C   UNL     1      -0.018   2.585  -7.895  0.00  0.00    +0.114 C 
BRANCH  33  34
ATOM     34  C   UNL     1       1.498   2.465  -8.062  0.00  0.00    +0.019 C 
BRANCH  34  36
ATOM     35  C   UNL     1       3.325   1.481  -9.454  0.00  0.00    +0.004 C 
ATOM     36  C   UNL     1       1.809   1.601  -9.286  0.00  0.00    -0.002 C 
ENDBRANCH  34  36
ENDBRANCH  33  34
ENDBRANCH   1  33
TORSDOF 6
