REMARK  Name = ZINC20463199
REMARK  6 active torsions:
REMARK  status: ('A' for Active; 'I' for Inactive)
REMARK    1  A    between atoms: C_1  and  C_2
REMARK    2  A    between atoms: C_4  and  C_18
REMARK    3  A    between atoms: C_12  and  C_14
REMARK    4  A    between atoms: C_14  and  C_15
REMARK    5  A    between atoms: C_15  and  C_16
REMARK    6  A    between atoms: C_15  and  C_17
REMARK                            x       y       z     vdW  Elec       q    Type
REMARK                         _______ _______ _______ _____ _____    ______ ____
ROOT
ATOM      1  C   UNL     1      -0.018   1.503   0.010  0.00  0.00    +0.067 C 
ATOM      2  C   UNL     1       0.002  -0.004   0.002  0.00  0.00    +0.062 A 
ATOM      3  C   UNL     1      -1.203  -0.718   0.004  0.00  0.00    +0.083 A 
ATOM      4  C   UNL     1      -1.169  -2.077  -0.004  0.00  0.00    +0.064 A 
ATOM      5  N   UNL     1       0.035  -2.706  -0.013  0.00  0.00    -0.198 N 
ATOM      6  C   UNL     1       1.193  -1.980  -0.014  0.00  0.00    +0.255 A 
ATOM      7  N   UNL     1       1.150  -0.643  -0.012  0.00  0.00    -0.214 NA
ATOM      8  N   UNL     1       2.202  -2.844  -0.023  0.00  0.00    -0.176 NA
ATOM      9  C   UNL     1       1.729  -4.087  -0.027  0.00  0.00    +0.243 A 
ATOM     10  N   UNL     1       0.413  -4.056  -0.021  0.00  0.00    -0.127 NA
ATOM     11  N   UNL     1       2.508  -5.246  -0.036  0.00  0.00    -0.253 N 
ATOM     12  C   UNL     1       3.852  -5.154  -0.041  0.00  0.00    +0.220 C 
ATOM     13  O   UNL     1       4.386  -4.065  -0.037  0.00  0.00    -0.275 OA
ATOM     14  C   UNL     1      -2.448  -2.873  -0.001  0.00  0.00    +0.067 C 
ATOM     15 CL   UNL     1      -2.722   0.123   0.016  0.00  0.00    -0.080 Cl
ATOM     16  H   UNL     1       2.081  -6.117  -0.039  0.00  0.00    +0.158 HD
ENDROOT
BRANCH  12  17
ATOM     17  C   UNL     1       4.693  -6.405  -0.050  0.00  0.00    +0.099 C 
BRANCH  17  18
ATOM     18  C   UNL     1       6.175  -6.024  -0.054  0.00  0.00    -0.008 C 
ATOM     19  C   UNL     1       7.027  -7.289   0.062  0.00  0.00    +0.008 C 
ATOM     20  C   UNL     1       6.512  -5.300  -1.359  0.00  0.00    +0.008 C 
ENDBRANCH  17  18
ENDBRANCH  12  17
TORSDOF 2
