REMARK  Name = ZINC15906481
REMARK  8 active torsions:
REMARK  status: ('A' for Active; 'I' for Inactive)
REMARK    1  A    between atoms: C_1  and  C_2
REMARK    2  A    between atoms: C_7  and  C_9
REMARK    3  A    between atoms: C_7  and  C_10
REMARK    4  A    between atoms: N_11  and  S_13
REMARK    5  A    between atoms: S_13  and  C_16
REMARK    6  A    between atoms: C_19  and  C_22
REMARK    7  A    between atoms: N_24  and  N_25
REMARK    8  A    between atoms: C_26  and  C_27
REMARK                            x       y       z     vdW  Elec       q    Type
REMARK                         _______ _______ _______ _____ _____    ______ ____
ROOT
ATOM      1  C   UNL     1      -0.620  -2.566  -4.116  0.00  0.00    +0.106 A 
ATOM      2  C   UNL     1      -1.866  -3.148  -4.270  0.00  0.00    +0.029 A 
ATOM      3  C   UNL     1      -2.642  -2.844  -5.369  0.00  0.00    +0.015 A 
ATOM      4  C   UNL     1      -2.168  -1.946  -6.327  0.00  0.00    +0.038 A 
ATOM      5  C   UNL     1      -0.911  -1.361  -6.166  0.00  0.00    +0.015 A 
ATOM      6  C   UNL     1      -0.147  -1.670  -5.059  0.00  0.00    +0.029 A 
ENDROOT
BRANCH   4   7
ATOM      7  C   UNL     1      -2.994  -1.616  -7.508  0.00  0.00    +0.263 C 
ATOM      8  O   UNL     1      -4.089  -2.127  -7.646  0.00  0.00    -0.268 OA
ATOM      9  N   UNL     1      -2.534  -0.748  -8.431  0.00  0.00    -0.203 N 
ATOM     10  H   UNL     1      -1.661  -0.341  -8.320  0.00  0.00    +0.178 HD
BRANCH   9  11
ATOM     11  N   UNL     1      -3.317  -0.435  -9.550  0.00  0.00    -0.187 NA
ATOM     12  C   UNL     1      -2.874   0.401 -10.439  0.00  0.00    +0.140 C 
BRANCH  12  13
ATOM     13  C   UNL     1      -3.696   0.730 -11.615  0.00  0.00    +0.020 A 
ATOM     14  C   UNL     1      -3.366   1.577 -12.627  0.00  0.00    +0.093 A 
ATOM     15  N   UNL     1      -4.381   1.624 -13.536  0.00  0.00    -0.360 N 
ATOM     16  H   UNL     1      -4.377   2.159 -14.345  0.00  0.00    +0.165 HD
ATOM     17  C   UNL     1      -5.414   0.801 -13.141  0.00  0.00    +0.047 A 
ATOM     18  C   UNL     1      -5.035   0.201 -11.929  0.00  0.00    +0.008 A 
ATOM     19  C   UNL     1      -5.894  -0.694 -11.294  0.00  0.00    +0.010 A 
ATOM     20  C   UNL     1      -7.114  -0.988 -11.863  0.00  0.00    +0.001 A 
ATOM     21  C   UNL     1      -7.488  -0.398 -13.062  0.00  0.00    +0.002 A 
ATOM     22  C   UNL     1      -6.652   0.494 -13.696  0.00  0.00    +0.026 A 
ENDBRANCH  12  13
ENDBRANCH   9  11
ENDBRANCH   4   7
BRANCH   1  23
ATOM     23  S   UNL     1       0.365  -2.960  -2.710  0.00  0.00    +0.061 S 
ATOM     24  O   UNL     1       1.714  -2.697  -3.072  0.00  0.00    -0.153 OA
ATOM     25  O   UNL     1      -0.067  -4.235  -2.256  0.00  0.00    -0.153 OA
BRANCH  23  35
ATOM     26  C   UNL     1      -0.019   1.532   0.011  0.00  0.00    +0.012 C 
ATOM     27  C   UNL     1       0.002  -0.004   0.002  0.00  0.00    -0.016 C 
ATOM     28  C   UNL     1      -1.426  -0.614  -0.030  0.00  0.00    +0.028 C 
ATOM     29  C   UNL     1      -1.085  -2.049  -0.505  0.00  0.00    +0.081 C 
ATOM     30  C   UNL     1      -0.498  -2.788   0.698  0.00  0.00    +0.027 C 
ATOM     31  C   UNL     1       0.729  -2.107   1.279  0.00  0.00    -0.033 C 
ATOM     32  C   UNL     1       0.726  -0.591   1.212  0.00  0.00    +0.014 C 
ATOM     33  C   UNL     1       0.804  -2.500   2.775  0.00  0.00    +0.011 C 
ATOM     34  C   UNL     1       1.996  -2.666   0.618  0.00  0.00    +0.011 C 
ATOM     35  N   UNL     1      -0.025  -1.877  -1.519  0.00  0.00    -0.173 NA
ATOM     36  C   UNL     1       0.623  -0.576  -1.293  0.00  0.00    +0.116 C 
ENDBRANCH  23  35
ENDBRANCH   1  23
TORSDOF 5
