REMARK  Name = ZINC39393967
REMARK  9 active torsions:
REMARK  status: ('A' for Active; 'I' for Inactive)
REMARK    1  A    between atoms: C_1  and  O_2
REMARK    2  A    between atoms: O_2  and  C_3
REMARK    3  A    between atoms: C_3  and  C_5
REMARK    4  A    between atoms: N_8  and  C_11
REMARK    5  A    between atoms: C_14  and  C_28
REMARK    6  A    between atoms: N_16  and  C_18
REMARK    7  A    between atoms: N_30  and  C_31
REMARK    8  A    between atoms: C_31  and  C_32
REMARK    9  A    between atoms: C_32  and  C_33
REMARK                            x       y       z     vdW  Elec       q    Type
REMARK                         _______ _______ _______ _____ _____    ______ ____
ROOT
ATOM      1  C   UNL     1      -2.723  -4.842   2.651  0.00  0.00    +0.077 C 
ATOM      2  C   UNL     1      -4.046  -4.085   2.940  0.00  0.00    +0.016 C 
ATOM      3  C   UNL     1      -4.546  -4.806   4.216  0.00  0.00    +0.021 C 
ATOM      4  N   UNL     1      -4.181  -6.225   4.016  0.00  0.00    +0.391 N 
ATOM      5  C   UNL     1      -3.047  -6.291   3.072  0.00  0.00    -0.053 C 
ATOM      6  H   UNL     1      -4.970  -6.729   3.639  0.00  0.00    -0.080 HD
ENDROOT
BRANCH   4   7
ATOM      7  C   UNL     1      -3.786  -6.819   5.300  0.00  0.00    -0.061 C 
ATOM      8  C   UNL     1      -3.279  -8.244   5.068  0.00  0.00    -0.024 C 
ATOM      9  C   UNL     1      -4.392  -9.085   4.438  0.00  0.00    +0.005 C 
ATOM     10  C   UNL     1      -5.599  -9.120   5.377  0.00  0.00    -0.010 C 
ATOM     11  C   UNL     1      -5.188  -9.739   6.714  0.00  0.00    +0.007 C 
ATOM     12  C   UNL     1      -4.075  -8.898   7.344  0.00  0.00    -0.010 C 
ATOM     13  C   UNL     1      -2.868  -8.864   6.405  0.00  0.00    +0.005 C 
ATOM     14  C   UNL     1      -4.582  -7.474   7.576  0.00  0.00    +0.005 C 
ATOM     15  C   UNL     1      -4.994  -6.854   6.239  0.00  0.00    -0.024 C 
ATOM     16  C   UNL     1      -6.106  -7.695   5.609  0.00  0.00    +0.005 C 
ENDBRANCH   4   7
BRANCH   1  19
ATOM     17  C   UNL     1      -1.373  -4.455  -0.870  0.00  0.00    +0.256 C 
ATOM     18  C   UNL     1      -1.136  -4.265   0.643  0.00  0.00    +0.168 C 
ATOM     19  N   UNL     1      -2.391  -4.779   1.226  0.00  0.00    -0.234 N 
ATOM     20  N   UNL     1      -3.202  -5.194   0.169  0.00  0.00    -0.083 NA
ATOM     21  N   UNL     1      -2.714  -5.047  -0.950  0.00  0.00    -0.155 NA
BRANCH  17  22
ATOM     22  C   UNL     1      -1.337  -3.128  -1.581  0.00  0.00    +0.335 C 
ATOM     23  O   UNL     1      -2.368  -2.557  -1.848  0.00  0.00    -0.248 OA
BRANCH  22  25
ATOM     24  C   UNL     1      -0.201  -1.318  -2.591  0.00  0.00    +0.280 C 
ATOM     25  O   UNL     1      -0.160  -2.578  -1.919  0.00  0.00    -0.466 OA
ENDBRANCH  22  25
ENDBRANCH  17  22
ENDBRANCH   1  19
BRANCH   3  26
ATOM     26  C   UNL     1      -6.040  -4.660   4.350  0.00  0.00    +0.200 C 
ATOM     27  O   UNL     1      -6.779  -5.434   3.778  0.00  0.00    -0.278 OA
ATOM     28  N   UNL     1      -6.556  -3.670   5.104  0.00  0.00    -0.316 N 
ATOM     29  H   UNL     1      -5.966  -3.051   5.561  0.00  0.00    +0.149 HD
BRANCH  28  30
ATOM     30  C   UNL     1      -8.008  -3.528   5.234  0.00  0.00    +0.109 C 
BRANCH  30  31
ATOM     31  C   UNL     1      -8.326  -2.335   6.137  0.00  0.00    +0.056 C 
BRANCH  31  32
ATOM     32  C   UNL     1      -9.820  -2.189   6.271  0.00  0.00    -0.021 A 
ATOM     33  C   UNL     1     -10.682  -2.892   7.223  0.00  0.00    +0.003 A 
ATOM     34  C   UNL     1     -10.454  -3.834   8.227  0.00  0.00    +0.010 A 
ATOM     35  C   UNL     1     -11.502  -4.309   8.964  0.00  0.00    +0.001 A 
ATOM     36  C   UNL     1     -12.794  -3.862   8.722  0.00  0.00    +0.002 A 
ATOM     37  C   UNL     1     -13.042  -2.933   7.736  0.00  0.00    +0.026 A 
ATOM     38  C   UNL     1     -11.990  -2.435   6.974  0.00  0.00    +0.047 A 
ATOM     39  N   UNL     1     -11.912  -1.524   5.945  0.00  0.00    -0.360 N 
ATOM     40  C   UNL     1     -10.612  -1.386   5.543  0.00  0.00    +0.087 A 
ATOM     41  H   UNL     1     -12.667  -1.048   5.564  0.00  0.00    +0.165 HD
ENDBRANCH  31  32
ENDBRANCH  30  31
ENDBRANCH  28  30
ENDBRANCH   3  26
TORSDOF 8
