REMARK  Name = ZINC26540776
REMARK  13 active torsions:
REMARK  status: ('A' for Active; 'I' for Inactive)
REMARK    1  A    between atoms: C_1  and  C_2
REMARK    2  A    between atoms: C_2  and  C_3
REMARK    3  A    between atoms: C_3  and  N_4
REMARK    4  A    between atoms: N_4  and  C_5
REMARK    5  A    between atoms: C_8  and  S_25
REMARK    6  A    between atoms: C_10  and  N_11
REMARK    7  A    between atoms: N_11  and  S_12
REMARK    8  A    between atoms: S_12  and  C_15
REMARK    9  A    between atoms: C_18  and  C_21
REMARK   10  A    between atoms: C_21  and  C_22
REMARK   11  A    between atoms: C_21  and  C_23
REMARK   12  A    between atoms: C_21  and  C_24
REMARK   13  A    between atoms: S_25  and  N_28
REMARK                            x       y       z     vdW  Elec       q    Type
REMARK                         _______ _______ _______ _____ _____    ______ ____
ROOT
ATOM      1  C   UNL     1       1.480  -2.570  -2.041  0.00  0.00    +0.050 A 
ATOM      2  C   UNL     1       2.179  -1.780  -2.941  0.00  0.00    +0.027 A 
ATOM      3  C   UNL     1       2.866  -2.367  -3.988  0.00  0.00    +0.030 A 
ATOM      4  C   UNL     1       2.859  -3.741  -4.141  0.00  0.00    +0.107 A 
ATOM      5  C   UNL     1       2.164  -4.536  -3.249  0.00  0.00    +0.054 A 
ATOM      6  C   UNL     1       1.477  -3.957  -2.193  0.00  0.00    +0.071 A 
ENDROOT
BRANCH   4   7
ATOM      7  S   UNL     1       3.736  -4.480  -5.478  0.00  0.00    +0.056 S 
ATOM      8  O   UNL     1       3.125  -5.740  -5.718  0.00  0.00    -0.153 OA
ATOM      9  O   UNL     1       3.853  -3.486  -6.487  0.00  0.00    -0.153 OA
BRANCH   7  10
ATOM     10  N   UNL     1       5.272  -4.793  -4.943  0.00  0.00    -0.204 NA
ATOM     11  H   UNL     1       5.769  -5.542  -5.307  0.00  0.00    +0.144 HD
ATOM     12  H   UNL     1       5.673  -4.228  -4.265  0.00  0.00    +0.144 HD
ENDBRANCH   7  10
ENDBRANCH   4   7
BRANCH   1  13
ATOM     13  N   UNL     1       0.784  -1.979  -0.980  0.00  0.00    -0.342 N 
ATOM     14  H   UNL     1       0.299  -2.533  -0.349  0.00  0.00    +0.146 HD
BRANCH  13  15
ATOM     15  C   UNL     1       0.788  -0.522  -0.823  0.00  0.00    +0.101 C 
BRANCH  15  17
ATOM     16  C   UNL     1      -0.036   1.382   0.568  0.00  0.00    +0.005 C 
ATOM     17  C   UNL     1      -0.041  -0.139   0.404  0.00  0.00    +0.015 C 
ENDBRANCH  15  17
ENDBRANCH  13  15
ENDBRANCH   1  13
BRANCH   6  18
ATOM     18  N   UNL     1       0.778  -4.761  -1.284  0.00  0.00    -0.214 N 
ATOM     19  H   UNL     1      -0.058  -4.449  -0.904  0.00  0.00    +0.174 HD
BRANCH  18  20
ATOM     20  S   UNL     1       1.377  -6.245  -0.861  0.00  0.00    +0.072 S 
ATOM     21  O   UNL     1       0.527  -6.751   0.159  0.00  0.00    -0.150 OA
ATOM     22  O   UNL     1       1.615  -6.948  -2.072  0.00  0.00    -0.150 OA
BRANCH  20  23
ATOM     23  C   UNL     1       2.952  -5.978  -0.116  0.00  0.00    +0.109 A 
ATOM     24  C   UNL     1       4.092  -5.962  -0.898  0.00  0.00    +0.029 A 
ATOM     25  C   UNL     1       5.328  -5.753  -0.314  0.00  0.00    +0.006 A 
ATOM     26  C   UNL     1       5.423  -5.558   1.051  0.00  0.00    -0.042 A 
ATOM     27  C   UNL     1       4.282  -5.572   1.833  0.00  0.00    +0.006 A 
ATOM     28  C   UNL     1       3.047  -5.778   1.248  0.00  0.00    +0.029 A 
BRANCH  26  29
ATOM     29  C   UNL     1       6.769  -5.330   1.688  0.00  0.00    -0.013 C 
ATOM     30  C   UNL     1       7.411  -4.076   1.090  0.00  0.00    +0.015 C 
ATOM     31  C   UNL     1       6.596  -5.144   3.196  0.00  0.00    +0.015 C 
ATOM     32  C   UNL     1       7.670  -6.539   1.423  0.00  0.00    +0.015 C 
ENDBRANCH  26  29
ENDBRANCH  20  23
ENDBRANCH  18  20
ENDBRANCH   6  18
TORSDOF 9
