REMARK  Name = ZINC04082323
REMARK  12 active torsions:
REMARK  status: ('A' for Active; 'I' for Inactive)
REMARK    1  A    between atoms: C_1  and  O_2
REMARK    2  A    between atoms: O_2  and  C_3
REMARK    3  A    between atoms: C_6  and  C_11
REMARK    4  A    between atoms: C_8  and  O_9
REMARK    5  A    between atoms: O_9  and  C_10
REMARK    6  A    between atoms: C_16  and  C_26
REMARK    7  A    between atoms: C_29  and  O_36
REMARK    8  A    between atoms: C_30  and  O_34
REMARK    9  A    between atoms: C_31  and  O_32
REMARK   10  A    between atoms: O_32  and  C_33
REMARK   11  A    between atoms: O_34  and  C_35
REMARK   12  A    between atoms: O_36  and  C_37
REMARK                            x       y       z     vdW  Elec       q    Type
REMARK                         _______ _______ _______ _____ _____    ______ ____
ROOT
ATOM      1  C   UNL     1      -2.203   4.474   3.639  0.00  0.00    +0.032 C 
ATOM      2  C   UNL     1      -0.842   5.057   4.015  0.00  0.00    +0.059 C 
ATOM      3  C   UNL     1       0.242   4.008   3.820  0.00  0.00    +0.017 C 
ATOM      4  C   UNL     1       0.140   3.100   2.839  0.00  0.00    +0.037 C 
ATOM      5  C   UNL     1       1.151   2.029   2.507  0.00  0.00    +0.140 C 
ATOM      6  N   UNL     1       2.184   1.854   3.507  0.00  0.00    -0.331 N 
ATOM      7  C   UNL     1       3.096   2.871   3.785  0.00  0.00    +0.049 A 
ATOM      8  C   UNL     1       4.448   2.723   3.520  0.00  0.00    +0.025 A 
ATOM      9  C   UNL     1       5.310   3.776   3.771  0.00  0.00    +0.002 A 
ATOM     10  C   UNL     1       4.828   4.968   4.280  0.00  0.00    +0.002 A 
ATOM     11  C   UNL     1       3.480   5.114   4.562  0.00  0.00    +0.025 A 
ATOM     12  C   UNL     1       2.621   4.054   4.331  0.00  0.00    +0.052 A 
ATOM     13  N   UNL     1       1.279   4.095   4.691  0.00  0.00    -0.316 N 
ATOM     14  C   UNL     1      -1.003   3.083   1.999  0.00  0.00    +0.163 C 
ATOM     15  O   UNL     1      -1.064   2.256   1.109  0.00  0.00    -0.292 OA
ATOM     16  C   UNL     1      -2.138   4.048   2.167  0.00  0.00    +0.088 C 
ATOM     17  H   UNL     1       2.242   1.016   3.991  0.00  0.00    +0.147 HD
ATOM     18  H   UNL     1       1.068   4.194   5.633  0.00  0.00    +0.152 HD
ENDROOT
BRANCH   1  22
ATOM     19  C   UNL     1      -5.239   7.441   4.154  0.00  0.00    +0.161 A 
ATOM     20  C   UNL     1      -4.193   7.662   3.273  0.00  0.00    +0.049 A 
ATOM     21  C   UNL     1      -3.212   6.702   3.109  0.00  0.00    +0.008 A 
ATOM     22  C   UNL     1      -3.273   5.519   3.822  0.00  0.00    -0.040 A 
ATOM     23  C   UNL     1      -4.318   5.289   4.699  0.00  0.00    +0.053 A 
ATOM     24  C   UNL     1      -5.300   6.251   4.872  0.00  0.00    +0.162 A 
BRANCH  19  26
ATOM     25  C   UNL     1      -6.077   9.582   3.546  0.00  0.00    +0.277 C 
ATOM     26  O   UNL     1      -6.205   8.385   4.316  0.00  0.00    -0.491 OA
ENDBRANCH  19  26
BRANCH  24  27
ATOM     27  O   UNL     1      -6.325   6.029   5.738  0.00  0.00    -0.491 OA
ATOM     28  C   UNL     1      -6.324   4.785   6.440  0.00  0.00    +0.277 C 
ENDBRANCH  24  27
ENDBRANCH   1  22
BRANCH   5  29
ATOM     29  C   UNL     1       1.809   2.381   1.198  0.00  0.00    +0.023 A 
ATOM     30  C   UNL     1       1.824   3.693   0.764  0.00  0.00    +0.013 A 
ATOM     31  C   UNL     1       2.421   4.021  -0.439  0.00  0.00    +0.050 A 
ATOM     32  C   UNL     1       3.011   3.033  -1.214  0.00  0.00    +0.165 A 
ATOM     33  C   UNL     1       3.002   1.714  -0.779  0.00  0.00    +0.204 A 
ATOM     34  C   UNL     1       2.402   1.389   0.432  0.00  0.00    +0.170 A 
BRANCH  34  35
ATOM     35  O   UNL     1       2.391   0.099   0.862  0.00  0.00    -0.491 OA
ATOM     36  C   UNL     1       3.492  -0.326   1.667  0.00  0.00    +0.277 C 
ENDBRANCH  34  35
BRANCH  33  37
ATOM     37  O   UNL     1       3.581   0.742  -1.536  0.00  0.00    -0.488 OA
ATOM     38  C   UNL     1       2.750   0.088  -2.497  0.00  0.00    +0.277 C 
ENDBRANCH  33  37
BRANCH  32  39
ATOM     39  O   UNL     1       3.598   3.357  -2.397  0.00  0.00    -0.491 OA
ATOM     40  C   UNL     1       3.569   4.733  -2.781  0.00  0.00    +0.277 C 
ENDBRANCH  32  39
ENDBRANCH   5  29
TORSDOF 7
