REMARK  Name = ZINC40323157
REMARK  8 active torsions:
REMARK  status: ('A' for Active; 'I' for Inactive)
REMARK    1  A    between atoms: C_1  and  C_2
REMARK    2  A    between atoms: C_5  and  C_8
REMARK    3  A    between atoms: C_8  and  C_10
REMARK    4  A    between atoms: C_8  and  N_11
REMARK    5  A    between atoms: N_11  and  C_12
REMARK    6  A    between atoms: C_13  and  C_15
REMARK    7  A    between atoms: C_18  and  N_22
REMARK    8  A    between atoms: C_20  and  N_21
REMARK                            x       y       z     vdW  Elec       q    Type
REMARK                         _______ _______ _______ _____ _____    ______ ____
ROOT
ATOM      1  N   UNL     1      -1.000  -4.645   1.104  0.00  0.00    -0.294 N 
ATOM      2  C   UNL     1      -0.951  -4.062   2.446  0.00  0.00    +0.133 C 
ATOM      3  C   UNL     1      -1.688  -5.784   0.888  0.00  0.00    +0.249 C 
ATOM      4  O   UNL     1      -1.796  -6.225  -0.240  0.00  0.00    -0.270 OA
ENDROOT
BRANCH   3   5
ATOM      5  C   UNL     1      -2.308  -6.494   2.018  0.00  0.00    +0.058 A 
ATOM      6  C   UNL     1      -3.122  -5.801   2.921  0.00  0.00    +0.017 A 
ATOM      7  C   UNL     1      -3.697  -6.460   3.969  0.00  0.00    +0.023 A 
ATOM      8  C   UNL     1      -3.479  -7.825   4.149  0.00  0.00    +0.026 A 
ATOM      9  C   UNL     1      -2.674  -8.528   3.263  0.00  0.00    +0.046 A 
ATOM     10  C   UNL     1      -2.089  -7.872   2.192  0.00  0.00    +0.039 A 
BRANCH  10  11
ATOM     11  N   UNL     1      -1.286  -8.569   1.298  0.00  0.00    -0.357 N 
ATOM     12  H   UNL     1      -0.813  -8.094   0.598  0.00  0.00    +0.142 HD
ATOM     13  H   UNL     1      -1.200  -9.533   1.375  0.00  0.00    +0.142 HD
ENDBRANCH  10  11
BRANCH   8  14
ATOM     14  N   UNL     1      -4.071  -8.485   5.221  0.00  0.00    -0.358 N 
ATOM     15  H   UNL     1      -4.633  -7.995   5.842  0.00  0.00    +0.142 HD
ATOM     16  H   UNL     1      -3.920  -9.435   5.349  0.00  0.00    +0.142 HD
ENDBRANCH   8  14
ENDBRANCH   3   5
BRANCH   1  17
ATOM     17  C   UNL     1      -0.301  -3.991  -0.005  0.00  0.00    +0.103 C 
ATOM     18  C   UNL     1       1.162  -3.760   0.379  0.00  0.00    +0.033 C 
BRANCH  17  23
ATOM     19  C   UNL     1      -2.821   1.085  -1.139  0.00  0.00    +0.044 C 
ATOM     20  C   UNL     1      -2.163  -0.239  -0.843  0.00  0.00    -0.050 A 
ATOM     21  C   UNL     1      -2.014  -1.176  -1.848  0.00  0.00    +0.004 A 
ATOM     22  C   UNL     1      -1.411  -2.390  -1.577  0.00  0.00    +0.006 A 
ATOM     23  C   UNL     1      -0.958  -2.667  -0.301  0.00  0.00    -0.027 A 
ATOM     24  C   UNL     1      -1.106  -1.729   0.704  0.00  0.00    +0.006 A 
ATOM     25  C   UNL     1      -1.705  -0.513   0.432  0.00  0.00    +0.004 A 
ENDBRANCH  17  23
ENDBRANCH   1  17
TORSDOF 5
