REMARK  Name = ZINC09329032
REMARK  3 active torsions:
REMARK  status: ('A' for Active; 'I' for Inactive)
REMARK    1  A    between atoms: C_5  and  C_7
REMARK    2  A    between atoms: C_8  and  C_9
REMARK    3  A    between atoms: C_17  and  C_23
REMARK                            x       y       z     vdW  Elec       q    Type
REMARK                         _______ _______ _______ _____ _____    ______ ____
ROOT
ATOM      1  C   UNL     1       0.127  -4.315  -0.023  0.00  0.00    +0.243 C 
ATOM      2  O   UNL     1       1.193  -4.902  -0.037  0.00  0.00    -0.270 OA
ATOM      3  N   UNL     1      -1.026  -5.011  -0.016  0.00  0.00    -0.250 N 
ATOM      4  C   UNL     1      -0.999  -6.408  -0.024  0.00  0.00    +0.242 A 
ATOM      5  N   UNL     1       0.108  -7.165  -0.033  0.00  0.00    -0.180 NA
ATOM      6  C   UNL     1      -0.226  -8.426  -0.040  0.00  0.00    +0.222 A 
ATOM      7  N   UNL     1      -1.580  -8.502  -0.033  0.00  0.00    -0.223 N 
ATOM      8  N   UNL     1      -2.055  -7.193  -0.018  0.00  0.00    -0.131 NA
ATOM      9  C   UNL     1      -2.310  -9.768  -0.033  0.00  0.00    +0.149 C 
ATOM     10  C   UNL     1      -1.456 -10.827   0.670  0.00  0.00    +0.128 C 
ATOM     11  C   UNL     1      -0.021 -10.748   0.229  0.00  0.00    +0.222 C 
ATOM     12  O   UNL     1       0.621 -11.771   0.121  0.00  0.00    -0.275 OA
ATOM     13  N   UNL     1       0.570  -9.565  -0.052  0.00  0.00    -0.255 N 
ATOM     14  H   UNL     1      -1.876  -4.543  -0.005  0.00  0.00    +0.158 HD
ATOM     15  H   UNL     1       1.517  -9.514  -0.255  0.00  0.00    +0.158 HD
ENDROOT
BRANCH   9  16
ATOM     16  C   UNL     1      -2.583 -10.195  -1.453  0.00  0.00    -0.022 A 
ATOM     17  C   UNL     1      -1.530 -10.423  -2.319  0.00  0.00    +0.007 A 
ATOM     18  C   UNL     1      -1.779 -10.814  -3.622  0.00  0.00    +0.020 A 
ATOM     19  C   UNL     1      -3.082 -10.977  -4.057  0.00  0.00    +0.041 A 
ATOM     20  C   UNL     1      -4.135 -10.748  -3.189  0.00  0.00    +0.020 A 
ATOM     21  C   UNL     1      -3.885 -10.363  -1.886  0.00  0.00    +0.007 A 
ATOM     22 CL   UNL     1      -3.396 -11.467  -5.693  0.00  0.00    -0.084 Cl
ENDBRANCH   9  16
BRANCH   1  24
ATOM     23  C   UNL     1       1.253  -2.155  -0.022  0.00  0.00    +0.014 C 
ATOM     24  C   UNL     1       0.099  -2.852  -0.015  0.00  0.00    +0.068 C 
BRANCH  23  29
ATOM     25  C   UNL     1      -0.017   1.374   0.010  0.00  0.00    +0.001 A 
ATOM     26  C   UNL     1       1.170   2.087   0.002  0.00  0.00    +0.001 A 
ATOM     27  C   UNL     1       2.384   1.424  -0.013  0.00  0.00    +0.020 A 
ATOM     28  C   UNL     1       2.421   0.044  -0.021  0.00  0.00    +0.048 A 
ATOM     29  C   UNL     1       1.225  -0.683  -0.013  0.00  0.00    -0.007 A 
ATOM     30  C   UNL     1       0.002  -0.004   0.002  0.00  0.00    +0.009 A 
ATOM     31 CL   UNL     1       3.945  -0.787  -0.040  0.00  0.00    -0.083 Cl
ENDBRANCH  23  29
ENDBRANCH   1  24
TORSDOF 3
