REMARK  Name = ZINC08870470
REMARK  6 active torsions:
REMARK  status: ('A' for Active; 'I' for Inactive)
REMARK    1  A    between atoms: C_1  and  C_2
REMARK    2  A    between atoms: C_7  and  N_8
REMARK    3  A    between atoms: N_8  and  S_9
REMARK    4  A    between atoms: S_9  and  C_12
REMARK    5  A    between atoms: C_29  and  C_33
REMARK    6  A    between atoms: C_29  and  C_34
REMARK                            x       y       z     vdW  Elec       q    Type
REMARK                         _______ _______ _______ _____ _____    ______ ____
ROOT
ATOM      1  N   UNL     1       0.949  -4.016   0.031  0.00  0.00    -0.216 N 
ATOM      2  H   UNL     1       0.374  -4.594  -0.495  0.00  0.00    +0.174 HD
ENDROOT
BRANCH   1   9
ATOM      3  C   UNL     1      -1.808  -3.401   0.329  0.00  0.00    +0.046 C 
ATOM      4  C   UNL     1      -0.747  -2.333   0.394  0.00  0.00    -0.025 A 
ATOM      5  C   UNL     1      -1.109  -1.020   0.603  0.00  0.00    +0.052 A 
ATOM      6  C   UNL     1      -0.139  -0.029   0.665  0.00  0.00    +0.136 A 
ATOM      7  C   UNL     1       1.215  -0.377   0.510  0.00  0.00    +0.033 A 
ATOM      8  C   UNL     1       1.573  -1.704   0.299  0.00  0.00    +0.037 A 
ATOM      9  C   UNL     1       0.593  -2.680   0.242  0.00  0.00    +0.052 A 
ATOM     10  C   UNL     1       1.945   0.886   0.626  0.00  0.00    +0.066 A 
ATOM     11  C   UNL     1       1.006   1.865   0.838  0.00  0.00    +0.117 A 
ATOM     12  O   UNL     1      -0.204   1.309   0.856  0.00  0.00    -0.459 OA
ATOM     13  C   UNL     1       1.371   3.319   1.014  0.00  0.00    +0.082 C 
ATOM     14  C   UNL     1       2.841   3.426   1.429  0.00  0.00    -0.021 C 
ATOM     15  C   UNL     1       3.735   2.654   0.453  0.00  0.00    +0.086 C 
ATOM     16  C   UNL     1       3.377   1.178   0.548  0.00  0.00    +0.168 C 
ATOM     17  O   UNL     1       4.220   0.304   0.560  0.00  0.00    -0.292 OA
ATOM     18  C   UNL     1       3.012   2.847   2.835  0.00  0.00    +0.012 C 
ATOM     19  C   UNL     1       3.256   4.899   1.437  0.00  0.00    +0.012 C 
ENDBRANCH   1   9
BRANCH   1  20
ATOM     20  S   UNL     1       2.351  -4.612   0.679  0.00  0.00    +0.073 S 
ATOM     21  O   UNL     1       2.396  -4.166   2.028  0.00  0.00    -0.150 OA
ATOM     22  O   UNL     1       2.408  -5.988   0.330  0.00  0.00    -0.150 OA
BRANCH  20  23
ATOM     23  C   UNL     1       3.687  -3.825  -0.156  0.00  0.00    +0.116 A 
ATOM     24  C   UNL     1       4.559  -3.017   0.523  0.00  0.00    +0.031 A 
ATOM     25  C   UNL     1       5.636  -2.373  -0.085  0.00  0.00    +0.026 A 
ATOM     26  C   UNL     1       5.859  -2.528  -1.440  0.00  0.00    +0.042 A 
ATOM     27  C   UNL     1       4.961  -3.347  -2.118  0.00  0.00    +0.017 A 
ATOM     28  C   UNL     1       3.879  -4.007  -1.536  0.00  0.00    +0.011 A 
ATOM     29  C   UNL     1       3.078  -4.795  -2.380  0.00  0.00    +0.010 A 
ATOM     30  C   UNL     1       3.394  -4.874  -3.710  0.00  0.00    +0.001 A 
ATOM     31  C   UNL     1       4.480  -4.208  -4.276  0.00  0.00    +0.014 A 
ATOM     32  C   UNL     1       5.294  -3.422  -3.479  0.00  0.00    +0.047 A 
ATOM     33  C   UNL     1       6.486  -2.575  -3.607  0.00  0.00    +0.249 C 
ATOM     34  O   UNL     1       7.104  -2.360  -4.632  0.00  0.00    -0.270 OA
ATOM     35  N   UNL     1       6.777  -2.072  -2.378  0.00  0.00    -0.281 N 
ATOM     36  H   UNL     1       7.520  -1.479  -2.183  0.00  0.00    +0.155 HD
ENDBRANCH  20  23
ENDBRANCH   1  20
TORSDOF 3
