REMARK  Name = ZINC12897002
REMARK  5 active torsions:
REMARK  status: ('A' for Active; 'I' for Inactive)
REMARK    1  A    between atoms: C_1  and  C_2
REMARK    2  A    between atoms: C_16  and  N_17
REMARK    3  A    between atoms: C_16  and  N_66
REMARK    4  A    between atoms: N_20  and  C_29
REMARK    5  A    between atoms: C_21  and  C_23
REMARK                            x       y       z     vdW  Elec       q    Type
REMARK                         _______ _______ _______ _____ _____    ______ ____
ROOT
ATOM      1  C   UNL     1      -0.397   1.037  -0.169  0.00  0.00    -0.008 C 
ATOM      2  C   UNL     1      -0.171  -0.476  -0.203  0.00  0.00    -0.038 C 
ATOM      3  C   UNL     1      -1.501  -1.174  -0.325  0.00  0.00    -0.054 A 
ATOM      4  C   UNL     1      -2.448  -0.645  -1.189  0.00  0.00    +0.051 A 
ATOM      5  C   UNL     1      -3.683  -1.254  -1.336  0.00  0.00    +0.162 A 
ATOM      6  C   UNL     1      -3.972  -2.407  -0.615  0.00  0.00    +0.162 A 
ATOM      7  C   UNL     1      -3.024  -2.929   0.249  0.00  0.00    +0.053 A 
ATOM      8  C   UNL     1      -1.791  -2.313   0.397  0.00  0.00    -0.038 A 
ATOM      9  C   UNL     1      -0.795  -2.913   1.352  0.00  0.00    -0.018 C 
ATOM     10  C   UNL     1      -1.216  -2.603   2.801  0.00  0.00    +0.010 C 
ATOM     11  C   UNL     1      -2.002  -3.862   3.244  0.00  0.00    +0.001 C 
ATOM     12  C   UNL     1      -1.208  -5.014   2.579  0.00  0.00    +0.001 C 
ATOM     13  C   UNL     1      -0.789  -4.442   1.208  0.00  0.00    +0.010 C 
ATOM     14  C   UNL     1       0.603  -2.358   1.091  0.00  0.00    -0.064 C 
ATOM     15  O   UNL     1      -5.168  -3.029  -0.755  0.00  0.00    -0.485 OA
ATOM     16  C   UNL     1      -6.232  -2.349  -1.402  0.00  0.00    +0.270 C 
ATOM     17  C   UNL     1      -5.732  -1.488  -2.553  0.00  0.00    +0.270 C 
ATOM     18  O   UNL     1      -4.600  -0.719  -2.180  0.00  0.00    -0.485 OA
ATOM     19  N   UNL     1       0.503  -0.885   1.041  0.00  0.00    +0.398 N 
ATOM     20  H   UNL     1      -0.049  -0.559   1.843  0.00  0.00    -0.078 HD
ENDROOT
BRANCH  19  21
ATOM     21  C   UNL     1       1.853  -0.282   1.107  0.00  0.00    +0.072 C 
BRANCH  21  22
ATOM     22  N   UNL     1       2.700  -0.811   0.035  0.00  0.00    -0.257 N 
ATOM     23  C   UNL     1       3.490  -1.901   0.108  0.00  0.00    +0.177 A 
ATOM     24  S   UNL     1       3.687  -2.918   1.471  0.00  0.00    -0.011 S 
ATOM     25  N   UNL     1       4.097  -2.047  -1.087  0.00  0.00    -0.300 N 
ATOM     26  C   UNL     1       3.679  -1.022  -1.913  0.00  0.00    +0.164 A 
ATOM     27  N   UNL     1       2.840  -0.273  -1.252  0.00  0.00    -0.152 NA
BRANCH  26  28
ATOM     28  C   UNL     1       4.110  -0.808  -3.312  0.00  0.00    +0.037 A 
ATOM     29  C   UNL     1       3.948   0.440  -3.924  0.00  0.00    +0.014 A 
ATOM     30  C   UNL     1       4.368   0.588  -5.234  0.00  0.00    +0.020 A 
ATOM     31  C   UNL     1       4.929  -0.493  -5.891  0.00  0.00    +0.111 A 
ATOM     32  N   UNL     1       5.069  -1.658  -5.288  0.00  0.00    -0.263 NA
ATOM     33  C   UNL     1       4.690  -1.846  -4.041  0.00  0.00    +0.122 A 
ENDBRANCH  26  28
BRANCH  25  34
ATOM     34  C   UNL     1       5.042  -3.107  -1.447  0.00  0.00    +0.091 C 
ATOM     35  C   UNL     1       6.151  -3.434  -0.446  0.00  0.00    +0.027 C 
ATOM     36  C   UNL     1       6.485  -2.696  -1.745  0.00  0.00    +0.027 C 
ENDBRANCH  25  34
ENDBRANCH  21  22
ENDBRANCH  19  21
TORSDOF 4
