REMARK  Name = ZINC50200685
REMARK  6 active torsions:
REMARK  status: ('A' for Active; 'I' for Inactive)
REMARK    1  A    between atoms: C_1  and  C_2
REMARK    2  A    between atoms: C_12  and  C_14
REMARK    3  A    between atoms: N_16  and  C_17
REMARK    4  A    between atoms: C_17  and  C_18
REMARK    5  A    between atoms: N_23  and  C_25
REMARK    6  A    between atoms: C_25  and  C_26
REMARK                            x       y       z     vdW  Elec       q    Type
REMARK                         _______ _______ _______ _____ _____    ______ ____
ROOT
ATOM      1  C   UNL     1       1.122  -0.762   3.463  0.00  0.00    +0.300 C 
ATOM      2  O   UNL     1       2.223  -1.236   3.269  0.00  0.00    -0.265 OA
ATOM      3  N   UNL     1       0.655  -0.634   4.721  0.00  0.00    -0.307 N 
ATOM      4  H   UNL     1      -0.224  -0.256   4.876  0.00  0.00    +0.149 HD
ENDROOT
BRANCH   1  15
ATOM      5  C   UNL     1       1.717  -2.792   1.189  0.00  0.00    +0.029 C 
ATOM      6  C   UNL     1       1.873  -1.356   0.684  0.00  0.00    +0.083 C 
ATOM      7  C   UNL     1       1.919  -1.333  -0.853  0.00  0.00    +0.059 C 
ATOM      8  C   UNL     1       0.725  -0.498  -1.256  0.00  0.00    -0.024 A 
ATOM      9  C   UNL     1       0.256  -0.130  -2.503  0.00  0.00    +0.005 A 
ATOM     10  C   UNL     1      -0.877   0.654  -2.615  0.00  0.00    +0.000 A 
ATOM     11  C   UNL     1      -1.542   1.070  -1.476  0.00  0.00    +0.002 A 
ATOM     12  C   UNL     1      -1.078   0.706  -0.230  0.00  0.00    +0.024 A 
ATOM     13  C   UNL     1       0.067  -0.086  -0.108  0.00  0.00    +0.040 A 
ATOM     14  N   UNL     1       0.697  -0.559   1.046  0.00  0.00    -0.260 N 
ATOM     15  C   UNL     1       0.285  -0.320   2.307  0.00  0.00    +0.306 C 
ATOM     16  O   UNL     1      -0.766   0.254   2.504  0.00  0.00    -0.265 OA
ENDBRANCH   1  15
BRANCH   3  17
ATOM     17  C   UNL     1       1.476  -1.068   5.854  0.00  0.00    +0.106 C 
BRANCH  17  18
ATOM     18  C   UNL     1       0.719  -0.815   7.159  0.00  0.00    -0.011 C 
ATOM     19  C   UNL     1       0.525   0.692   7.354  0.00  0.00    +0.001 C 
ATOM     20  C   UNL     1      -0.164   0.938   8.699  0.00  0.00    -0.018 C 
ATOM     21  C   UNL     1       0.672   0.311   9.817  0.00  0.00    -0.078 C 
ATOM     22  N   UNL     1       0.798  -1.133   9.587  0.00  0.00    +0.383 N 
ATOM     23  C   UNL     1       1.521  -1.378   8.334  0.00  0.00    -0.073 C 
ATOM     24  H   UNL     1      -0.121  -1.545   9.529  0.00  0.00    -0.081 HD
BRANCH  22  25
ATOM     25  C   UNL     1       1.535  -1.742  10.703  0.00  0.00    -0.036 C 
BRANCH  25  26
ATOM     26  C   UNL     1       0.730  -1.608  11.969  0.00  0.00    -0.027 A 
ATOM     27  C   UNL     1      -0.187  -2.458  12.492  0.00  0.00    +0.009 A 
ATOM     28  C   UNL     1      -0.809  -2.126  13.681  0.00  0.00    +0.008 A 
ATOM     29  C   UNL     1      -0.483  -0.959  14.289  0.00  0.00    +0.045 A 
ATOM     30  S   UNL     1       0.742  -0.291  13.175  0.00  0.00    -0.103 S 
ENDBRANCH  25  26
ENDBRANCH  22  25
ENDBRANCH  17  18
ENDBRANCH   3  17
TORSDOF 5
