REMARK  Name = ZINC16097353
REMARK  5 active torsions:
REMARK  status: ('A' for Active; 'I' for Inactive)
REMARK    1  A    between atoms: C_4  and  N_7
REMARK    2  A    between atoms: C_16  and  S_18
REMARK    3  A    between atoms: S_18  and  C_19
REMARK    4  A    between atoms: C_19  and  C_20
REMARK    5  A    between atoms: N_22  and  C_23
REMARK                            x       y       z     vdW  Elec       q    Type
REMARK                         _______ _______ _______ _____ _____    ______ ____
ROOT
ATOM      1  N   UNL     1       2.402   1.107  -0.014  0.00  0.00    -0.299 N 
ATOM      2  C   UNL     1       3.582   1.812  -0.126  0.00  0.00    +0.135 A 
ATOM      3  C   UNL     1       4.823   1.137  -0.248  0.00  0.00    +0.041 A 
ATOM      4  C   UNL     1       4.909  -0.259  -0.260  0.00  0.00    +0.013 A 
ATOM      5  C   UNL     1       6.130  -0.856  -0.380  0.00  0.00    +0.001 A 
ATOM      6  C   UNL     1       7.290  -0.095  -0.490  0.00  0.00    +0.002 A 
ATOM      7  C   UNL     1       7.240   1.267  -0.481  0.00  0.00    +0.028 A 
ATOM      8  C   UNL     1       6.002   1.913  -0.359  0.00  0.00    +0.077 A 
ATOM      9  N   UNL     1       5.899   3.251  -0.345  0.00  0.00    -0.222 NA
ATOM     10  C   UNL     1       4.717   3.828  -0.229  0.00  0.00    +0.191 A 
ATOM     11  N   UNL     1       3.585   3.137  -0.127  0.00  0.00    -0.206 NA
ATOM     12  H   UNL     1       2.422   0.011   0.073  0.00  0.00    +0.154 HD
ENDROOT
BRANCH   1  16
ATOM     13  C   UNL     1      -1.239   3.131  -0.007  0.00  0.00    +0.000 A 
ATOM     14  C   UNL     1      -0.178   3.622  -0.746  0.00  0.00    +0.002 A 
ATOM     15  C   UNL     1       1.029   2.951  -0.754  0.00  0.00    +0.023 A 
ATOM     16  C   UNL     1       1.180   1.786  -0.011  0.00  0.00    +0.032 A 
ATOM     17  C   UNL     1       0.114   1.298   0.734  0.00  0.00    +0.023 A 
ATOM     18  C   UNL     1      -1.092   1.972   0.734  0.00  0.00    +0.002 A 
ENDBRANCH   1  16
BRANCH  10  19
ATOM     19  S   UNL     1       4.636   5.588  -0.216  0.00  0.00    -0.077 S 
BRANCH  19  20
ATOM     20  C   UNL     1       6.394   5.986  -0.385  0.00  0.00    +0.173 C 
BRANCH  20  21
ATOM     21  C   UNL     1       6.572   7.482  -0.397  0.00  0.00    +0.224 C 
ATOM     22  O   UNL     1       5.605   8.208  -0.301  0.00  0.00    -0.275 OA
ATOM     23  N   UNL     1       7.805   8.013  -0.515  0.00  0.00    -0.310 N 
ATOM     24  H   UNL     1       8.681   7.354  -0.602  0.00  0.00    +0.149 HD
BRANCH  23  25
ATOM     25  C   UNL     1       7.978   9.468  -0.527  0.00  0.00    +0.095 C 
ATOM     26  C   UNL     1       7.809   9.999  -1.960  0.00  0.00    +0.046 C 
ATOM     27  C   UNL     1       8.300  11.464  -2.041  0.00  0.00    +0.168 C 
ATOM     28  S   UNL     1       9.572  11.538  -0.715  0.00  0.00    -0.029 S 
ATOM     29  O   UNL     1       9.154  12.467   0.275  0.00  0.00    -0.174 OA
ATOM     30  O   UNL     1      10.854  11.681  -1.311  0.00  0.00    -0.174 OA
ATOM     31  C   UNL     1       9.410   9.830  -0.042  0.00  0.00    +0.188 C 
ENDBRANCH  23  25
ENDBRANCH  20  21
ENDBRANCH  19  20
ENDBRANCH  10  19
TORSDOF 5
