REMARK  Name = ZINC07717138
REMARK  2 active torsions:
REMARK  status: ('A' for Active; 'I' for Inactive)
REMARK    1  A    between atoms: C_6  and  S_7
REMARK    2  A    between atoms: S_7  and  N_10
REMARK                            x       y       z     vdW  Elec       q    Type
REMARK                         _______ _______ _______ _____ _____    ______ ____
ROOT
ATOM      1  C   UNL     1      -6.634   2.331   0.214  0.00  0.00    +0.030 A 
ATOM      2  C   UNL     1      -5.358   2.054  -0.239  0.00  0.00    +0.026 A 
ATOM      3  C   UNL     1      -4.304   2.125   0.692  0.00  0.00    +0.050 A 
ATOM      4  C   UNL     1      -4.622   2.473   2.017  0.00  0.00    +0.039 A 
ATOM      5  C   UNL     1      -5.891   2.749   2.468  0.00  0.00    +0.045 A 
ATOM      6  C   UNL     1      -6.912   2.670   1.524  0.00  0.00    +0.106 A 
ATOM      7  S   UNL     1      -3.059   2.450   2.836  0.00  0.00    -0.051 S 
ATOM      8  C   UNL     1      -2.060   1.996   1.433  0.00  0.00    +0.186 C 
ATOM      9  N   UNL     1      -0.772   1.831   1.432  0.00  0.00    -0.110 NA
ATOM     10  S   UNL     1      -0.017   1.417   0.010  0.00  0.00    +0.073 S 
ATOM     11  O   UNL     1       0.002  -0.004   0.002  0.00  0.00    -0.151 OA
ATOM     12  O   UNL     1       1.192   2.163   0.002  0.00  0.00    -0.151 OA
ATOM     13  C   UNL     1      -1.156   2.042  -1.263  0.00  0.00    +0.212 C 
ATOM     14  C   UNL     1      -2.555   1.493  -0.976  0.00  0.00    +0.137 C 
ATOM     15  N   UNL     1      -2.966   1.875   0.399  0.00  0.00    -0.276 N 
ENDROOT
BRANCH   6  16
ATOM     16  S   UNL     1      -8.573   3.007   2.005  0.00  0.00    +0.056 S 
ATOM     17  O   UNL     1      -8.502   3.833   3.158  0.00  0.00    -0.153 OA
ATOM     18  O   UNL     1      -9.265   3.400   0.827  0.00  0.00    -0.153 OA
BRANCH  16  19
ATOM     19  N   UNL     1      -9.242   1.572   2.490  0.00  0.00    -0.204 NA
ATOM     20  H   UNL     1      -9.937   1.565   3.167  0.00  0.00    +0.144 HD
ATOM     21  H   UNL     1      -8.940   0.738   2.097  0.00  0.00    +0.144 HD
ENDBRANCH  16  19
ENDBRANCH   6  16
TORSDOF 2
