REMARK  Name = ZINC65384579
REMARK  5 active torsions:
REMARK  status: ('A' for Active; 'I' for Inactive)
REMARK    1  A    between atoms: C_1  and  C_2
REMARK    2  A    between atoms: C_2  and  C_27
REMARK    3  A    between atoms: C_8  and  C_11
REMARK    4  A    between atoms: C_19  and  C_23
REMARK    5  A    between atoms: N_25  and  C_26
REMARK                            x       y       z     vdW  Elec       q    Type
REMARK                         _______ _______ _______ _____ _____    ______ ____
ROOT
ATOM      1  C   UNL     1       2.994  -0.735   3.127  0.00  0.00    +0.067 C 
ATOM      2  C   UNL     1       3.818   0.426   3.695  0.00  0.00    +0.109 C 
ATOM      3  C   UNL     1       5.283   0.093   3.717  0.00  0.00    +0.219 C 
ATOM      4  O   UNL     1       6.087   0.960   3.447  0.00  0.00    -0.275 OA
ATOM      5  N   UNL     1       5.732  -1.142   4.027  0.00  0.00    -0.270 N 
ATOM      6  C   UNL     1       4.798  -2.172   4.142  0.00  0.00    +0.125 A 
ATOM      7  C   UNL     1       3.502  -2.018   3.735  0.00  0.00    +0.032 A 
ATOM      8  C   UNL     1       2.823  -3.215   3.988  0.00  0.00    +0.152 A 
ATOM      9  N   UNL     1       3.687  -4.068   4.513  0.00  0.00    -0.167 NA
ATOM     10  N   UNL     1       4.937  -3.430   4.607  0.00  0.00    -0.263 N 
ATOM     11  H   UNL     1       5.755  -3.825   4.947  0.00  0.00    +0.190 HD
ATOM     12  H   UNL     1       6.678  -1.308   4.167  0.00  0.00    +0.156 HD
ENDROOT
BRANCH   1  20
ATOM     13  C   UNL     1      -0.019   1.526   0.010  0.00  0.00    +0.056 C 
ATOM     14  C   UNL     1       0.002  -0.004   0.002  0.00  0.00    +0.109 C 
ATOM     15  C   UNL     1       0.832  -0.534  -1.191  0.00  0.00    +0.086 C 
ATOM     16  C   UNL     1       2.204  -0.704  -0.568  0.00  0.00    -0.002 A 
ATOM     17  C   UNL     1       3.455  -0.875  -1.119  0.00  0.00    +0.007 A 
ATOM     18  C   UNL     1       4.561  -1.000  -0.297  0.00  0.00    +0.001 A 
ATOM     19  C   UNL     1       4.404  -0.952   1.076  0.00  0.00    +0.008 A 
ATOM     20  C   UNL     1       3.152  -0.784   1.629  0.00  0.00    +0.003 A 
ATOM     21  C   UNL     1       2.033  -0.662   0.809  0.00  0.00    +0.128 A 
ATOM     22  O   UNL     1       0.721  -0.510   1.139  0.00  0.00    -0.485 OA
ATOM     23  C   UNL     1      -1.422  -0.563  -0.031  0.00  0.00    +0.056 C 
ENDBRANCH   1  20
BRANCH   8  24
ATOM     24  C   UNL     1       1.395  -3.479   3.717  0.00  0.00    +0.264 C 
ATOM     25  O   UNL     1       0.698  -2.611   3.229  0.00  0.00    -0.268 OA
ATOM     26  N   UNL     1       0.866  -4.684   4.010  0.00  0.00    -0.313 N 
ATOM     27  C   UNL     1      -0.550  -4.946   3.741  0.00  0.00    +0.128 C 
ATOM     28  H   UNL     1       1.422  -5.377   4.399  0.00  0.00    +0.149 HD
ENDBRANCH   8  24
TORSDOF 2
