REMARK  Name = ZINC02095459
REMARK  13 active torsions:
REMARK  status: ('A' for Active; 'I' for Inactive)
REMARK    1  A    between atoms: C_1  and  C_2
REMARK    2  A    between atoms: C_5  and  S_8
REMARK    3  A    between atoms: S_8  and  N_11
REMARK    4  A    between atoms: N_11  and  C_12
REMARK    5  A    between atoms: C_12  and  C_13
REMARK    6  A    between atoms: C_13  and  C_14
REMARK    7  A    between atoms: C_14  and  C_15
REMARK    8  A    between atoms: C_15  and  O_17
REMARK    9  A    between atoms: O_17  and  C_18
REMARK   10  A    between atoms: C_22  and  C_37
REMARK   11  A    between atoms: C_23  and  C_30
REMARK   12  A    between atoms: C_28  and  C_29
REMARK   13  A    between atoms: C_30  and  C_31
REMARK                            x       y       z     vdW  Elec       q    Type
REMARK                         _______ _______ _______ _____ _____    ______ ____
ROOT
ATOM      1  C   UNL     1      -2.369   1.193   0.040  0.00  0.00    +0.138 A 
ATOM      2  C   UNL     1      -2.376  -0.199   0.101  0.00  0.00    +0.047 A 
ATOM      3  C   UNL     1      -3.557  -0.884   0.125  0.00  0.00    +0.015 A 
ATOM      4  C   UNL     1      -4.768  -0.183   0.088  0.00  0.00    +0.021 A 
ATOM      5  C   UNL     1      -6.050  -0.892   0.112  0.00  0.00    -0.030 A 
ATOM      6  C   UNL     1      -7.190  -0.156   0.073  0.00  0.00    +0.045 A 
ATOM      7  C   UNL     1      -7.115   1.251   0.011  0.00  0.00    +0.341 A 
ATOM      8  O   UNL     1      -8.146   1.899  -0.023  0.00  0.00    -0.245 OA
ATOM      9  O   UNL     1      -5.938   1.894  -0.011  0.00  0.00    -0.422 OA
ATOM     10  C   UNL     1      -4.767   1.222   0.026  0.00  0.00    +0.146 A 
ATOM     11  C   UNL     1      -3.558   1.902   0.008  0.00  0.00    +0.035 A 
ATOM     12  C   UNL     1      -3.539   3.408  -0.052  0.00  0.00    +0.051 C 
ATOM     13  C   UNL     1      -6.101  -2.397   0.179  0.00  0.00    +0.045 C 
ENDROOT
BRANCH   1  14
ATOM     14  O   UNL     1      -1.186   1.860   0.018  0.00  0.00    -0.425 OA
BRANCH  14  15
ATOM     15  C   UNL     1      -0.691   2.183  -1.188  0.00  0.00    +0.312 C 
ATOM     16  O   UNL     1      -1.255   1.815  -2.191  0.00  0.00    -0.250 OA
BRANCH  15  17
ATOM     17  C   UNL     1       0.564   3.011  -1.290  0.00  0.00    +0.122 C 
BRANCH  17  18
ATOM     18  C   UNL     1       0.905   3.241  -2.764  0.00  0.00    +0.028 C 
BRANCH  18  19
ATOM     19  C   UNL     1       2.179   4.081  -2.867  0.00  0.00    +0.106 C 
BRANCH  19  20
ATOM     20  N   UNL     1       2.506   4.301  -4.279  0.00  0.00    -0.190 NA
ATOM     21  H   UNL     1       2.081   3.763  -4.964  0.00  0.00    +0.148 HD
BRANCH  20  22
ATOM     22  S   UNL     1       3.600   5.469  -4.703  0.00  0.00    +0.058 S 
ATOM     23  O   UNL     1       3.720   5.419  -6.118  0.00  0.00    -0.153 OA
ATOM     24  O   UNL     1       3.221   6.651  -4.012  0.00  0.00    -0.153 OA
BRANCH  22  29
ATOM     25  C   UNL     1       8.948   3.801  -2.461  0.00  0.00    +0.044 C 
ATOM     26  C   UNL     1       7.612   4.218  -3.021  0.00  0.00    -0.050 A 
ATOM     27  C   UNL     1       7.239   3.816  -4.290  0.00  0.00    +0.005 A 
ATOM     28  C   UNL     1       6.014   4.198  -4.804  0.00  0.00    +0.029 A 
ATOM     29  C   UNL     1       5.162   4.982  -4.048  0.00  0.00    +0.105 A 
ATOM     30  C   UNL     1       5.537   5.388  -2.781  0.00  0.00    +0.029 A 
ATOM     31  C   UNL     1       6.761   5.002  -2.266  0.00  0.00    +0.005 A 
ENDBRANCH  22  29
ENDBRANCH  20  22
ENDBRANCH  19  20
ENDBRANCH  18  19
ENDBRANCH  17  18
ENDBRANCH  15  17
ENDBRANCH  14  15
ENDBRANCH   1  14
BRANCH   6  32
ATOM     32  C   UNL     1      -8.533  -0.841   0.096  0.00  0.00    +0.077 C 
BRANCH  32  33
ATOM     33  C   UNL     1      -8.988  -1.006   1.523  0.00  0.00    -0.043 A 
ATOM     34  C   UNL     1      -8.657  -2.149   2.226  0.00  0.00    +0.004 A 
ATOM     35  C   UNL     1      -9.070  -2.298   3.537  0.00  0.00    +0.000 A 
ATOM     36  C   UNL     1      -9.823  -1.308   4.141  0.00  0.00    +0.000 A 
ATOM     37  C   UNL     1     -10.159  -0.168   3.436  0.00  0.00    +0.000 A 
ATOM     38  C   UNL     1      -9.741  -0.016   2.127  0.00  0.00    +0.004 A 
ENDBRANCH  32  33
ENDBRANCH   6  32
TORSDOF 10
