REMARK  Name = ZINC01026294
REMARK  12 active torsions:
REMARK  status: ('A' for Active; 'I' for Inactive)
REMARK    1  A    between atoms: C_1  and  C_2
REMARK    2  A    between atoms: C_4  and  C_32
REMARK    3  A    between atoms: C_6  and  S_10
REMARK    4  A    between atoms: C_7  and  C_8
REMARK    5  A    between atoms: S_10  and  C_11
REMARK    6  A    between atoms: C_11  and  C_12
REMARK    7  A    between atoms: C_13  and  C_28
REMARK    8  A    between atoms: C_14  and  C_22
REMARK    9  A    between atoms: C_16  and  C_20
REMARK   10  A    between atoms: C_17  and  N_19
REMARK   11  A    between atoms: C_28  and  O_30
REMARK   12  A    between atoms: O_30  and  C_31
REMARK                            x       y       z     vdW  Elec       q    Type
REMARK                         _______ _______ _______ _____ _____    ______ ____
ROOT
ATOM      1  C   UNL     1      -1.380  -0.624   0.028  0.00  0.00    +0.128 C 
ATOM      2  C   UNL     1      -1.959  -0.934  -1.139  0.00  0.00    +0.088 C 
ATOM      3  C   UNL     1      -3.403  -1.352  -1.204  0.00  0.00    +0.105 C 
ATOM      4  C   UNL     1      -4.100  -0.971   0.074  0.00  0.00    +0.098 C 
ATOM      5  C   UNL     1      -3.389  -0.654   1.183  0.00  0.00    +0.198 C 
ATOM      6  O   UNL     1      -2.043  -0.674   1.192  0.00  0.00    -0.444 OA
ENDROOT
BRANCH   3   7
ATOM      7  C   UNL     1      -3.485  -2.845  -1.393  0.00  0.00    -0.034 A 
ATOM      8  C   UNL     1      -2.928  -3.692  -0.453  0.00  0.00    +0.004 A 
ATOM      9  C   UNL     1      -3.007  -5.061  -0.624  0.00  0.00    +0.000 A 
ATOM     10  C   UNL     1      -3.635  -5.583  -1.739  0.00  0.00    +0.000 A 
ATOM     11  C   UNL     1      -4.187  -4.736  -2.682  0.00  0.00    +0.000 A 
ATOM     12  C   UNL     1      -4.112  -3.366  -2.509  0.00  0.00    +0.004 A 
ENDBRANCH   3   7
BRANCH   5  13
ATOM     13  N   UNL     1      -4.059  -0.310   2.331  0.00  0.00    -0.328 N 
ATOM     14  H   UNL     1      -3.497  -0.050   3.240  0.00  0.00    +0.145 HD
ATOM     15  H   UNL     1      -5.159  -0.294   2.341  0.00  0.00    +0.145 HD
ENDBRANCH   5  13
BRANCH   4  16
ATOM     16  C   UNL     1      -5.531  -0.943   0.119  0.00  0.00    +0.101 C 
ATOM     17  N   UNL     1      -6.666  -0.921   0.154  0.00  0.00    -0.191 NA
ENDBRANCH   4  16
BRANCH   2  18
ATOM     18  C   UNL     1      -1.199  -0.867  -2.333  0.00  0.00    +0.339 C 
ATOM     19  O   UNL     1      -1.303   0.098  -3.067  0.00  0.00    -0.245 OA
BRANCH  18  20
ATOM     20  O   UNL     1      -0.361  -1.874  -2.656  0.00  0.00    -0.465 OA
ATOM     21  C   UNL     1       0.374  -1.740  -3.875  0.00  0.00    +0.280 C 
ENDBRANCH  18  20
ENDBRANCH   2  18
BRANCH   1  22
ATOM     22  C   UNL     1       0.070  -0.211   0.034  0.00  0.00    +0.150 C 
BRANCH  22  23
ATOM     23  S   UNL     1       0.185   1.580   0.266  0.00  0.00    -0.097 S 
BRANCH  23  29
ATOM     24  C   UNL     1       4.539   4.546   0.511  0.00  0.00    +0.045 C 
ATOM     25  C   UNL     1       3.889   3.195   0.354  0.00  0.00    -0.029 A 
ATOM     26  C   UNL     1       4.655   2.056   0.178  0.00  0.00    +0.027 A 
ATOM     27  C   UNL     1       4.031   0.829   0.038  0.00  0.00    +0.040 A 
ATOM     28  N   UNL     1       2.717   0.723   0.073  0.00  0.00    -0.244 NA
ATOM     29  C   UNL     1       1.936   1.780   0.233  0.00  0.00    +0.115 A 
ATOM     30  C   UNL     1       2.497   3.062   0.383  0.00  0.00    +0.086 A 
ATOM     31  C   UNL     1       4.868  -0.409  -0.154  0.00  0.00    +0.065 C 
BRANCH  30  32
ATOM     32  C   UNL     1       1.658   4.208   0.563  0.00  0.00    +0.102 C 
ATOM     33  N   UNL     1       0.992   5.118   0.706  0.00  0.00    -0.191 NA
ENDBRANCH  30  32
ENDBRANCH  23  29
ENDBRANCH  22  23
ENDBRANCH   1  22
TORSDOF 9
