REMARK  Name = ZINC40178285
REMARK  9 active torsions:
REMARK  status: ('A' for Active; 'I' for Inactive)
REMARK    1  A    between atoms: C_1  and  C_2
REMARK    2  A    between atoms: C_7  and  C_8
REMARK    3  A    between atoms: C_10  and  S_22
REMARK    4  A    between atoms: C_11  and  N_13
REMARK    5  A    between atoms: N_13  and  C_14
REMARK    6  A    between atoms: C_14  and  C_15
REMARK    7  A    between atoms: C_15  and  C_16
REMARK    8  A    between atoms: C_16  and  N_17
REMARK    9  A    between atoms: S_22  and  C_25
REMARK                            x       y       z     vdW  Elec       q    Type
REMARK                         _______ _______ _______ _____ _____    ______ ____
ROOT
ATOM      1  C   UNL     1       0.173   0.151   2.406  0.00  0.00    +0.232 A 
ATOM      2  N   UNL     1       0.376  -0.328   3.610  0.00  0.00    -0.188 NA
ATOM      3  C   UNL     1       0.385   0.690   4.484  0.00  0.00    +0.243 A 
ATOM      4  C   UNL     1       0.180   1.834   3.787  0.00  0.00    +0.233 A 
ATOM      5  O   UNL     1       0.053   1.491   2.489  0.00  0.00    -0.420 OA
ENDROOT
BRANCH   1  12
ATOM      6  C   UNL     1      -1.975   0.638   0.529  0.00  0.00    +0.044 C 
ATOM      7  C   UNL     1      -0.937  -0.419   0.251  0.00  0.00    -0.038 A 
ATOM      8  C   UNL     1      -1.001  -1.162  -0.910  0.00  0.00    +0.004 A 
ATOM      9  C   UNL     1      -0.049  -2.133  -1.167  0.00  0.00    +0.000 A 
ATOM     10  C   UNL     1       0.972  -2.366  -0.262  0.00  0.00    +0.001 A 
ATOM     11  C   UNL     1       1.048  -1.631   0.902  0.00  0.00    +0.013 A 
ATOM     12  C   UNL     1       0.094  -0.645   1.165  0.00  0.00    +0.040 A 
ENDBRANCH   1  12
BRANCH   3  13
ATOM     13  S   UNL     1       0.622   0.562   6.225  0.00  0.00    +0.047 S 
ATOM     14  O   UNL     1       0.021   1.714   6.802  0.00  0.00    -0.163 OA
ATOM     15  O   UNL     1       0.244  -0.758   6.590  0.00  0.00    -0.163 OA
BRANCH  13  16
ATOM     16  C   UNL     1       2.353   0.693   6.527  0.00  0.00    +0.099 A 
ATOM     17  C   UNL     1       3.139  -0.445   6.538  0.00  0.00    +0.031 A 
ATOM     18  C   UNL     1       4.497  -0.346   6.775  0.00  0.00    +0.051 A 
ATOM     19  C   UNL     1       5.074   0.894   7.003  0.00  0.00    +0.162 A 
ATOM     20  C   UNL     1       4.285   2.037   6.989  0.00  0.00    +0.164 A 
ATOM     21  C   UNL     1       2.923   1.932   6.747  0.00  0.00    +0.076 A 
ATOM     22  O   UNL     1       4.833   3.265   7.202  0.00  0.00    -0.485 OA
ATOM     23  C   UNL     1       6.131   3.294   7.803  0.00  0.00    +0.270 C 
ATOM     24  C   UNL     1       7.016   2.264   7.088  0.00  0.00    +0.270 C 
ATOM     25  O   UNL     1       6.412   0.974   7.238  0.00  0.00    -0.485 OA
ENDBRANCH  13  16
ENDBRANCH   3  13
BRANCH   4  26
ATOM     26  N   UNL     1       0.117   3.120   4.311  0.00  0.00    -0.312 N 
ATOM     27  H   UNL     1       0.226   3.261   5.264  0.00  0.00    +0.149 HD
BRANCH  26  28
ATOM     28  C   UNL     1      -0.112   4.263   3.423  0.00  0.00    +0.106 C 
BRANCH  28  29
ATOM     29  C   UNL     1      -0.137   5.552   4.246  0.00  0.00    +0.040 C 
BRANCH  29  30
ATOM     30  C   UNL     1      -0.376   6.745   3.319  0.00  0.00    +0.124 C 
BRANCH  30  31
ATOM     31  N   UNL     1      -0.400   7.980   4.107  0.00  0.00    -0.338 N 
ATOM     32  C   UNL     1      -1.499   8.551   4.689  0.00  0.00    +0.104 A 
ATOM     33  C   UNL     1      -1.074   9.666   5.314  0.00  0.00    +0.101 A 
ATOM     34  N   UNL     1       0.248   9.773   5.118  0.00  0.00    -0.352 N 
ATOM     35  C   UNL     1       0.660   8.763   4.401  0.00  0.00    +0.173 A 
ATOM     36  H   UNL     1       0.811  10.485   5.459  0.00  0.00    +0.166 HD
ENDBRANCH  30  31
ENDBRANCH  29  30
ENDBRANCH  28  29
ENDBRANCH  26  28
ENDBRANCH   4  26
TORSDOF 8
