REMARK  Name = ZINC65833815
REMARK  7 active torsions:
REMARK  status: ('A' for Active; 'I' for Inactive)
REMARK    1  A    between atoms: C_1  and  C_2
REMARK    2  A    between atoms: C_2  and  C_3
REMARK    3  A    between atoms: C_2  and  C_4
REMARK    4  A    between atoms: C_2  and  N_5
REMARK    5  A    between atoms: C_7  and  N_10
REMARK    6  A    between atoms: N_10  and  S_11
REMARK    7  A    between atoms: S_11  and  C_14
REMARK                            x       y       z     vdW  Elec       q    Type
REMARK                         _______ _______ _______ _____ _____    ______ ____
ROOT
ATOM      1  S   UNL     1       3.752  -2.571  -4.080  0.00  0.00    +0.073 S 
ATOM      2  O   UNL     1       5.069  -2.627  -4.611  0.00  0.00    -0.150 OA
ATOM      3  O   UNL     1       3.260  -3.538  -3.163  0.00  0.00    -0.150 OA
ENDROOT
BRANCH   1   4
ATOM      4  C   UNL     1       2.653  -2.578  -5.457  0.00  0.00    +0.116 A 
ATOM      5  C   UNL     1       3.134  -2.665  -6.736  0.00  0.00    +0.031 A 
ATOM      6  C   UNL     1       2.313  -2.675  -7.862  0.00  0.00    +0.026 A 
ATOM      7  C   UNL     1       0.940  -2.595  -7.718  0.00  0.00    +0.042 A 
ATOM      8  C   UNL     1       0.466  -2.507  -6.413  0.00  0.00    +0.017 A 
ATOM      9  C   UNL     1       1.264  -2.501  -5.268  0.00  0.00    +0.011 A 
ATOM     10  C   UNL     1       0.607  -2.413  -4.028  0.00  0.00    +0.010 A 
ATOM     11  C   UNL     1      -0.760  -2.345  -4.006  0.00  0.00    +0.001 A 
ATOM     12  C   UNL     1      -1.543  -2.358  -5.160  0.00  0.00    +0.014 A 
ATOM     13  C   UNL     1      -0.935  -2.433  -6.401  0.00  0.00    +0.047 A 
ATOM     14  C   UNL     1      -1.311  -2.480  -7.819  0.00  0.00    +0.249 C 
ATOM     15  O   UNL     1      -2.444  -2.441  -8.260  0.00  0.00    -0.270 OA
ATOM     16  N   UNL     1      -0.171  -2.575  -8.552  0.00  0.00    -0.281 N 
ATOM     17  H   UNL     1      -0.137  -2.623  -9.521  0.00  0.00    +0.155 HD
ENDBRANCH   1   4
BRANCH   1  18
ATOM     18  N   UNL     1       3.602  -1.097  -3.341  0.00  0.00    -0.213 N 
ATOM     19  H   UNL     1       3.277  -1.043  -2.429  0.00  0.00    +0.174 HD
BRANCH  18  22
ATOM     20  N   UNL     1       3.894   2.110  -4.856  0.00  0.00    -0.264 N 
ATOM     21  C   UNL     1       3.217   1.223  -4.080  0.00  0.00    +0.133 A 
ATOM     22  C   UNL     1       3.945   0.078  -4.037  0.00  0.00    +0.085 A 
ATOM     23  C   UNL     1       5.098   0.272  -4.810  0.00  0.00    +0.158 A 
ATOM     24  N   UNL     1       5.064   1.484  -5.304  0.00  0.00    -0.177 NA
BRANCH  20  26
ATOM     25  C   UNL     1       3.697   4.376  -3.956  0.00  0.00    +0.036 C 
ATOM     26  C   UNL     1       3.471   3.476  -5.173  0.00  0.00    +0.055 C 
ATOM     27  C   UNL     1       1.986   3.478  -5.541  0.00  0.00    +0.036 C 
ATOM     28  C   UNL     1       4.289   4.002  -6.354  0.00  0.00    +0.036 C 
ENDBRANCH  20  26
ENDBRANCH  18  22
ENDBRANCH   1  18
TORSDOF 4
