REMARK  Name = ZINC36524335
REMARK  10 active torsions:
REMARK  status: ('A' for Active; 'I' for Inactive)
REMARK    1  A    between atoms: C_1  and  C_2
REMARK    2  A    between atoms: C_5  and  S_8
REMARK    3  A    between atoms: S_8  and  C_11
REMARK    4  A    between atoms: C_11  and  N_12
REMARK    5  A    between atoms: C_13  and  C_15
REMARK    6  A    between atoms: C_15  and  C_17
REMARK    7  A    between atoms: C_15  and  N_27
REMARK    8  A    between atoms: C_19  and  N_24
REMARK    9  A    between atoms: N_27  and  C_28
REMARK   10  A    between atoms: C_29  and  C_31
REMARK                            x       y       z     vdW  Elec       q    Type
REMARK                         _______ _______ _______ _____ _____    ______ ____
ROOT
ATOM      1  C   UNL     1       2.812  -5.162   3.367  0.00  0.00    +0.193 C 
ENDROOT
BRANCH   1   2
ATOM      2  C   UNL     1       4.123  -4.778   2.732  0.00  0.00    +0.002 A 
ATOM      3  C   UNL     1       4.262  -4.812   1.357  0.00  0.00    +0.040 A 
ATOM      4  C   UNL     1       5.465  -4.460   0.775  0.00  0.00    +0.127 A 
ATOM      5  C   UNL     1       6.530  -4.073   1.567  0.00  0.00    +0.034 A 
ATOM      6  C   UNL     1       6.392  -4.038   2.942  0.00  0.00    +0.022 A 
ATOM      7  C   UNL     1       5.186  -4.385   3.525  0.00  0.00    +0.047 A 
ATOM      8 CL   UNL     1       5.011  -4.335   5.252  0.00  0.00    -0.083 Cl
BRANCH   4   9
ATOM      9  N   UNL     1       5.613  -4.497  -0.697  0.00  0.00    +0.056 N 
ATOM     10  O   UNL     1       4.682  -4.835  -1.390  0.00  0.00    -0.126 OA
ATOM     11  O   UNL     1       6.665  -4.189  -1.207  0.00  0.00    -0.126 OA
ENDBRANCH   4   9
ENDBRANCH   1   2
BRANCH   1  13
ATOM     12  N   UNL     1       1.600  -5.278   1.214  0.00  0.00    -0.294 N 
ATOM     13  C   UNL     1       1.960  -5.890   2.359  0.00  0.00    +0.239 C 
ATOM     14  O   UNL     1       1.598  -7.027   2.579  0.00  0.00    -0.273 OA
ATOM     15  H   UNL     1       1.889  -4.369   1.038  0.00  0.00    +0.150 HD
BRANCH  12  16
ATOM     16  C   UNL     1       0.772  -5.985   0.234  0.00  0.00    +0.278 C 
BRANCH  16  17
ATOM     17  S   UNL     1      -0.972  -5.564   0.500  0.00  0.00    +0.013 S 
ATOM     18  O   UNL     1      -1.296  -5.666   1.879  0.00  0.00    -0.168 OA
ATOM     19  O   UNL     1      -1.783  -6.193  -0.483  0.00  0.00    -0.168 OA
BRANCH  17  24
ATOM     20  C   UNL     1      -1.353   0.330  -0.735  0.00  0.00    +0.044 C 
ATOM     21  C   UNL     1      -1.258  -1.142  -0.427  0.00  0.00    -0.050 A 
ATOM     22  C   UNL     1      -1.449  -2.072  -1.431  0.00  0.00    +0.005 A 
ATOM     23  C   UNL     1      -1.362  -3.422  -1.148  0.00  0.00    +0.027 A 
ATOM     24  C   UNL     1      -1.083  -3.842   0.139  0.00  0.00    +0.090 A 
ATOM     25  C   UNL     1      -0.890  -2.912   1.143  0.00  0.00    +0.027 A 
ATOM     26  C   UNL     1      -0.973  -1.562   0.859  0.00  0.00    +0.005 A 
ENDBRANCH  17  24
ENDBRANCH  16  17
ENDBRANCH  12  16
ENDBRANCH   1  13
BRANCH   1  27
ATOM     27  N   UNL     1       3.063  -6.036   4.516  0.00  0.00    -0.289 N 
ATOM     28  C   UNL     1       3.895  -7.232   4.359  0.00  0.00    +0.133 C 
ATOM     29  C   UNL     1       2.528  -5.740   5.717  0.00  0.00    +0.219 C 
ATOM     30  O   UNL     1       2.693  -6.491   6.656  0.00  0.00    -0.275 OA
BRANCH  29  31
ATOM     31  C   UNL     1       1.726  -4.477   5.895  0.00  0.00    +0.075 C 
ATOM     32  C   UNL     1       2.648  -3.264   5.752  0.00  0.00    +0.013 C 
ATOM     33  C   UNL     1       1.834  -1.981   5.932  0.00  0.00    +0.001 C 
ATOM     34  C   UNL     1       1.194  -1.974   7.322  0.00  0.00    +0.000 C 
ATOM     35  C   UNL     1       0.272  -3.187   7.465  0.00  0.00    +0.001 C 
ATOM     36  C   UNL     1       1.087  -4.470   7.285  0.00  0.00    +0.013 C 
ENDBRANCH  29  31
ENDBRANCH   1  27
TORSDOF 8
