REMARK  Name = ZINC39446483
REMARK  6 active torsions:
REMARK  status: ('A' for Active; 'I' for Inactive)
REMARK    1  A    between atoms: C_4  and  N_7
REMARK    2  A    between atoms: C_9  and  C_20
REMARK    3  A    between atoms: C_10  and  C_13
REMARK    4  A    between atoms: C_20  and  O_22
REMARK    5  A    between atoms: O_22  and  C_23
REMARK    6  A    between atoms: C_23  and  C_24
REMARK                            x       y       z     vdW  Elec       q    Type
REMARK                         _______ _______ _______ _____ _____    ______ ____
ROOT
ATOM      1  N   UNL     1       3.620  -0.650  -0.036  0.00  0.00    -0.242 N 
ATOM      2  C   UNL     1       4.833  -0.039  -0.039  0.00  0.00    +0.106 C 
ATOM      3  C   UNL     1       5.840  -0.938  -0.055  0.00  0.00    +0.075 C 
ATOM      4  C   UNL     1       5.186  -2.304  -0.063  0.00  0.00    +0.141 C 
ATOM      5  N   UNL     1       3.739  -2.009  -0.045  0.00  0.00    -0.224 NA
ATOM      6  H   UNL     1       3.295  -2.415   0.765  0.00  0.00    +0.146 HD
ENDROOT
BRANCH   4   7
ATOM      7  C   UNL     1       5.579  -3.086   1.164  0.00  0.00    -0.024 A 
ATOM      8  C   UNL     1       4.943  -2.847   2.368  0.00  0.00    +0.008 A 
ATOM      9  C   UNL     1       5.303  -3.563   3.494  0.00  0.00    +0.038 A 
ATOM     10  C   UNL     1       6.300  -4.520   3.416  0.00  0.00    +0.123 A 
ATOM     11  C   UNL     1       6.936  -4.758   2.209  0.00  0.00    +0.038 A 
ATOM     12  C   UNL     1       6.571  -4.045   1.084  0.00  0.00    +0.008 A 
ATOM     13  F   UNL     1       6.653  -5.220   4.516  0.00  0.00    -0.205 F 
ENDBRANCH   4   7
BRANCH   1  17
ATOM     14  C   UNL     1      -0.017   1.379   0.010  0.00  0.00    +0.000 A 
ATOM     15  C   UNL     1       1.169   2.090   0.002  0.00  0.00    +0.002 A 
ATOM     16  C   UNL     1       2.377   1.420  -0.013  0.00  0.00    +0.025 A 
ATOM     17  C   UNL     1       2.400   0.031  -0.021  0.00  0.00    +0.049 A 
ATOM     18  C   UNL     1       1.206  -0.680  -0.013  0.00  0.00    +0.025 A 
ATOM     19  C   UNL     1       0.002  -0.004   0.002  0.00  0.00    +0.002 A 
ENDBRANCH   1  17
BRANCH   3  20
ATOM     20  C   UNL     1       7.224  -0.661  -0.062  0.00  0.00    +0.339 C 
ATOM     21  O   UNL     1       7.614   0.492  -0.054  0.00  0.00    -0.245 OA
BRANCH  20  22
ATOM     22  O   UNL     1       8.115  -1.675  -0.079  0.00  0.00    -0.453 OA
BRANCH  22  23
ATOM     23  C   UNL     1       9.500  -1.321  -0.085  0.00  0.00    +0.306 C 
BRANCH  23  24
ATOM     24  C   UNL     1      10.338  -2.574  -0.103  0.00  0.00    +0.148 A 
ATOM     25  N   UNL     1      11.691  -2.446  -0.107  0.00  0.00    -0.307 N 
ATOM     26  H   UNL     1      12.100  -1.566  -0.097  0.00  0.00    +0.170 HD
ATOM     27  C   UNL     1      12.463  -3.559  -0.123  0.00  0.00    +0.266 A 
ATOM     28  O   UNL     1      13.680  -3.478  -0.126  0.00  0.00    -0.267 OA
ATOM     29  C   UNL     1      11.827  -4.801  -0.136  0.00  0.00    +0.102 A 
ATOM     30  C   UNL     1      10.425  -4.905  -0.132  0.00  0.00    +0.085 A 
ATOM     31  N   UNL     1       9.733  -3.719  -0.110  0.00  0.00    -0.230 NA
ATOM     32  C   UNL     1       9.917  -6.211  -0.146  0.00  0.00    +0.036 A 
ATOM     33  C   UNL     1      10.759  -7.267  -0.161  0.00  0.00    +0.048 A 
ATOM     34  S   UNL     1      12.366  -6.490  -0.158  0.00  0.00    -0.090 S 
ENDBRANCH  23  24
ENDBRANCH  22  23
ENDBRANCH  20  22
ENDBRANCH   3  20
TORSDOF 6
