REMARK  Name = ZINC05438273
REMARK  8 active torsions:
REMARK  status: ('A' for Active; 'I' for Inactive)
REMARK    1  A    between atoms: C_4  and  C_7
REMARK    2  A    between atoms: C_10  and  C_13
REMARK    3  A    between atoms: C_13  and  N_14
REMARK    4  A    between atoms: N_14  and  C_15
REMARK    5  A    between atoms: C_25  and  N_27
REMARK    6  A    between atoms: C_29  and  C_32
REMARK    7  A    between atoms: C_32  and  O_33
REMARK    8  A    between atoms: O_33  and  C_34
REMARK                            x       y       z     vdW  Elec       q    Type
REMARK                         _______ _______ _______ _____ _____    ______ ____
ROOT
ATOM      1  C   UNL     1       9.156  -3.734   1.278  0.00  0.00    -0.013 C 
ATOM      2  C   UNL     1      10.278  -2.817   0.742  0.00  0.00    +0.147 C 
ATOM      3  O   UNL     1      11.437  -3.147   1.539  0.00  0.00    -0.373 OA
ATOM      4  C   UNL     1      10.938  -3.302   2.882  0.00  0.00    +0.172 C 
ATOM      5  C   UNL     1       9.601  -4.081   2.718  0.00  0.00    +0.137 C 
ATOM      6  O   UNL     1       9.924  -5.473   2.774  0.00  0.00    -0.373 OA
ATOM      7  C   UNL     1      11.228  -5.676   3.316  0.00  0.00    +0.189 C 
ATOM      8  C   UNL     1      11.841  -4.282   3.655  0.00  0.00    +0.165 C 
ENDROOT
BRANCH   8   9
ATOM      9  N   UNL     1      11.768  -4.021   5.095  0.00  0.00    -0.243 N 
ATOM     10  C   UNL     1      10.837  -4.514   5.944  0.00  0.00    +0.137 A 
ATOM     11  C   UNL     1      11.145  -4.023   7.167  0.00  0.00    +0.120 A 
ATOM     12  N   UNL     1      12.235  -3.264   7.009  0.00  0.00    -0.131 NA
ATOM     13  N   UNL     1      12.583  -3.288   5.770  0.00  0.00    -0.065 NA
BRANCH  11  14
ATOM     14  C   UNL     1      10.405  -4.281   8.454  0.00  0.00    +0.287 C 
BRANCH  14  15
ATOM     15  O   UNL     1       9.295  -5.144   8.201  0.00  0.00    -0.486 OA
BRANCH  15  16
ATOM     16  C   UNL     1       8.517  -5.477   9.264  0.00  0.00    +0.121 A 
ATOM     17  C   UNL     1       8.813  -4.979  10.525  0.00  0.00    +0.045 A 
ATOM     18  C   UNL     1       8.021  -5.320  11.604  0.00  0.00    +0.004 A 
ATOM     19  C   UNL     1       6.934  -6.156  11.430  0.00  0.00    +0.000 A 
ATOM     20  C   UNL     1       6.637  -6.654  10.174  0.00  0.00    +0.004 A 
ATOM     21  C   UNL     1       7.422  -6.312   9.091  0.00  0.00    +0.045 A 
ENDBRANCH  15  16
ENDBRANCH  14  15
ENDBRANCH  11  14
ENDBRANCH   8   9
BRANCH   1  22
ATOM     22  N   UNL     1       7.872  -3.019   1.294  0.00  0.00    +0.387 N 
ATOM     23  H   UNL     1       7.983  -2.140   1.778  0.00  0.00    -0.085 HD
ATOM     24  H   UNL     1       7.182  -3.580   1.770  0.00  0.00    -0.085 HD
BRANCH  22  25
ATOM     25  C   UNL     1       7.434  -2.768  -0.085  0.00  0.00    -0.046 C 
BRANCH  25  29
ATOM     26  C   UNL     1       3.699  -0.689  -0.037  0.00  0.00    -0.018 A 
ATOM     27  C   UNL     1       4.896   0.024  -0.040  0.00  0.00    +0.009 A 
ATOM     28  C   UNL     1       6.099  -0.652  -0.055  0.00  0.00    +0.002 A 
ATOM     29  C   UNL     1       6.118  -2.035  -0.068  0.00  0.00    -0.064 A 
ATOM     30  C   UNL     1       4.932  -2.748  -0.066  0.00  0.00    +0.002 A 
ATOM     31  C   UNL     1       3.724  -2.082  -0.045  0.00  0.00    +0.009 A 
BRANCH  26  35
ATOM     32  C   UNL     1      -0.017   1.379   0.010  0.00  0.00    +0.000 A 
ATOM     33  C   UNL     1       1.169   2.092   0.002  0.00  0.00    +0.001 A 
ATOM     34  C   UNL     1       2.377   1.426  -0.013  0.00  0.00    +0.008 A 
ATOM     35  C   UNL     1       2.402   0.033  -0.021  0.00  0.00    -0.018 A 
ATOM     36  C   UNL     1       1.205  -0.680  -0.013  0.00  0.00    +0.008 A 
ATOM     37  C   UNL     1       0.002  -0.004   0.002  0.00  0.00    +0.001 A 
ENDBRANCH  26  35
ENDBRANCH  25  29
ENDBRANCH  22  25
ENDBRANCH   1  22
TORSDOF 8
