REMARK  Name = ZINC60340538
REMARK  9 active torsions:
REMARK  status: ('A' for Active; 'I' for Inactive)
REMARK    1  A    between atoms: C_1  and  C_2
REMARK    2  A    between atoms: C_2  and  C_3
REMARK    3  A    between atoms: C_2  and  C_4
REMARK    4  A    between atoms: C_7  and  C_10
REMARK    5  A    between atoms: C_12  and  C_15
REMARK    6  A    between atoms: N_17  and  C_18
REMARK    7  A    between atoms: C_19  and  C_24
REMARK    8  A    between atoms: N_22  and  C_23
REMARK    9  A    between atoms: C_26  and  C_29
REMARK                            x       y       z     vdW  Elec       q    Type
REMARK                         _______ _______ _______ _____ _____    ______ ____
ROOT
ATOM      1  C   UNL     1      -8.110  -3.837  -1.653  0.00  0.00    +0.268 C 
ATOM      2  O   UNL     1      -9.287  -4.101  -1.502  0.00  0.00    -0.268 OA
ATOM      3  N   UNL     1      -7.431  -4.354  -2.696  0.00  0.00    -0.265 N 
ATOM      4  H   UNL     1      -6.517  -4.077  -2.865  0.00  0.00    +0.157 HD
ENDROOT
BRANCH   3   5
ATOM      5  C   UNL     1      -8.041  -5.279  -3.529  0.00  0.00    +0.136 A 
ATOM      6  C   UNL     1      -7.773  -5.479  -4.878  0.00  0.00    +0.099 A 
ATOM      7  C   UNL     1      -8.623  -6.517  -5.321  0.00  0.00    +0.149 A 
ATOM      8  N   UNL     1      -9.347  -6.910  -4.310  0.00  0.00    -0.177 NA
ATOM      9  N   UNL     1      -9.002  -6.160  -3.179  0.00  0.00    -0.253 N 
ATOM     10  C   UNL     1      -9.587  -6.305  -1.844  0.00  0.00    +0.174 C 
BRANCH   6  11
ATOM     11  C   UNL     1      -6.789  -4.746  -5.692  0.00  0.00    +0.263 A 
ATOM     12  N   UNL     1      -6.545  -4.939  -6.972  0.00  0.00    -0.191 NA
ATOM     13  C   UNL     1      -5.593  -4.100  -7.385  0.00  0.00    +0.175 A 
ATOM     14  N   UNL     1      -5.211  -3.360  -6.383  0.00  0.00    -0.061 NA
ATOM     15  O   UNL     1      -5.984  -3.758  -5.261  0.00  0.00    -0.333 OA
BRANCH  13  16
ATOM     16  C   UNL     1      -5.046  -4.023  -8.787  0.00  0.00    +0.060 C 
ATOM     17  C   UNL     1      -3.819  -3.138  -9.018  0.00  0.00    +0.012 C 
ATOM     18  C   UNL     1      -5.190  -2.692  -9.529  0.00  0.00    +0.012 C 
ENDBRANCH  13  16
ENDBRANCH   6  11
ENDBRANCH   3   5
BRANCH   1  21
ATOM     19  C   UNL     1      -5.566  -1.862   0.032  0.00  0.00    +0.109 A 
ATOM     20  N   UNL     1      -6.141  -2.659  -0.850  0.00  0.00    -0.234 NA
ATOM     21  C   UNL     1      -7.424  -2.953  -0.695  0.00  0.00    +0.134 A 
ATOM     22  C   UNL     1      -8.104  -2.422   0.370  0.00  0.00    +0.080 A 
ATOM     23  S   UNL     1      -6.917  -1.516   1.145  0.00  0.00    -0.075 S 
BRANCH  19  27
ATOM     24  C   UNL     1      -1.547  -0.495   0.189  0.00  0.00    -0.045 A 
ATOM     25  C   UNL     1      -2.447  -0.102   1.163  0.00  0.00    +0.004 A 
ATOM     26  C   UNL     1      -3.753  -0.542   1.118  0.00  0.00    +0.011 A 
ATOM     27  C   UNL     1      -4.167  -1.385   0.086  0.00  0.00    +0.007 A 
ATOM     28  C   UNL     1      -3.255  -1.778  -0.894  0.00  0.00    +0.011 A 
ATOM     29  C   UNL     1      -1.952  -1.326  -0.840  0.00  0.00    +0.004 A 
BRANCH  24  31
ATOM     30  C   UNL     1      -0.099   1.519   0.183  0.00  0.00    +0.012 C 
ATOM     31  C   UNL     1      -0.121  -0.010   0.245  0.00  0.00    +0.013 C 
ATOM     32  C   UNL     1       0.526  -0.477   1.550  0.00  0.00    +0.012 C 
ENDBRANCH  24  31
ENDBRANCH  19  27
ENDBRANCH   1  21
TORSDOF 6
