REMARK  Name = ZINC04197295
REMARK  13 active torsions:
REMARK  status: ('A' for Active; 'I' for Inactive)
REMARK    1  A    between atoms: C_1  and  C_2
REMARK    2  A    between atoms: C_7  and  N_8
REMARK    3  A    between atoms: C_17  and  S_18
REMARK    4  A    between atoms: S_18  and  C_19
REMARK    5  A    between atoms: C_19  and  C_21
REMARK    6  A    between atoms: C_19  and  C_22
REMARK    7  A    between atoms: N_24  and  C_25
REMARK    8  A    between atoms: N_24  and  C_29
REMARK    9  A    between atoms: C_25  and  C_26
REMARK   10  A    between atoms: C_26  and  N_65
REMARK   11  A    between atoms: C_27  and  N_65
REMARK   12  A    between atoms: C_28  and  N_65
REMARK   13  A    between atoms: C_29  and  C_30
REMARK                            x       y       z     vdW  Elec       q    Type
REMARK                         _______ _______ _______ _____ _____    ______ ____
ROOT
ATOM      1  S   UNL     1      -2.025   1.828   2.929  0.00  0.00    -0.075 S 
ENDROOT
BRANCH   1  11
ATOM      2  N   UNL     1      -2.194   2.087   0.235  0.00  0.00    -0.255 N 
ATOM      3  C   UNL     1      -2.732   1.895  -0.984  0.00  0.00    +0.267 A 
ATOM      4  O   UNL     1      -2.216   2.391  -1.971  0.00  0.00    -0.267 OA
ATOM      5  C   UNL     1      -3.912   1.097  -1.106  0.00  0.00    +0.073 A 
ATOM      6  C   UNL     1      -4.665   0.747  -2.299  0.00  0.00    +0.023 A 
ATOM      7  C   UNL     1      -5.761  -0.018  -2.181  0.00  0.00    +0.048 A 
ATOM      8  S   UNL     1      -5.861  -0.330  -0.428  0.00  0.00    -0.077 S 
ATOM      9  C   UNL     1      -4.428   0.577   0.096  0.00  0.00    +0.116 A 
ATOM     10  N   UNL     1      -3.852   0.808   1.269  0.00  0.00    -0.216 NA
ATOM     11  C   UNL     1      -2.761   1.543   1.353  0.00  0.00    +0.178 A 
BRANCH   2  18
ATOM     12  C   UNL     1      -2.488   4.886   0.653  0.00  0.00    +0.046 C 
ATOM     13  C   UNL     1      -1.133   4.233   0.565  0.00  0.00    -0.026 A 
ATOM     14  C   UNL     1       0.012   4.996   0.682  0.00  0.00    +0.005 A 
ATOM     15  C   UNL     1       1.255   4.397   0.602  0.00  0.00    +0.000 A 
ATOM     16  C   UNL     1       1.357   3.032   0.404  0.00  0.00    +0.002 A 
ATOM     17  C   UNL     1       0.216   2.263   0.286  0.00  0.00    +0.026 A 
ATOM     18  C   UNL     1      -1.034   2.863   0.360  0.00  0.00    +0.055 A 
ENDBRANCH   2  18
ENDBRANCH   1  11
BRANCH   1  19
ATOM     19  C   UNL     1      -3.167   0.900   3.982  0.00  0.00    +0.137 C 
ATOM     20  C   UNL     1      -3.082  -0.589   3.639  0.00  0.00    +0.029 C 
BRANCH  19  21
ATOM     21  C   UNL     1      -2.796   1.104   5.428  0.00  0.00    +0.229 C 
ATOM     22  O   UNL     1      -1.656   1.394   5.726  0.00  0.00    -0.274 OA
ATOM     23  N   UNL     1      -3.729   0.965   6.390  0.00  0.00    -0.298 N 
BRANCH  23  24
ATOM     24  C   UNL     1      -5.073   0.496   6.044  0.00  0.00    +0.089 C 
BRANCH  24  25
ATOM     25  C   UNL     1      -5.158  -1.016   6.264  0.00  0.00    -0.060 C 
BRANCH  25  28
ATOM     26  C   UNL     1      -6.833  -1.315   4.542  0.00  0.00    -0.097 C 
ATOM     27  C   UNL     1      -6.707  -2.872   6.392  0.00  0.00    -0.097 C 
ATOM     28  N   UNL     1      -6.539  -1.462   5.983  0.00  0.00    +0.377 N 
ATOM     29  H   UNL     1      -7.193  -0.879   6.518  0.00  0.00    -0.083 HD
ENDBRANCH  25  28
ENDBRANCH  24  25
ENDBRANCH  23  24
BRANCH  23  30
ATOM     30  C   UNL     1      -3.400   1.284   7.782  0.00  0.00    +0.142 C 
BRANCH  30  31
ATOM     31  C   UNL     1      -3.703   2.736   8.050  0.00  0.00    -0.030 A 
ATOM     32  C   UNL     1      -2.727   3.694   7.848  0.00  0.00    +0.005 A 
ATOM     33  C   UNL     1      -3.006   5.026   8.089  0.00  0.00    +0.000 A 
ATOM     34  C   UNL     1      -4.257   5.399   8.541  0.00  0.00    +0.000 A 
ATOM     35  C   UNL     1      -5.232   4.441   8.749  0.00  0.00    +0.000 A 
ATOM     36  C   UNL     1      -4.954   3.109   8.502  0.00  0.00    +0.005 A 
ENDBRANCH  30  31
ENDBRANCH  23  30
ENDBRANCH  19  21
ENDBRANCH   1  19
TORSDOF 9
