REMARK  Name = ZINC41585690
REMARK  12 active torsions:
REMARK  status: ('A' for Active; 'I' for Inactive)
REMARK    1  A    between atoms: C_1  and  C_2
REMARK    2  A    between atoms: C_4  and  O_38
REMARK    3  A    between atoms: C_5  and  C_23
REMARK    4  A    between atoms: C_11  and  C_12
REMARK    5  A    between atoms: C_14  and  O_20
REMARK    6  A    between atoms: C_17  and  O_18
REMARK    7  A    between atoms: O_18  and  C_19
REMARK    8  A    between atoms: O_20  and  C_21
REMARK    9  A    between atoms: C_23  and  N_24
REMARK   10  A    between atoms: N_27  and  C_30
REMARK   11  A    between atoms: C_33  and  O_36
REMARK   12  A    between atoms: O_36  and  C_37
REMARK                            x       y       z     vdW  Elec       q    Type
REMARK                         _______ _______ _______ _____ _____    ______ ____
ROOT
ATOM      1  C   UNL     1       0.924  -0.047  -2.036  0.00  0.00    +0.045 C 
ATOM      2  C   UNL     1       1.432  -1.442  -1.776  0.00  0.00    -0.033 A 
ATOM      3  C   UNL     1       2.080  -2.129  -2.764  0.00  0.00    +0.050 A 
ATOM      4  C   UNL     1       2.550  -3.418  -2.526  0.00  0.00    +0.122 A 
ATOM      5  C   UNL     1       2.367  -4.018  -1.291  0.00  0.00    +0.020 A 
ATOM      6  C   UNL     1       1.710  -3.333  -0.276  0.00  0.00    +0.145 A 
ATOM      7  C   UNL     1       1.246  -2.031  -0.526  0.00  0.00    +0.071 A 
ATOM      8  C   UNL     1       0.611  -1.570   0.722  0.00  0.00    +0.232 C 
ATOM      9  O   UNL     1       0.075  -0.496   0.933  0.00  0.00    -0.283 OA
ATOM     10  C   UNL     1       0.767  -2.696   1.653  0.00  0.00    +0.176 C 
ATOM     11  C   UNL     1       0.334  -2.740   2.940  0.00  0.00    +0.062 C 
ATOM     12  O   UNL     1       1.410  -3.688   0.992  0.00  0.00    -0.451 OA
ENDROOT
BRANCH  11  13
ATOM     13  C   UNL     1       0.515  -3.960   3.734  0.00  0.00    +0.024 A 
ATOM     14  C   UNL     1       0.919  -5.149   3.116  0.00  0.00    +0.057 A 
ATOM     15  C   UNL     1       1.087  -6.294   3.872  0.00  0.00    +0.121 A 
ATOM     16  C   UNL     1       0.857  -6.267   5.242  0.00  0.00    +0.049 A 
ATOM     17  C   UNL     1       0.458  -5.098   5.862  0.00  0.00    +0.050 A 
ATOM     18  C   UNL     1       0.290  -3.940   5.121  0.00  0.00    +0.128 A 
BRANCH  18  19
ATOM     19  O   UNL     1      -0.097  -2.791   5.732  0.00  0.00    -0.495 OA
ATOM     20  C   UNL     1      -0.307  -2.846   7.144  0.00  0.00    +0.277 C 
ENDBRANCH  18  19
BRANCH  15  21
ATOM     21  O   UNL     1       1.478  -7.450   3.272  0.00  0.00    -0.495 OA
ATOM     22  C   UNL     1       1.633  -8.596   4.112  0.00  0.00    +0.277 C 
ENDBRANCH  15  21
ENDBRANCH  11  13
BRANCH   4  23
ATOM     23  O   UNL     1       3.192  -4.093  -3.514  0.00  0.00    -0.506 OA
ATOM     24  H   UNL     1       4.149  -3.957  -3.525  0.00  0.00    +0.292 HD
ENDBRANCH   4  23
BRANCH   5  25
ATOM     25  C   UNL     1       2.879  -5.415  -1.048  0.00  0.00    -0.035 C 
BRANCH  25  26
ATOM     26  N   UNL     1       4.255  -5.349  -0.538  0.00  0.00    +0.385 N 
ATOM     27  C   UNL     1       4.258  -4.690   0.774  0.00  0.00    -0.059 C 
ATOM     28  C   UNL     1       5.703  -4.518   1.255  0.00  0.00    +0.086 C 
ATOM     29  N   UNL     1       6.360  -5.834   1.236  0.00  0.00    -0.333 N 
ATOM     30  C   UNL     1       6.266  -6.637   0.007  0.00  0.00    +0.086 C 
ATOM     31  C   UNL     1       4.795  -6.709  -0.415  0.00  0.00    -0.059 C 
ATOM     32  H   UNL     1       4.826  -4.819  -1.179  0.00  0.00    -0.081 HD
BRANCH  29  33
ATOM     33  C   UNL     1       7.055  -6.308   2.354  0.00  0.00    +0.030 A 
ATOM     34  C   UNL     1       7.560  -7.601   2.361  0.00  0.00    +0.027 A 
ATOM     35  C   UNL     1       8.246  -8.068   3.465  0.00  0.00    +0.047 A 
ATOM     36  C   UNL     1       8.431  -7.245   4.566  0.00  0.00    +0.120 A 
ATOM     37  C   UNL     1       7.926  -5.953   4.560  0.00  0.00    +0.047 A 
ATOM     38  C   UNL     1       7.245  -5.483   3.455  0.00  0.00    +0.027 A 
BRANCH  36  39
ATOM     39  O   UNL     1       9.107  -7.706   5.653  0.00  0.00    -0.495 OA
ATOM     40  C   UNL     1       9.260  -6.805   6.752  0.00  0.00    +0.277 C 
ENDBRANCH  36  39
ENDBRANCH  29  33
ENDBRANCH  25  26
ENDBRANCH   5  25
TORSDOF 8
