REMARK  Name = ZINC23739476
REMARK  8 active torsions:
REMARK  status: ('A' for Active; 'I' for Inactive)
REMARK    1  A    between atoms: C_4  and  C_7
REMARK    2  A    between atoms: C_7  and  C_9
REMARK    3  A    between atoms: C_7  and  N_28
REMARK    4  A    between atoms: C_9  and  N_10
REMARK    5  A    between atoms: C_11  and  C_13
REMARK    6  A    between atoms: C_13  and  C_14
REMARK    7  A    between atoms: C_14  and  C_15
REMARK    8  A    between atoms: C_15  and  N_16
REMARK                            x       y       z     vdW  Elec       q    Type
REMARK                         _______ _______ _______ _____ _____    ______ ____
ROOT
ATOM      1  N   UNL     1       2.794   5.552  -0.116  0.00  0.00    -0.317 N 
ATOM      2  C   UNL     1       2.357   4.308   0.163  0.00  0.00    +0.213 C 
ATOM      3  O   UNL     1       3.127   3.479   0.599  0.00  0.00    -0.276 OA
ATOM      4  H   UNL     1       2.096   6.304  -0.512  0.00  0.00    +0.149 HD
ENDROOT
BRANCH   1   5
ATOM      5  C   UNL     1       4.199   5.903   0.108  0.00  0.00    +0.093 C 
BRANCH   5   6
ATOM      6  C   UNL     1       4.393   7.402  -0.126  0.00  0.00    -0.020 C 
BRANCH   6  10
ATOM      7  C   UNL     1       8.528   8.386   0.302  0.00  0.00    +0.000 A 
ATOM      8  C   UNL     1       7.953   8.348  -0.955  0.00  0.00    +0.000 A 
ATOM      9  C   UNL     1       6.615   8.030  -1.093  0.00  0.00    +0.002 A 
ATOM     10  C   UNL     1       5.852   7.749   0.025  0.00  0.00    -0.059 A 
ATOM     11  C   UNL     1       6.426   7.792   1.282  0.00  0.00    +0.002 A 
ATOM     12  C   UNL     1       7.765   8.105   1.420  0.00  0.00    +0.000 A 
ENDBRANCH   6  10
BRANCH   6  13
ATOM     13  N   UNL     1       3.606   8.158   0.858  0.00  0.00    +0.385 N 
ATOM     14  C   UNL     1       3.985   9.594   0.854  0.00  0.00    -0.078 C 
ATOM     15  C   UNL     1       2.761  10.285   1.506  0.00  0.00    -0.020 C 
ATOM     16  C   UNL     1       1.569   9.475   0.948  0.00  0.00    -0.020 C 
ATOM     17  C   UNL     1       2.165   8.120   0.526  0.00  0.00    -0.078 C 
ATOM     18  H   UNL     1       3.808   7.684   1.830  0.00  0.00    -0.081 HD
ENDBRANCH   6  13
ENDBRANCH   5   6
ENDBRANCH   1   5
BRANCH   2  19
ATOM     19  C   UNL     1       0.913   3.947  -0.067  0.00  0.00    +0.097 C 
BRANCH  19  20
ATOM     20  C   UNL     1       0.683   2.487   0.327  0.00  0.00    +0.029 C 
BRANCH  20  21
ATOM     21  C   UNL     1      -0.784   2.120   0.093  0.00  0.00    +0.117 C 
BRANCH  21  22
ATOM     22  N   UNL     1      -1.004   0.722   0.470  0.00  0.00    -0.234 N 
ATOM     23  C   UNL     1      -0.880  -0.322  -0.370  0.00  0.00    +0.254 C 
ATOM     24  O   UNL     1      -0.573  -0.255  -1.543  0.00  0.00    -0.270 OA
ATOM     25  C   UNL     1      -1.178  -1.563   0.374  0.00  0.00    +0.049 A 
ATOM     26  C   UNL     1      -1.208  -2.908   0.040  0.00  0.00    +0.015 A 
ATOM     27  C   UNL     1      -1.542  -3.848   1.002  0.00  0.00    +0.016 A 
ATOM     28  C   UNL     1      -1.846  -3.453   2.292  0.00  0.00    +0.019 A 
ATOM     29  C   UNL     1      -1.821  -2.110   2.641  0.00  0.00    +0.029 A 
ATOM     30  C   UNL     1      -1.488  -1.160   1.689  0.00  0.00    +0.050 A 
ATOM     31  C   UNL     1      -1.363   0.313   1.700  0.00  0.00    +0.254 C 
ATOM     32  O   UNL     1      -1.552   1.033   2.660  0.00  0.00    -0.270 OA
ATOM     33 BR   UNL     1      -2.300  -4.752   3.590  0.00  0.00    -0.050 Br
ENDBRANCH  21  22
ENDBRANCH  20  21
ENDBRANCH  19  20
ENDBRANCH   2  19
TORSDOF 8
