REMARK  Name = ZINC14856409
REMARK  9 active torsions:
REMARK  status: ('A' for Active; 'I' for Inactive)
REMARK    1  A    between atoms: C_1  and  C_2
REMARK    2  A    between atoms: C_2  and  O_3
REMARK    3  A    between atoms: O_3  and  C_4
REMARK    4  A    between atoms: C_4  and  C_6
REMARK    5  A    between atoms: C_10  and  N_11
REMARK    6  A    between atoms: C_12  and  C_14
REMARK    7  A    between atoms: C_14  and  C_16
REMARK    8  A    between atoms: C_14  and  N_66
REMARK    9  A    between atoms: N_26  and  C_31
REMARK                            x       y       z     vdW  Elec       q    Type
REMARK                         _______ _______ _______ _____ _____    ______ ____
ROOT
ATOM      1  C   UNL     1      -2.072   1.437   7.290  0.00  0.00    +0.017 C 
ATOM      2  C   UNL     1      -0.661   1.576   7.864  0.00  0.00    -0.004 C 
ENDROOT
BRANCH   1  18
ATOM      3  C   UNL     1      -2.565   3.710   7.965  0.00  0.00    -0.059 C 
ATOM      4  C   UNL     1      -3.590   4.589   8.686  0.00  0.00    +0.088 C 
ATOM      5  N   UNL     1      -3.713   4.149  10.082  0.00  0.00    -0.318 N 
ATOM      6  C   UNL     1      -4.140   2.745  10.154  0.00  0.00    +0.088 C 
ATOM      7  C   UNL     1      -3.115   1.866   9.433  0.00  0.00    -0.059 C 
ATOM      8  C   UNL     1      -4.578   4.966  10.784  0.00  0.00    +0.135 A 
ATOM      9  C   UNL     1      -4.362   6.356  10.852  0.00  0.00    +0.078 A 
ATOM     10  C   UNL     1      -3.386   7.236  10.336  0.00  0.00    +0.148 A 
ATOM     11  N   UNL     1      -3.680   8.447  10.716  0.00  0.00    -0.177 NA
ATOM     12  N   UNL     1      -4.847   8.428  11.491  0.00  0.00    -0.249 N 
ATOM     13  C   UNL     1      -5.278   7.138  11.582  0.00  0.00    +0.163 A 
ATOM     14  N   UNL     1      -6.307   6.535  12.176  0.00  0.00    -0.216 NA
ATOM     15  C   UNL     1      -6.466   5.234  12.085  0.00  0.00    +0.225 A 
ATOM     16  N   UNL     1      -5.636   4.460  11.407  0.00  0.00    -0.220 NA
ATOM     17  C   UNL     1      -5.492   9.594  12.099  0.00  0.00    +0.174 C 
ATOM     18  N   UNL     1      -3.017   2.304   8.025  0.00  0.00    +0.389 N 
ATOM     19  H   UNL     1      -3.944   2.233   7.588  0.00  0.00    -0.081 HD
ENDBRANCH   1  18
BRANCH   1  21
ATOM     20  N   UNL     1      -1.289   1.180   4.958  0.00  0.00    -0.281 N 
ATOM     21  C   UNL     1      -2.065   1.842   5.838  0.00  0.00    +0.204 C 
ATOM     22  O   UNL     1      -2.759   2.763   5.463  0.00  0.00    -0.277 OA
ATOM     23  H   UNL     1      -0.734   0.443   5.258  0.00  0.00    +0.155 HD
BRANCH  20  28
ATOM     24  C   UNL     1      -0.558   0.998   2.576  0.00  0.00    +0.091 A 
ATOM     25  C   UNL     1      -0.732   1.580   1.257  0.00  0.00    -0.021 A 
ATOM     26  C   UNL     1      -1.601   2.614   1.194  0.00  0.00    -0.004 A 
ATOM     27  S   UNL     1      -2.178   2.821   2.855  0.00  0.00    -0.077 S 
ATOM     28  C   UNL     1      -1.283   1.552   3.623  0.00  0.00    +0.086 A 
ATOM     29  C   UNL     1      -1.979   3.405  -0.021  0.00  0.00    +0.043 C 
ATOM     30  C   UNL     1      -0.956   3.111  -1.127  0.00  0.00    +0.005 C 
ATOM     31  C   UNL     1      -0.758   1.595  -1.227  0.00  0.00    +0.005 C 
ATOM     32  C   UNL     1      -0.013   1.086   0.008  0.00  0.00    +0.037 C 
BRANCH  24  33
ATOM     33  C   UNL     1       0.350  -0.130   2.793  0.00  0.00    +0.342 C 
ATOM     34  O   UNL     1      -0.061  -1.270   2.694  0.00  0.00    -0.245 OA
BRANCH  33  35
ATOM     35  O   UNL     1       1.643   0.096   3.104  0.00  0.00    -0.461 OA
BRANCH  35  37
ATOM     36  C   UNL     1       3.907  -0.617   3.648  0.00  0.00    +0.048 C 
ATOM     37  C   UNL     1       2.486  -1.069   3.306  0.00  0.00    +0.229 C 
ENDBRANCH  35  37
ENDBRANCH  33  35
ENDBRANCH  24  33
ENDBRANCH  20  28
ENDBRANCH   1  21
TORSDOF 6
