REMARK  Name = ZINC39710975
REMARK  12 active torsions:
REMARK  status: ('A' for Active; 'I' for Inactive)
REMARK    1  A    between atoms: C_1  and  C_2
REMARK    2  A    between atoms: C_8  and  C_14
REMARK    3  A    between atoms: C_14  and  C_16
REMARK    4  A    between atoms: C_14  and  N_26
REMARK    5  A    between atoms: N_21  and  C_22
REMARK    6  A    between atoms: C_22  and  C_23
REMARK    7  A    between atoms: C_22  and  C_24
REMARK    8  A    between atoms: C_22  and  C_25
REMARK    9  A    between atoms: N_26  and  C_27
REMARK   10  A    between atoms: N_26  and  C_33
REMARK   11  A    between atoms: C_27  and  C_28
REMARK   12  A    between atoms: C_33  and  C_34
REMARK                            x       y       z     vdW  Elec       q    Type
REMARK                         _______ _______ _______ _____ _____    ______ ____
ROOT
ATOM      1  C   UNL     1      -1.116  -2.558   4.272  0.00  0.00    -0.009 C 
ENDROOT
BRANCH   1   9
ATOM      2  C   UNL     1      -1.182   0.602  -0.990  0.00  0.00    +0.045 C 
ATOM      3  C   UNL     1      -1.021  -0.870  -0.713  0.00  0.00    -0.029 A 
ATOM      4  C   UNL     1      -1.171  -1.766  -1.722  0.00  0.00    +0.005 A 
ATOM      5  C   UNL     1      -1.035  -3.142  -1.534  0.00  0.00    +0.001 A 
ATOM      6  C   UNL     1      -0.741  -3.663  -0.315  0.00  0.00    +0.009 A 
ATOM      7  C   UNL     1      -0.566  -2.754   0.818  0.00  0.00    -0.007 A 
ATOM      8  C   UNL     1      -0.270  -3.232   2.060  0.00  0.00    -0.006 C 
ATOM      9  C   UNL     1      -0.106  -2.217   3.174  0.00  0.00    +0.088 C 
ATOM     10  C   UNL     1      -0.283  -0.758   2.818  0.00  0.00    +0.223 C 
ATOM     11  O   UNL     1      -0.163   0.098   3.673  0.00  0.00    -0.275 OA
ATOM     12  N   UNL     1      -0.570  -0.417   1.573  0.00  0.00    -0.284 N 
ATOM     13  C   UNL     1      -0.710  -1.306   0.589  0.00  0.00    +0.043 A 
ATOM     14  H   UNL     1      -0.680   0.524   1.365  0.00  0.00    +0.155 HD
ENDBRANCH   1   9
BRANCH   1  15
ATOM     15  C   UNL     1      -2.536  -2.353   3.739  0.00  0.00    +0.205 C 
ATOM     16  N   UNL     1      -2.829  -0.920   3.598  0.00  0.00    -0.152 NA
ATOM     17  N   UNL     1      -3.779  -0.634   4.329  0.00  0.00    -0.070 NA
ATOM     18  N   UNL     1      -4.264  -1.729   5.043  0.00  0.00    -0.179 N 
ATOM     19  N   UNL     1      -3.529  -2.842   4.718  0.00  0.00    -0.183 NA
ATOM     20  H   UNL     1      -5.005  -1.708   5.669  0.00  0.00    +0.191 HD
BRANCH  19  21
ATOM     21  C   UNL     1      -4.381  -3.884   4.128  0.00  0.00    +0.035 C 
ATOM     22  C   UNL     1      -3.504  -5.026   3.610  0.00  0.00    +0.029 C 
ATOM     23  C   UNL     1      -5.340  -4.421   5.192  0.00  0.00    +0.029 C 
ATOM     24  C   UNL     1      -5.184  -3.291   2.969  0.00  0.00    +0.029 C 
ENDBRANCH  19  21
ENDBRANCH   1  15
BRANCH   1  25
ATOM     25  N   UNL     1      -0.896  -1.680   5.429  0.00  0.00    +0.389 N 
ATOM     26  H   UNL     1      -1.129  -0.731   5.180  0.00  0.00    -0.081 HD
BRANCH  25  27
ATOM     27  C   UNL     1       0.514  -1.748   5.834  0.00  0.00    -0.035 C 
BRANCH  27  28
ATOM     28  C   UNL     1       0.871  -3.172   6.177  0.00  0.00    -0.027 A 
ATOM     29  C   UNL     1       1.449  -4.119   5.399  0.00  0.00    +0.009 A 
ATOM     30  C   UNL     1       1.685  -5.372   5.931  0.00  0.00    +0.008 A 
ATOM     31  C   UNL     1       1.332  -5.617   7.217  0.00  0.00    +0.045 A 
ATOM     32  S   UNL     1       0.648  -4.046   7.718  0.00  0.00    -0.103 S 
ENDBRANCH  27  28
ENDBRANCH  25  27
BRANCH  25  33
ATOM     33  C   UNL     1      -1.747  -2.118   6.544  0.00  0.00    -0.046 C 
BRANCH  33  34
ATOM     34  C   UNL     1      -1.561  -1.169   7.730  0.00  0.00    +0.102 C 
ATOM     35  C   UNL     1      -2.429  -1.639   8.917  0.00  0.00    +0.032 C 
ATOM     36  C   UNL     1      -2.949  -0.296   9.497  0.00  0.00    +0.030 C 
ATOM     37  C   UNL     1      -3.095   0.546   8.205  0.00  0.00    +0.160 C 
ATOM     38  O   UNL     1      -1.993   0.148   7.371  0.00  0.00    -0.378 OA
ENDBRANCH  33  34
ENDBRANCH  25  33
ENDBRANCH   1  25
TORSDOF 8
