REMARK  Name = ZINC11592232
REMARK  9 active torsions:
REMARK  status: ('A' for Active; 'I' for Inactive)
REMARK    1  A    between atoms: C_1  and  C_2
REMARK    2  A    between atoms: C_2  and  C_4
REMARK    3  A    between atoms: C_2  and  N_12
REMARK    4  A    between atoms: C_13  and  C_15
REMARK    5  A    between atoms: C_15  and  C_17
REMARK    6  A    between atoms: C_15  and  S_18
REMARK    7  A    between atoms: S_18  and  C_19
REMARK    8  A    between atoms: C_22  and  C_25
REMARK    9  A    between atoms: N_23  and  N_24
REMARK                            x       y       z     vdW  Elec       q    Type
REMARK                         _______ _______ _______ _____ _____    ______ ____
ROOT
ATOM      1  C   UNL     1       2.730   9.583  -0.038  0.00  0.00    +0.137 C 
ATOM      2  C   UNL     1       2.310   9.620   1.433  0.00  0.00    +0.029 C 
ENDROOT
BRANCH   1   4
ATOM      3  N   UNL     1       3.232  11.959  -0.512  0.00  0.00    -0.308 N 
ATOM      4  C   UNL     1       3.694  10.708  -0.314  0.00  0.00    +0.227 C 
ATOM      5  O   UNL     1       4.886  10.488  -0.357  0.00  0.00    -0.275 OA
ATOM      6  H   UNL     1       2.279  12.135  -0.477  0.00  0.00    +0.149 HD
BRANCH   3   8
ATOM      7  C   UNL     1       4.692  13.612   0.545  0.00  0.00    +0.033 C 
ATOM      8  C   UNL     1       4.170  13.052  -0.779  0.00  0.00    +0.102 C 
BRANCH   8   9
ATOM      9  C   UNL     1       3.465  14.143  -1.543  0.00  0.00    -0.009 A 
ATOM     10  C   UNL     1       2.093  14.278  -1.446  0.00  0.00    +0.008 A 
ATOM     11  C   UNL     1       1.446  15.282  -2.142  0.00  0.00    +0.020 A 
ATOM     12  C   UNL     1       2.170  16.145  -2.945  0.00  0.00    +0.042 A 
ATOM     13  C   UNL     1       3.543  16.006  -3.047  0.00  0.00    +0.040 A 
ATOM     14  C   UNL     1       4.190  15.005  -2.346  0.00  0.00    +0.047 A 
ATOM     15 CL   UNL     1       5.913  14.830  -2.474  0.00  0.00    -0.083 Cl
ATOM     16 CL   UNL     1       1.357  17.402  -3.824  0.00  0.00    -0.083 Cl
ENDBRANCH   8   9
ENDBRANCH   3   8
ENDBRANCH   1   4
BRANCH   1  17
ATOM     17  S   UNL     1       3.530   8.000  -0.397  0.00  0.00    -0.072 S 
BRANCH  17  18
ATOM     18  C   UNL     1       2.172   6.906  -0.144  0.00  0.00    +0.209 A 
ATOM     19  N   UNL     1       0.953   7.247   0.208  0.00  0.00    -0.121 NA
ATOM     20  N   UNL     1       0.212   6.201   0.304  0.00  0.00    -0.126 NA
ATOM     21  C   UNL     1       0.914   5.126   0.019  0.00  0.00    +0.188 A 
ATOM     22  N   UNL     1       2.193   5.545  -0.272  0.00  0.00    -0.223 N 
BRANCH  21  23
ATOM     23  C   UNL     1       0.426   3.737   0.017  0.00  0.00    +0.058 A 
ATOM     24  C   UNL     1      -0.866   3.275   0.026  0.00  0.00    +0.019 A 
ATOM     25  C   UNL     1      -1.081   1.915   0.017  0.00  0.00    +0.008 A 
ATOM     26  C   UNL     1      -0.013   1.076   0.008  0.00  0.00    +0.046 A 
ATOM     27  S   UNL     1       1.361   2.216   0.001  0.00  0.00    -0.093 S 
ENDBRANCH  21  23
BRANCH  22  28
ATOM     28  N   UNL     1       3.259   4.764  -0.618  0.00  0.00    -0.295 N 
ATOM     29  H   UNL     1       3.308   4.641  -1.618  0.00  0.00    +0.163 HD
ATOM     30  H   UNL     1       4.120   5.149  -0.259  0.00  0.00    +0.163 HD
ENDBRANCH  22  28
ENDBRANCH  17  18
ENDBRANCH   1  17
TORSDOF 7
