REMARK  Name = ZINC20567618
REMARK  5 active torsions:
REMARK  status: ('A' for Active; 'I' for Inactive)
REMARK    1  A    between atoms: C_1  and  C_2
REMARK    2  A    between atoms: C_2  and  C_3
REMARK    3  A    between atoms: C_3  and  C_4
REMARK    4  A    between atoms: C_4  and  N_5
REMARK    5  A    between atoms: C_14  and  C_27
REMARK                            x       y       z     vdW  Elec       q    Type
REMARK                         _______ _______ _______ _____ _____    ______ ____
ROOT
ATOM      1  N   UNL     1      -1.272   2.940   0.032  0.00  0.00    -0.225 N 
ATOM      2  C   UNL     1      -0.178   3.715   0.026  0.00  0.00    +0.240 C 
ATOM      3  O   UNL     1      -0.311   4.920   0.036  0.00  0.00    -0.274 OA
ATOM      4  C   UNL     1       1.206   3.133   0.006  0.00  0.00    +0.146 C 
ATOM      5  C   UNL     1       1.952   3.625  -1.237  0.00  0.00    +0.066 C 
ATOM      6  C   UNL     1       3.421   3.317  -1.099  0.00  0.00    -0.007 A 
ATOM      7  C   UNL     1       4.192   3.360  -2.226  0.00  0.00    +0.017 A 
ATOM      8  C   UNL     1       5.568   3.085  -2.115  0.00  0.00    -0.001 A 
ATOM      9  C   UNL     1       6.413   3.106  -3.235  0.00  0.00    +0.013 A 
ATOM     10  C   UNL     1       7.741   2.842  -3.082  0.00  0.00    -0.050 A 
ATOM     11  C   UNL     1       8.270   2.549  -1.827  0.00  0.00    +0.005 A 
ATOM     12  C   UNL     1       7.478   2.517  -0.721  0.00  0.00    +0.026 A 
ATOM     13  C   UNL     1       6.103   2.781  -0.839  0.00  0.00    +0.048 A 
ATOM     14  N   UNL     1       5.299   2.747   0.225  0.00  0.00    -0.343 N 
ATOM     15  C   UNL     1       3.998   2.996   0.133  0.00  0.00    +0.103 A 
ATOM     16  N   UNL     1       3.261   2.911   1.304  0.00  0.00    -0.312 N 
ATOM     17  C   UNL     1       1.980   3.612   1.241  0.00  0.00    +0.099 C 
ATOM     18  C   UNL     1       1.160   3.308   2.497  0.00  0.00    +0.024 C 
ATOM     19  C   UNL     1       1.948   3.748   3.734  0.00  0.00    +0.003 C 
ATOM     20  C   UNL     1       3.300   3.028   3.750  0.00  0.00    +0.019 C 
ATOM     21  C   UNL     1       4.057   3.347   2.459  0.00  0.00    +0.107 C 
ATOM     22  C   UNL     1       8.648   2.867  -4.285  0.00  0.00    +0.044 C 
ATOM     23  C   UNL     1       1.152   1.632  -0.000  0.00  0.00    +0.238 C 
ATOM     24  O   UNL     1       2.190   1.006  -0.012  0.00  0.00    -0.274 OA
ATOM     25  N   UNL     1      -0.011   0.966   0.007  0.00  0.00    -0.239 N 
ATOM     26  C   UNL     1      -1.193   1.601   0.017  0.00  0.00    +0.315 C 
ATOM     27  O   UNL     1      -2.217   0.947   0.016  0.00  0.00    -0.252 OA
ATOM     28  H   UNL     1      -0.015  -0.134   0.006  0.00  0.00    +0.159 HD
ATOM     29  H   UNL     1       5.709   2.508   1.217  0.00  0.00    +0.167 HD
ENDROOT
BRANCH   1  30
ATOM     30  C   UNL     1      -2.593   3.574   0.050  0.00  0.00    +0.118 C 
BRANCH  30  31
ATOM     31  C   UNL     1      -3.067   3.804  -1.387  0.00  0.00    +0.019 C 
BRANCH  31  33
ATOM     32  C   UNL     1      -4.921   4.696  -2.804  0.00  0.00    +0.004 C 
ATOM     33  C   UNL     1      -4.447   4.466  -1.368  0.00  0.00    -0.002 C 
ENDBRANCH  31  33
ENDBRANCH  30  31
ENDBRANCH   1  30
TORSDOF 3
