REMARK  Name = ZINC08744232
REMARK  5 active torsions:
REMARK  status: ('A' for Active; 'I' for Inactive)
REMARK    1  A    between atoms: C_1  and  N_2
REMARK    2  A    between atoms: N_7  and  C_10
REMARK    3  A    between atoms: N_16  and  C_17
REMARK    4  A    between atoms: C_17  and  C_18
REMARK    5  A    between atoms: C_18  and  C_20
REMARK                            x       y       z     vdW  Elec       q    Type
REMARK                         _______ _______ _______ _____ _____    ______ ____
ROOT
ATOM      1  C   UNL     1      -3.877   3.161   1.905  0.00  0.00    +0.155 C 
ATOM      2  N   UNL     1      -2.457   2.832   2.049  0.00  0.00    -0.279 N 
ATOM      3  C   UNL     1      -1.858   2.882   3.299  0.00  0.00    +0.172 A 
ATOM      4  C   UNL     1      -0.506   2.565   3.408  0.00  0.00    +0.174 A 
ATOM      5  C   UNL     1       0.208   2.205   2.252  0.00  0.00    +0.284 A 
ATOM      6  O   UNL     1       1.391   1.923   2.323  0.00  0.00    -0.265 OA
ATOM      7  N   UNL     1      -0.429   2.175   1.063  0.00  0.00    -0.262 N 
ATOM      8  C   UNL     1      -1.733   2.488   0.968  0.00  0.00    +0.333 A 
ATOM      9  O   UNL     1      -2.272   2.455  -0.121  0.00  0.00    -0.246 OA
ATOM     10  C   UNL     1       0.313   1.802  -0.143  0.00  0.00    +0.157 C 
ATOM     11  N   UNL     1      -0.182   2.696   4.748  0.00  0.00    -0.207 N 
ATOM     12  C   UNL     1      -1.320   3.081   5.401  0.00  0.00    +0.256 A 
ATOM     13  N   UNL     1      -2.304   3.184   4.517  0.00  0.00    -0.191 NA
ATOM     14  N   UNL     1      -1.022   3.213   6.708  0.00  0.00    -0.177 NA
ATOM     15  C   UNL     1       0.247   2.932   6.913  0.00  0.00    +0.217 A 
ATOM     16  N   UNL     1       0.825   2.600   5.717  0.00  0.00    -0.239 N 
ATOM     17  N   UNL     1       0.884   2.965   8.123  0.00  0.00    -0.295 N 
ATOM     18  C   UNL     1       0.289   1.999   9.058  0.00  0.00    +0.136 C 
ATOM     19  C   UNL     1       1.068   2.026  10.376  0.00  0.00    +0.179 C 
ATOM     20  O   UNL     1       1.065   3.358  10.898  0.00  0.00    -0.377 OA
ATOM     21  C   UNL     1       1.637   4.325  10.013  0.00  0.00    +0.179 C 
ATOM     22  C   UNL     1       0.864   4.320   8.692  0.00  0.00    +0.136 C 
ENDROOT
BRANCH  16  23
ATOM     23  C   UNL     1       2.222   2.220   5.495  0.00  0.00    +0.225 C 
BRANCH  23  24
ATOM     24  C   UNL     1       3.016   3.436   5.092  0.00  0.00    +0.184 C 
ATOM     25  O   UNL     1       2.468   4.514   5.000  0.00  0.00    -0.290 OA
BRANCH  24  26
ATOM     26  C   UNL     1       4.454   3.315   4.811  0.00  0.00    +0.019 A 
ATOM     27  C   UNL     1       5.090   2.074   4.921  0.00  0.00    +0.013 A 
ATOM     28  C   UNL     1       6.437   1.967   4.651  0.00  0.00    +0.020 A 
ATOM     29  C   UNL     1       7.164   3.088   4.281  0.00  0.00    +0.041 A 
ATOM     30  C   UNL     1       6.542   4.321   4.175  0.00  0.00    +0.020 A 
ATOM     31  C   UNL     1       5.194   4.442   4.436  0.00  0.00    +0.013 A 
ATOM     32 CL   UNL     1       8.862   2.945   3.949  0.00  0.00    -0.084 Cl
ENDBRANCH  24  26
ENDBRANCH  23  24
ENDBRANCH  16  23
TORSDOF 3
