REMARK  Name = ZINC39467187
REMARK  4 active torsions:
REMARK  status: ('A' for Active; 'I' for Inactive)
REMARK    1  A    between atoms: C_1  and  O_2
REMARK    2  A    between atoms: O_2  and  C_3
REMARK    3  A    between atoms: P_12  and  C_22
REMARK    4  A    between atoms: C_27  and  O_28
REMARK                            x       y       z     vdW  Elec       q    Type
REMARK                         _______ _______ _______ _____ _____    ______ ____
ROOT
ATOM      1  C   UNL     1      -1.200  -0.637   0.010  0.00  0.00    +0.134 C 
ATOM      2  C   UNL     1      -2.333   0.070   0.019  0.00  0.00    +0.024 C 
ATOM      3  C   UNL     1      -3.659  -0.642   0.018  0.00  0.00    +0.019 C 
ATOM      4  C   UNL     1      -4.741   0.253  -0.570  0.00  0.00    -0.002 C 
ATOM      5  C   UNL     1      -5.881  -0.579  -1.173  0.00  0.00    -0.020 C 
ATOM      6  C   UNL     1      -7.140   0.291  -1.047  0.00  0.00    +0.157 C 
ATOM      7  O   UNL     1      -8.274  -0.384  -1.613  0.00  0.00    -0.316 OA
ATOM      8  P   UNL     1      -8.555  -1.910  -1.122  0.00  0.00    +0.291 P 
ATOM      9  O   UNL     1      -9.389  -2.626  -2.114  0.00  0.00    -0.269 OA
ATOM     10  N   UNL     1      -7.062  -2.602  -1.023  0.00  0.00    -0.288 NA
ATOM     11  N   UNL     1      -6.034  -1.855  -0.484  0.00  0.00    +0.398 N 
ATOM     12  C   UNL     1      -4.854  -2.720  -0.642  0.00  0.00    -0.046 C 
ATOM     13  C   UNL     1      -3.563  -1.910  -0.828  0.00  0.00    +0.006 C 
ATOM     14  C   UNL     1      -2.374  -2.724  -0.391  0.00  0.00    -0.001 C 
ATOM     15  C   UNL     1      -1.263  -2.112   0.003  0.00  0.00    +0.079 C 
ATOM     16 CL   UNL     1       0.108  -3.046   0.514  0.00  0.00    -0.080 Cl
ATOM     17  H   UNL     1      -6.916  -3.510  -1.330  0.00  0.00    +0.111 HD
ATOM     18  H   UNL     1      -6.202  -1.690   0.497  0.00  0.00    -0.055 HD
ENDROOT
BRANCH   8  19
ATOM     19  C   UNL     1      -9.365  -1.913   0.500  0.00  0.00    +0.091 A 
ATOM     20  C   UNL     1      -8.604  -1.933   1.653  0.00  0.00    +0.018 A 
ATOM     21  C   UNL     1      -9.221  -1.935   2.891  0.00  0.00    +0.001 A 
ATOM     22  C   UNL     1     -10.601  -1.917   2.977  0.00  0.00    +0.004 A 
ATOM     23  C   UNL     1     -11.367  -1.897   1.828  0.00  0.00    +0.046 A 
ATOM     24  C   UNL     1     -10.750  -1.889   0.585  0.00  0.00    +0.131 A 
BRANCH  24  25
ATOM     25  O   UNL     1     -11.500  -1.863  -0.547  0.00  0.00    -0.506 OA
ATOM     26  H   UNL     1     -11.733  -2.739  -0.885  0.00  0.00    +0.292 HD
ENDBRANCH  24  25
ENDBRANCH   8  19
BRANCH   1  28
ATOM     27  C   UNL     1      -0.017   1.425   0.010  0.00  0.00    +0.277 C 
ATOM     28  O   UNL     1       0.002  -0.004   0.002  0.00  0.00    -0.494 OA
ENDBRANCH   1  28
TORSDOF 3
