REMARK  Name = ZINC35755608
REMARK  10 active torsions:
REMARK  status: ('A' for Active; 'I' for Inactive)
REMARK    1  A    between atoms: C_1  and  C_2
REMARK    2  A    between atoms: C_2  and  C_3
REMARK    3  A    between atoms: N_5  and  C_6
REMARK    4  A    between atoms: C_10  and  C_12
REMARK    5  A    between atoms: C_14  and  C_28
REMARK    6  A    between atoms: N_16  and  C_20
REMARK    7  A    between atoms: C_20  and  C_21
REMARK    8  A    between atoms: C_24  and  C_27
REMARK    9  A    between atoms: N_30  and  C_31
REMARK   10  A    between atoms: C_31  and  C_32
REMARK                            x       y       z     vdW  Elec       q    Type
REMARK                         _______ _______ _______ _____ _____    ______ ____
ROOT
ATOM      1  C   UNL     1       2.653  -5.412  -4.279  0.00  0.00    +0.238 C 
ATOM      2  C   UNL     1       1.722  -5.847  -5.436  0.00  0.00    +0.210 C 
ATOM      3  N   UNL     1       2.571  -6.802  -6.176  0.00  0.00    -0.248 N 
ATOM      4  C   UNL     1       3.837  -6.642  -5.750  0.00  0.00    +0.405 C 
ATOM      5  O   UNL     1       4.772  -7.306  -6.153  0.00  0.00    -0.226 OA
ATOM      6  O   UNL     1       3.959  -5.669  -4.830  0.00  0.00    -0.440 OA
ENDROOT
BRANCH   1  11
ATOM      7  C   UNL     1       1.587  -2.209  -2.579  0.00  0.00    +0.034 A 
ATOM      8  C   UNL     1       2.161  -1.255  -3.408  0.00  0.00    +0.023 A 
ATOM      9  C   UNL     1       2.891  -1.650  -4.511  0.00  0.00    +0.002 A 
ATOM     10  C   UNL     1       3.049  -2.995  -4.792  0.00  0.00    +0.007 A 
ATOM     11  C   UNL     1       2.478  -3.948  -3.969  0.00  0.00    -0.003 A 
ATOM     12  C   UNL     1       1.753  -3.559  -2.860  0.00  0.00    +0.030 A 
BRANCH   7  15
ATOM     13  C   UNL     1       0.888  -2.545  -0.329  0.00  0.00    +0.217 C 
ATOM     14  O   UNL     1       1.498  -3.593  -0.308  0.00  0.00    -0.275 OA
ATOM     15  N   UNL     1       0.847  -1.812  -1.460  0.00  0.00    -0.285 N 
ATOM     16  H   UNL     1       0.304  -1.009  -1.497  0.00  0.00    +0.155 HD
BRANCH  13  18
ATOM     17  C   UNL     1       0.379  -3.073   2.039  0.00  0.00    +0.013 C 
ATOM     18  C   UNL     1       0.175  -2.063   0.908  0.00  0.00    +0.093 C 
ENDBRANCH  13  18
ENDBRANCH   7  15
ENDBRANCH   1  11
BRANCH   2  19
ATOM     19  C   UNL     1       1.354  -4.668  -6.300  0.00  0.00    +0.238 C 
ATOM     20  O   UNL     1       1.931  -4.483  -7.350  0.00  0.00    -0.274 OA
ATOM     21  N   UNL     1       0.383  -3.821  -5.905  0.00  0.00    -0.307 N 
ATOM     22  H   UNL     1      -0.078  -3.970  -5.065  0.00  0.00    +0.149 HD
BRANCH  21  23
ATOM     23  C   UNL     1       0.025  -2.675  -6.745  0.00  0.00    +0.178 C 
BRANCH  23  24
ATOM     24  C   UNL     1      -1.079  -1.892  -6.083  0.00  0.00    +0.122 A 
ATOM     25  C   UNL     1      -0.913  -0.870  -5.225  0.00  0.00    +0.046 A 
ATOM     26  C   UNL     1      -2.205  -0.433  -4.852  0.00  0.00    +0.041 A 
ATOM     27  C   UNL     1      -3.083  -1.215  -5.505  0.00  0.00    +0.195 A 
ATOM     28  O   UNL     1      -2.396  -2.093  -6.253  0.00  0.00    -0.466 OA
ENDBRANCH  23  24
ENDBRANCH  21  23
ENDBRANCH   2  19
BRANCH   3  29
ATOM     29  C   UNL     1       2.115  -7.754  -7.193  0.00  0.00    +0.147 C 
BRANCH  29  30
ATOM     30  C   UNL     1       2.176  -7.104  -8.552  0.00  0.00    -0.030 A 
ATOM     31  C   UNL     1       1.083  -6.411  -9.036  0.00  0.00    +0.005 A 
ATOM     32  C   UNL     1       1.138  -5.815 -10.282  0.00  0.00    +0.003 A 
ATOM     33  C   UNL     1       2.287  -5.913 -11.044  0.00  0.00    -0.050 A 
ATOM     34  C   UNL     1       3.381  -6.606 -10.560  0.00  0.00    +0.003 A 
ATOM     35  C   UNL     1       3.327  -7.198  -9.312  0.00  0.00    +0.005 A 
ATOM     36  C   UNL     1       2.348  -5.265 -12.403  0.00  0.00    +0.044 C 
ENDBRANCH  29  30
ENDBRANCH   3  29
TORSDOF 8
