REMARK  Name = ZINC64044542
REMARK  10 active torsions:
REMARK  status: ('A' for Active; 'I' for Inactive)
REMARK    1  A    between atoms: C_1  and  C_2
REMARK    2  A    between atoms: C_2  and  N_3
REMARK    3  A    between atoms: N_3  and  C_4
REMARK    4  A    between atoms: N_3  and  S_6
REMARK    5  A    between atoms: C_4  and  C_5
REMARK    6  A    between atoms: S_6  and  C_9
REMARK    7  A    between atoms: C_12  and  C_29
REMARK    8  A    between atoms: C_13  and  N_15
REMARK    9  A    between atoms: N_15  and  S_16
REMARK   10  A    between atoms: S_16  and  C_19
REMARK                            x       y       z     vdW  Elec       q    Type
REMARK                         _______ _______ _______ _____ _____    ______ ____
ROOT
ATOM      1  N   UNL     1       1.453   2.323  -6.224  0.00  0.00    -0.216 N 
ATOM      2  H   UNL     1       1.737   3.242  -6.347  0.00  0.00    +0.174 HD
ENDROOT
BRANCH   1   7
ATOM      3  C   UNL     1      -0.727   0.589  -3.827  0.00  0.00    +0.107 A 
ATOM      4  C   UNL     1      -1.802   1.458  -3.775  0.00  0.00    +0.029 A 
ATOM      5  C   UNL     1      -1.798   2.614  -4.535  0.00  0.00    +0.007 A 
ATOM      6  C   UNL     1      -0.719   2.903  -5.348  0.00  0.00    -0.028 A 
ATOM      7  C   UNL     1       0.361   2.033  -5.403  0.00  0.00    +0.053 A 
ATOM      8  C   UNL     1       0.356   0.875  -4.634  0.00  0.00    +0.053 A 
ATOM      9  C   UNL     1      -0.716   4.163  -6.176  0.00  0.00    +0.046 C 
BRANCH   3  10
ATOM     10  S   UNL     1      -0.738  -0.882  -2.858  0.00  0.00    +0.061 S 
ATOM     11  O   UNL     1       0.146  -1.795  -3.495  0.00  0.00    -0.153 OA
ATOM     12  O   UNL     1      -2.102  -1.192  -2.605  0.00  0.00    -0.153 OA
BRANCH  10  13
ATOM     13  N   UNL     1      -0.059  -0.509  -1.394  0.00  0.00    -0.177 NA
BRANCH  13  15
ATOM     14  C   UNL     1      -0.904   1.493  -0.272  0.00  0.00    +0.022 C 
ATOM     15  C   UNL     1      -0.903  -0.037  -0.294  0.00  0.00    +0.106 C 
ENDBRANCH  13  15
BRANCH  13  16
ATOM     16  C   UNL     1       1.387  -0.651  -1.200  0.00  0.00    +0.106 C 
ATOM     17  C   UNL     1       1.686  -2.016  -0.579  0.00  0.00    +0.022 C 
ENDBRANCH  13  16
ENDBRANCH  10  13
ENDBRANCH   3  10
ENDBRANCH   1   7
BRANCH   1  18
ATOM     18  S   UNL     1       2.262   1.097  -6.989  0.00  0.00    +0.072 S 
ATOM     19  O   UNL     1       3.220   1.712  -7.840  0.00  0.00    -0.150 OA
ATOM     20  O   UNL     1       2.627   0.161  -5.983  0.00  0.00    -0.150 OA
BRANCH  18  21
ATOM     21  C   UNL     1       1.104   0.283  -8.038  0.00  0.00    +0.110 A 
ATOM     22  C   UNL     1       0.332  -0.833  -7.506  0.00  0.00    +0.031 A 
ATOM     23  C   UNL     1      -0.572  -1.500  -8.257  0.00  0.00    +0.027 A 
ATOM     24  C   UNL     1      -0.792  -1.100  -9.645  0.00  0.00    +0.056 A 
ATOM     25  N   UNL     1      -1.566  -1.518 -10.615  0.00  0.00    -0.268 N 
ATOM     26  C   UNL     1      -1.332  -0.739 -11.723  0.00  0.00    +0.308 C 
ATOM     27  O   UNL     1      -1.888  -0.864 -12.794  0.00  0.00    -0.252 OA
ATOM     28  N   UNL     1      -0.374   0.205 -11.436  0.00  0.00    -0.267 N 
ATOM     29  C   UNL     1       0.001   0.047 -10.191  0.00  0.00    +0.058 A 
ATOM     30  C   UNL     1       0.955   0.716  -9.309  0.00  0.00    +0.054 A 
ATOM     31  H   UNL     1      -0.034   0.874 -12.050  0.00  0.00    +0.156 HD
ATOM     32  H   UNL     1      -2.197  -2.253 -10.561  0.00  0.00    +0.156 HD
ENDBRANCH  18  21
ENDBRANCH   1  18
TORSDOF 7
