REMARK  Name = ZINC08944428
REMARK  9 active torsions:
REMARK  status: ('A' for Active; 'I' for Inactive)
REMARK    1  A    between atoms: C_1  and  C_2
REMARK    2  A    between atoms: C_2  and  C_3
REMARK    3  A    between atoms: C_3  and  C_4
REMARK    4  A    between atoms: C_4  and  C_32
REMARK    5  A    between atoms: N_7  and  C_11
REMARK    6  A    between atoms: C_11  and  C_12
REMARK    7  A    between atoms: C_15  and  C_27
REMARK    8  A    between atoms: C_18  and  C_20
REMARK    9  A    between atoms: C_23  and  C_26
REMARK                            x       y       z     vdW  Elec       q    Type
REMARK                         _______ _______ _______ _____ _____    ______ ____
ROOT
ATOM      1  C   UNL     1       4.584   2.362   3.565  0.00  0.00    +0.253 C 
ATOM      2  O   UNL     1       3.718   1.599   3.193  0.00  0.00    -0.272 OA
ATOM      3  N   UNL     1       5.218   2.143   4.734  0.00  0.00    -0.181 N 
ATOM      4  C   UNL     1       4.956   1.026   5.654  0.00  0.00    +0.173 C 
ATOM      5  C   UNL     1       5.951   1.266   6.807  0.00  0.00    +0.090 C 
ATOM      6  C   UNL     1       6.679   2.528   6.403  0.00  0.00    +0.069 C 
ATOM      7  N   UNL     1       6.226   2.942   5.270  0.00  0.00    -0.181 NA
ENDROOT
BRANCH   6   8
ATOM      8  C   UNL     1       7.743   3.184   7.186  0.00  0.00    -0.002 A 
ATOM      9  C   UNL     1       8.149   2.645   8.409  0.00  0.00    +0.010 A 
ATOM     10  C   UNL     1       9.148   3.261   9.132  0.00  0.00    +0.004 A 
ATOM     11  C   UNL     1       9.741   4.417   8.655  0.00  0.00    -0.050 A 
ATOM     12  C   UNL     1       9.340   4.960   7.447  0.00  0.00    +0.004 A 
ATOM     13  C   UNL     1       8.345   4.351   6.710  0.00  0.00    +0.010 A 
ATOM     14  C   UNL     1      10.828   5.087   9.455  0.00  0.00    +0.044 C 
ENDBRANCH   6   8
BRANCH   4  15
ATOM     15  C   UNL     1       5.235  -0.293   4.981  0.00  0.00    +0.128 A 
ATOM     16  C   UNL     1       4.514  -1.419   5.128  0.00  0.00    +0.046 A 
ATOM     17  C   UNL     1       5.126  -2.405   4.321  0.00  0.00    +0.041 A 
ATOM     18  C   UNL     1       6.185  -1.823   3.729  0.00  0.00    +0.195 A 
ATOM     19  O   UNL     1       6.242  -0.542   4.128  0.00  0.00    -0.466 OA
ENDBRANCH   4  15
BRANCH   1  20
ATOM     20  C   UNL     1       4.951   3.555   2.720  0.00  0.00    +0.215 C 
BRANCH  20  24
ATOM     21  C   UNL     1       2.451   3.937  -0.001  0.00  0.00    +0.138 C 
ATOM     22  C   UNL     1       2.931   4.187   1.415  0.00  0.00    +0.251 C 
ATOM     23  O   UNL     1       2.360   4.814   2.282  0.00  0.00    -0.272 OA
ATOM     24  N   UNL     1       4.125   3.569   1.510  0.00  0.00    -0.215 N 
ATOM     25  C   UNL     1       4.462   2.968   0.363  0.00  0.00    +0.310 C 
ATOM     26  O   UNL     1       5.494   2.346   0.204  0.00  0.00    -0.252 OA
ATOM     27  N   UNL     1       3.531   3.130  -0.595  0.00  0.00    -0.281 N 
ATOM     28  H   UNL     1       3.564   2.783  -1.500  0.00  0.00    +0.152 HD
BRANCH  21  29
ATOM     29  C   UNL     1       1.156   3.165   0.008  0.00  0.00    -0.015 A 
ATOM     30  C   UNL     1       1.175   1.783   0.000  0.00  0.00    +0.006 A 
ATOM     31  C   UNL     1      -0.013   1.076   0.008  0.00  0.00    +0.000 A 
ATOM     32  C   UNL     1      -1.219   1.751   0.017  0.00  0.00    +0.000 A 
ATOM     33  C   UNL     1      -1.238   3.133   0.030  0.00  0.00    +0.000 A 
ATOM     34  C   UNL     1      -0.050   3.840   0.023  0.00  0.00    +0.006 A 
ENDBRANCH  21  29
BRANCH  21  35
ATOM     35  C   UNL     1       2.284   5.258  -0.754  0.00  0.00    +0.040 C 
BRANCH  35  37
ATOM     36  C   UNL     1       3.472   7.282  -1.610  0.00  0.00    +0.004 C 
ATOM     37  C   UNL     1       3.639   5.962  -0.856  0.00  0.00    -0.000 C 
ENDBRANCH  35  37
ENDBRANCH  21  35
ENDBRANCH  20  24
ENDBRANCH   1  20
TORSDOF 7
