REMARK  Name = ZINC20410725
REMARK  10 active torsions:
REMARK  status: ('A' for Active; 'I' for Inactive)
REMARK    1  A    between atoms: C_1  and  C_2
REMARK    2  A    between atoms: C_2  and  C_3
REMARK    3  A    between atoms: C_2  and  C_4
REMARK    4  A    between atoms: C_7  and  N_10
REMARK    5  A    between atoms: C_20  and  N_21
REMARK    6  A    between atoms: N_21  and  C_22
REMARK    7  A    between atoms: C_22  and  C_23
REMARK    8  A    between atoms: C_30  and  O_31
REMARK    9  A    between atoms: O_31  and  C_32
REMARK   10  A    between atoms: N_38  and  C_39
REMARK                            x       y       z     vdW  Elec       q    Type
REMARK                         _______ _______ _______ _____ _____    ______ ____
ROOT
ATOM      1  N   UNL     1      -5.833  -1.092  -0.117  0.00  0.00    -0.217 N 
ATOM      2  C   UNL     1      -6.119  -2.005  -1.068  0.00  0.00    +0.263 C 
ATOM      3  O   UNL     1      -5.280  -2.341  -1.883  0.00  0.00    -0.269 OA
ATOM      4  C   UNL     1      -7.473  -2.585  -1.092  0.00  0.00    +0.113 C 
ATOM      5  C   UNL     1      -8.422  -2.117  -0.065  0.00  0.00    +0.256 C 
ATOM      6  O   UNL     1      -9.558  -2.550  -0.021  0.00  0.00    -0.270 OA
ATOM      7  N   UNL     1      -7.996  -1.198   0.825  0.00  0.00    -0.263 N 
ATOM      8  C   UNL     1      -6.745  -0.717   0.791  0.00  0.00    +0.150 C 
ATOM      9  S   UNL     1      -6.290   0.442   1.966  0.00  0.00    -0.018 S 
ATOM     10  C   UNL     1      -7.839  -3.525  -2.038  0.00  0.00    +0.086 C 
ATOM     11  H   UNL     1      -8.608  -0.879   1.507  0.00  0.00    +0.157 HD
ENDROOT
BRANCH   1  15
ATOM     12  C   UNL     1      -2.021   0.588   0.012  0.00  0.00    -0.045 A 
ATOM     13  C   UNL     1      -2.333  -0.479   0.835  0.00  0.00    +0.006 A 
ATOM     14  C   UNL     1      -3.595  -1.038   0.794  0.00  0.00    +0.024 A 
ATOM     15  C   UNL     1      -4.552  -0.527  -0.073  0.00  0.00    +0.043 A 
ATOM     16  C   UNL     1      -4.235   0.544  -0.898  0.00  0.00    +0.024 A 
ATOM     17  C   UNL     1      -2.973   1.102  -0.849  0.00  0.00    +0.006 A 
BRANCH  12  19
ATOM     18  C   UNL     1      -0.360   1.714   1.469  0.00  0.00    +0.012 C 
ATOM     19  C   UNL     1      -0.642   1.194   0.058  0.00  0.00    +0.013 C 
ATOM     20  C   UNL     1       0.395   0.132  -0.311  0.00  0.00    +0.012 C 
ENDBRANCH  12  19
ENDBRANCH   1  15
BRANCH  10  22
ATOM     21  H   UNL     1      -6.012  -3.669  -2.880  0.00  0.00    +0.146 HD
ATOM     22  N   UNL     1      -6.935  -3.962  -2.938  0.00  0.00    -0.347 N 
BRANCH  22  23
ATOM     23  C   UNL     1      -7.348  -4.878  -4.004  0.00  0.00    +0.124 C 
BRANCH  23  24
ATOM     24  C   UNL     1      -6.174  -5.115  -4.956  0.00  0.00    +0.107 C 
ATOM     25  C   UNL     1      -5.770  -3.807  -5.583  0.00  0.00    +0.020 A 
ATOM     26  C   UNL     1      -4.446  -3.456  -5.746  0.00  0.00    -0.034 A 
ATOM     27  C   UNL     1      -4.117  -2.244  -6.334  0.00  0.00    +0.053 A 
ATOM     28  C   UNL     1      -5.110  -1.376  -6.758  0.00  0.00    +0.170 A 
ATOM     29  C   UNL     1      -6.446  -1.724  -6.593  0.00  0.00    +0.208 A 
ATOM     30  C   UNL     1      -6.772  -2.939  -6.006  0.00  0.00    +0.170 A 
ATOM     31  O   UNL     1      -7.225  -0.715  -7.082  0.00  0.00    -0.449 OA
ATOM     32  C   UNL     1      -6.356   0.429  -7.178  0.00  0.00    +0.467 C 
ATOM     33  O   UNL     1      -5.049  -0.149  -7.354  0.00  0.00    -0.452 OA
ATOM     34  C   UNL     1      -3.327  -4.358  -5.291  0.00  0.00    +0.051 C 
ATOM     35  C   UNL     1      -3.858  -5.774  -5.063  0.00  0.00    +0.089 C 
ATOM     36  N   UNL     1      -5.051  -5.689  -4.207  0.00  0.00    -0.297 NA
ATOM     37  C   UNL     1      -5.400  -7.009  -3.665  0.00  0.00    +0.105 C 
BRANCH  30  38
ATOM     38  O   UNL     1      -8.077  -3.284  -5.843  0.00  0.00    -0.491 OA
ATOM     39  C   UNL     1      -8.725  -3.912  -6.951  0.00  0.00    +0.277 C 
ENDBRANCH  30  38
ENDBRANCH  23  24
ENDBRANCH  22  23
ENDBRANCH  10  22
TORSDOF 6
