REMARK  Name = ZINC67515192
REMARK  6 active torsions:
REMARK  status: ('A' for Active; 'I' for Inactive)
REMARK    1  A    between atoms: C_1  and  C_2
REMARK    2  A    between atoms: C_7  and  S_9
REMARK    3  A    between atoms: S_9  and  C_10
REMARK    4  A    between atoms: C_10  and  C_12
REMARK    5  A    between atoms: C_10  and  C_13
REMARK    6  A    between atoms: N_15  and  C_16
REMARK                            x       y       z     vdW  Elec       q    Type
REMARK                         _______ _______ _______ _____ _____    ______ ____
ROOT
ATOM      1  C   UNL     1       0.215  -5.545   3.435  0.00  0.00    +0.231 C 
ATOM      2  O   UNL     1      -0.150  -5.130   4.515  0.00  0.00    -0.274 OA
ATOM      3  N   UNL     1       0.747  -6.779   3.332  0.00  0.00    -0.270 N 
ATOM      4  H   UNL     1       1.040  -7.110   2.468  0.00  0.00    +0.156 HD
ENDROOT
BRANCH   3   5
ATOM      5  C   UNL     1       0.878  -7.581   4.468  0.00  0.00    +0.123 A 
ATOM      6  C   UNL     1       0.511  -7.259   5.734  0.00  0.00    +0.126 A 
ATOM      7  N   UNL     1       0.803  -8.300   6.531  0.00  0.00    -0.348 N 
ATOM      8  C   UNL     1       1.333  -9.252   5.821  0.00  0.00    +0.088 A 
ATOM      9  N   UNL     1       1.394  -8.843   4.521  0.00  0.00    -0.318 N 
ATOM     10  C   UNL     1       1.928  -9.645   3.418  0.00  0.00    +0.125 C 
ATOM     11  C   UNL     1       2.767 -10.787   4.001  0.00  0.00    +0.022 C 
ATOM     12  C   UNL     1       1.961 -11.518   5.078  0.00  0.00    +0.009 C 
ATOM     13  C   UNL     1       1.810 -10.602   6.302  0.00  0.00    +0.072 C 
ATOM     14  H   UNL     1       0.644  -8.336   7.487  0.00  0.00    +0.166 HD
ENDBRANCH   3   5
BRANCH   1  15
ATOM     15  C   UNL     1       0.075  -4.680   2.209  0.00  0.00    +0.137 C 
ATOM     16  C   UNL     1      -1.232  -5.023   1.490  0.00  0.00    +0.029 C 
BRANCH  15  17
ATOM     17  S   UNL     1       0.054  -2.934   2.700  0.00  0.00    -0.075 S 
BRANCH  17  24
ATOM     18  C   UNL     1      -0.018   1.503   0.010  0.00  0.00    +0.063 C 
ATOM     19  C   UNL     1       0.002  -0.004   0.002  0.00  0.00    +0.020 A 
ATOM     20  C   UNL     1       0.006  -0.680  -1.167  0.00  0.00    +0.093 A 
ATOM     21  C   UNL     1       0.025  -2.098  -1.140  0.00  0.00    +0.274 A 
ATOM     22  O   UNL     1       0.029  -2.733  -2.183  0.00  0.00    -0.266 OA
ATOM     23  N   UNL     1       0.039  -2.737   0.038  0.00  0.00    -0.185 NA
ATOM     24  C   UNL     1       0.035  -2.061   1.170  0.00  0.00    +0.171 A 
ATOM     25  N   UNL     1       0.023  -0.700   1.176  0.00  0.00    -0.338 N 
ATOM     26  H   UNL     1       0.024  -0.222   2.020  0.00  0.00    +0.167 HD
ENDBRANCH  17  24
ENDBRANCH  15  17
ENDBRANCH   1  15
TORSDOF 4
