REMARK  Name = ZINC19332332
REMARK  8 active torsions:
REMARK  status: ('A' for Active; 'I' for Inactive)
REMARK    1  A    between atoms: C_6  and  C_7
REMARK    2  A    between atoms: C_7  and  C_9
REMARK    3  A    between atoms: C_7  and  N_17
REMARK    4  A    between atoms: N_11  and  C_12
REMARK    5  A    between atoms: N_17  and  C_18
REMARK    6  A    between atoms: C_23  and  C_25
REMARK    7  A    between atoms: C_26  and  N_33
REMARK    8  A    between atoms: C_27  and  C_30
REMARK                            x       y       z     vdW  Elec       q    Type
REMARK                         _______ _______ _______ _____ _____    ______ ____
ROOT
ATOM      1  N   UNL     1       2.253   4.378   0.204  0.00  0.00    -0.278 N 
ATOM      2  C   UNL     1       2.556   4.955   1.383  0.00  0.00    +0.258 C 
ATOM      3  O   UNL     1       1.754   4.927   2.298  0.00  0.00    -0.269 OA
ENDROOT
BRANCH   1   4
ATOM      4  C   UNL     1       3.209   4.431  -0.905  0.00  0.00    +0.077 C 
ATOM      5  C   UNL     1       2.575   3.837  -2.179  0.00  0.00    +0.022 C 
ATOM      6  C   UNL     1       3.742   3.085  -2.868  0.00  0.00    +0.002 C 
ATOM      7  C   UNL     1       4.513   2.477  -1.670  0.00  0.00    +0.002 C 
ATOM      8  C   UNL     1       4.441   3.567  -0.581  0.00  0.00    +0.022 C 
ENDBRANCH   1   4
BRANCH   2   9
ATOM      9  C   UNL     1       3.850   5.615   1.565  0.00  0.00    +0.115 A 
ATOM     10  C   UNL     1       4.425   6.131   2.727  0.00  0.00    +0.076 A 
ATOM     11  C   UNL     1       5.683   6.689   2.499  0.00  0.00    +0.155 A 
ATOM     12  N   UNL     1       6.180   6.679   1.282  0.00  0.00    -0.203 NA
ATOM     13  S   UNL     1       5.115   5.969   0.362  0.00  0.00    +0.019 S 
BRANCH  11  14
ATOM     14  C   UNL     1       6.447   7.285   3.610  0.00  0.00    +0.262 C 
ATOM     15  O   UNL     1       5.981   7.291   4.734  0.00  0.00    -0.269 OA
ATOM     16  N   UNL     1       7.662   7.822   3.382  0.00  0.00    -0.324 N 
ATOM     17  H   UNL     1       8.232   8.266   4.211  0.00  0.00    +0.145 HD
ATOM     18  H   UNL     1       8.083   7.816   2.365  0.00  0.00    +0.145 HD
ENDBRANCH  11  14
BRANCH  10  19
ATOM     19  N   UNL     1       3.813   6.092   3.973  0.00  0.00    -0.355 N 
ATOM     20  H   UNL     1       4.324   6.518   4.850  0.00  0.00    +0.142 HD
ATOM     21  H   UNL     1       2.818   5.636   4.083  0.00  0.00    +0.142 HD
ENDBRANCH  10  19
ENDBRANCH   2   9
BRANCH   1  22
ATOM     22  C   UNL     1       0.968   3.696   0.030  0.00  0.00    +0.193 C 
BRANCH  22  28
ATOM     23  C   UNL     1      -0.256   3.417  -2.136  0.00  0.00    +0.007 A 
ATOM     24  C   UNL     1      -0.913   3.938  -3.234  0.00  0.00    +0.020 A 
ATOM     25  C   UNL     1      -1.049   5.308  -3.374  0.00  0.00    +0.041 A 
ATOM     26  C   UNL     1      -0.531   6.155  -2.411  0.00  0.00    +0.020 A 
ATOM     27  C   UNL     1       0.121   5.633  -1.310  0.00  0.00    +0.007 A 
ATOM     28  C   UNL     1       0.256   4.265  -1.171  0.00  0.00    -0.018 A 
ATOM     29 CL   UNL     1      -1.869   5.962  -4.757  0.00  0.00    -0.084 Cl
ENDBRANCH  22  28
BRANCH  22  30
ATOM     30  C   UNL     1       1.204   2.223  -0.177  0.00  0.00    +0.238 C 
ATOM     31  O   UNL     1       2.335   1.784  -0.180  0.00  0.00    -0.273 OA
ATOM     32  N   UNL     1       0.159   1.391  -0.360  0.00  0.00    -0.311 N 
ATOM     33  H   UNL     1      -0.866   1.789  -0.358  0.00  0.00    +0.149 HD
BRANCH  32  34
ATOM     34  C   UNL     1       0.389  -0.041  -0.562  0.00  0.00    +0.073 C 
ATOM     35  C   UNL     1       0.606  -0.336  -2.061  0.00  0.00    +0.022 C 
ATOM     36  C   UNL     1      -0.092  -1.700  -2.284  0.00  0.00    +0.002 C 
ATOM     37  C   UNL     1      -1.349  -1.593  -1.385  0.00  0.00    +0.002 C 
ATOM     38  C   UNL     1      -0.854  -0.840  -0.132  0.00  0.00    +0.022 C 
ENDBRANCH  32  34
ENDBRANCH  22  30
ENDBRANCH   1  22
TORSDOF 8
