REMARK  Name = ZINC12246735
REMARK  6 active torsions:
REMARK  status: ('A' for Active; 'I' for Inactive)
REMARK    1  A    between atoms: C_5  and  N_7
REMARK    2  A    between atoms: C_12  and  C_13
REMARK    3  A    between atoms: C_12  and  N_64
REMARK    4  A    between atoms: C_16  and  C_18
REMARK    5  A    between atoms: N_27  and  C_30
REMARK    6  A    between atoms: C_30  and  C_31
REMARK                            x       y       z     vdW  Elec       q    Type
REMARK                         _______ _______ _______ _____ _____    ______ ____
ROOT
ATOM      1  N   UNL     1      -0.870   2.826   3.761  0.00  0.00    -0.333 N 
ATOM      2  C   UNL     1      -0.959   1.364   3.643  0.00  0.00    +0.086 C 
ATOM      3  C   UNL     1      -0.165   0.904   2.418  0.00  0.00    -0.059 C 
ATOM      4  C   UNL     1      -0.612   3.022   1.334  0.00  0.00    -0.059 C 
ATOM      5  C   UNL     1      -1.405   3.482   2.559  0.00  0.00    +0.086 C 
ATOM      6  N   UNL     1      -0.727   1.553   1.215  0.00  0.00    +0.386 N 
ATOM      7  H   UNL     1      -1.720   1.302   1.133  0.00  0.00    -0.081 HD
ENDROOT
BRANCH   1  12
ATOM      8  C   UNL     1      -3.532   3.475   6.208  0.00  0.00    +0.003 A 
ATOM      9  C   UNL     1      -2.840   4.169   7.192  0.00  0.00    +0.014 A 
ATOM     10  C   UNL     1      -1.488   4.420   7.039  0.00  0.00    +0.051 A 
ATOM     11  C   UNL     1      -0.816   3.970   5.883  0.00  0.00    +0.070 A 
ATOM     12  C   UNL     1      -1.519   3.274   4.902  0.00  0.00    +0.043 A 
ATOM     13  C   UNL     1      -2.885   3.035   5.074  0.00  0.00    +0.024 A 
ATOM     14  C   UNL     1       0.585   4.397   6.037  0.00  0.00    +0.256 C 
ATOM     15  O   UNL     1       1.480   4.193   5.241  0.00  0.00    -0.269 OA
ATOM     16  N   UNL     1       0.710   5.050   7.206  0.00  0.00    -0.232 N 
ATOM     17  C   UNL     1      -0.466   5.107   7.857  0.00  0.00    +0.254 C 
ATOM     18  O   UNL     1      -0.656   5.634   8.935  0.00  0.00    -0.270 OA
BRANCH  16  19
ATOM     19  C   UNL     1       1.962   5.624   7.705  0.00  0.00    +0.148 C 
BRANCH  19  20
ATOM     20  C   UNL     1       2.091   7.069   7.217  0.00  0.00    +0.136 C 
ATOM     21  C   UNL     1       3.442   7.672   7.674  0.00  0.00    +0.035 C 
ATOM     22  C   UNL     1       3.650   8.777   6.602  0.00  0.00    +0.031 C 
ATOM     23  C   UNL     1       3.030   8.132   5.344  0.00  0.00    +0.160 C 
ATOM     24  O   UNL     1       2.129   7.108   5.781  0.00  0.00    -0.375 OA
ENDBRANCH  19  20
ENDBRANCH  16  19
ENDBRANCH   1  12
BRANCH   6  25
ATOM     25  C   UNL     1      -0.013   1.086   0.008  0.00  0.00    -0.003 C 
BRANCH  25  26
ATOM     26  C   UNL     1      -0.742   1.585  -1.213  0.00  0.00    +0.089 A 
ATOM     27  C   UNL     1      -0.502   2.748  -1.850  0.00  0.00    +0.043 A 
ATOM     28  C   UNL     1      -1.403   2.819  -2.932  0.00  0.00    +0.050 A 
ATOM     29  C   UNL     1      -2.150   1.684  -2.894  0.00  0.00    +0.135 A 
ATOM     30  O   UNL     1      -1.734   0.942  -1.850  0.00  0.00    -0.462 OA
BRANCH  29  31
ATOM     31  C   UNL     1      -3.228   1.324  -3.839  0.00  0.00    +0.017 A 
ATOM     32  C   UNL     1      -3.561   2.187  -4.884  0.00  0.00    +0.013 A 
ATOM     33  C   UNL     1      -4.564   1.843  -5.766  0.00  0.00    +0.021 A 
ATOM     34  C   UNL     1      -5.248   0.649  -5.609  0.00  0.00    +0.041 A 
ATOM     35  C   UNL     1      -4.926  -0.209  -4.571  0.00  0.00    +0.021 A 
ATOM     36  C   UNL     1      -3.921   0.121  -3.686  0.00  0.00    +0.013 A 
ATOM     37 CL   UNL     1      -6.515   0.226  -6.719  0.00  0.00    -0.084 Cl
ENDBRANCH  29  31
ENDBRANCH  25  26
ENDBRANCH   6  25
TORSDOF 6
