REMARK  Name = ZINC00917976
REMARK  9 active torsions:
REMARK  status: ('A' for Active; 'I' for Inactive)
REMARK    1  A    between atoms: C_1  and  O_2
REMARK    2  A    between atoms: O_2  and  C_3
REMARK    3  A    between atoms: C_8  and  C_15
REMARK    4  A    between atoms: C_15  and  N_16
REMARK    5  A    between atoms: N_16  and  C_17
REMARK    6  A    between atoms: N_16  and  S_24
REMARK    7  A    between atoms: C_17  and  C_18
REMARK    8  A    between atoms: S_24  and  C_27
REMARK    9  A    between atoms: C_29  and  C_34
REMARK                            x       y       z     vdW  Elec       q    Type
REMARK                         _______ _______ _______ _____ _____    ______ ____
ROOT
ATOM      1  N   UNL     1      -0.632   1.223  -1.109  0.00  0.00    -0.170 NA
ENDROOT
BRANCH   1   2
ATOM      2  S   UNL     1      -2.107   0.643  -1.589  0.00  0.00    +0.063 S 
ATOM      3  O   UNL     1      -2.127  -0.739  -1.260  0.00  0.00    -0.153 OA
ATOM      4  O   UNL     1      -3.080   1.557  -1.101  0.00  0.00    -0.153 OA
BRANCH   2   5
ATOM      5  C   UNL     1      -2.160   0.744  -3.347  0.00  0.00    +0.124 A 
ATOM      6  C   UNL     1      -2.102  -0.409  -4.108  0.00  0.00    +0.042 A 
ATOM      7  C   UNL     1      -2.148  -0.331  -5.487  0.00  0.00    +0.057 A 
ATOM      8  C   UNL     1      -2.242   0.902  -6.107  0.00  0.00    +0.014 A 
ATOM      9  C   UNL     1      -2.294   2.055  -5.348  0.00  0.00    +0.022 A 
ATOM     10  C   UNL     1      -2.253   1.977  -3.967  0.00  0.00    +0.067 A 
ATOM     11 CL   UNL     1      -2.319   3.426  -3.013  0.00  0.00    -0.082 Cl
BRANCH   7  12
ATOM     12  C   UNL     1      -2.091  -1.588  -6.315  0.00  0.00    +0.417 C 
ATOM     13  F   UNL     1      -2.147  -1.255  -7.673  0.00  0.00    -0.166 F 
ATOM     14  F   UNL     1      -0.897  -2.267  -6.050  0.00  0.00    -0.166 F 
ATOM     15  F   UNL     1      -3.176  -2.410  -5.991  0.00  0.00    -0.166 F 
ENDBRANCH   7  12
ENDBRANCH   2   5
ENDBRANCH   1   2
BRANCH   1  16
ATOM     16  C   UNL     1       0.490   0.301  -0.919  0.00  0.00    +0.150 C 
BRANCH  16  22
ATOM     17  C   UNL     1       0.396  -2.119   5.106  0.00  0.00    +0.122 A 
ATOM     18  C   UNL     1      -0.304  -2.983   4.264  0.00  0.00    +0.046 A 
ATOM     19  C   UNL     1      -0.433  -2.702   2.936  0.00  0.00    +0.013 A 
ATOM     20  C   UNL     1       0.141  -1.538   2.412  0.00  0.00    -0.001 A 
ATOM     21  C   UNL     1       0.015  -1.206   0.993  0.00  0.00    +0.020 A 
ATOM     22  C   UNL     1       0.597  -0.067   0.539  0.00  0.00    +0.033 A 
ATOM     23  C   UNL     1       1.296   0.777   1.426  0.00  0.00    +0.254 A 
ATOM     24  O   UNL     1       1.806   1.797   0.998  0.00  0.00    -0.268 OA
ATOM     25  N   UNL     1       1.413   0.484   2.733  0.00  0.00    -0.322 N 
ATOM     26  H   UNL     1       1.915   1.105   3.334  0.00  0.00    +0.169 HD
ATOM     27  C   UNL     1       0.850  -0.661   3.257  0.00  0.00    +0.053 A 
ATOM     28  C   UNL     1       0.971  -0.963   4.607  0.00  0.00    +0.072 A 
BRANCH  17  30
ATOM     29  C   UNL     1      -0.102  -3.621   6.878  0.00  0.00    +0.277 C 
ATOM     30  O   UNL     1       0.514  -2.414   6.426  0.00  0.00    -0.495 OA
ENDBRANCH  17  30
ENDBRANCH  16  22
ENDBRANCH   1  16
BRANCH   1  31
ATOM     31  C   UNL     1      -0.449   2.657  -0.875  0.00  0.00    +0.141 C 
BRANCH  31  32
ATOM     32  C   UNL     1       0.368   3.261  -2.019  0.00  0.00    +0.134 C 
ATOM     33  C   UNL     1       0.566   4.770  -1.782  0.00  0.00    +0.035 C 
ATOM     34  C   UNL     1       2.103   4.950  -1.747  0.00  0.00    +0.031 C 
ATOM     35  C   UNL     1       2.596   3.682  -2.489  0.00  0.00    +0.160 C 
ATOM     36  O   UNL     1       1.673   2.659  -2.058  0.00  0.00    -0.375 OA
ENDBRANCH  31  32
ENDBRANCH   1  31
TORSDOF 8
