REMARK  Name = ZINC40910453
REMARK  12 active torsions:
REMARK  status: ('A' for Active; 'I' for Inactive)
REMARK    1  A    between atoms: C_1  and  C_2
REMARK    2  A    between atoms: C_4  and  O_12
REMARK    3  A    between atoms: C_5  and  C_9
REMARK    4  A    between atoms: C_9  and  C_10
REMARK    5  A    between atoms: C_9  and  C_11
REMARK    6  A    between atoms: O_12  and  C_13
REMARK    7  A    between atoms: C_13  and  C_14
REMARK    8  A    between atoms: N_16  and  N_17
REMARK    9  A    between atoms: C_18  and  C_19
REMARK   10  A    between atoms: C_21  and  O_27
REMARK   11  A    between atoms: C_22  and  O_26
REMARK   12  A    between atoms: O_27  and  C_28
REMARK                            x       y       z     vdW  Elec       q    Type
REMARK                         _______ _______ _______ _____ _____    ______ ____
ROOT
ATOM      1  C   UNL     1       0.018  -2.879  -4.780  0.00  0.00    +0.270 C 
ATOM      2  O   UNL     1       0.035  -4.082  -4.626  0.00  0.00    -0.270 OA
ATOM      3  N   UNL     1       0.004  -2.358  -6.023  0.00  0.00    -0.204 N 
ATOM      4  H   UNL     1      -0.010  -1.396  -6.146  0.00  0.00    +0.177 HD
ENDROOT
BRANCH   3   5
ATOM      5  N   UNL     1       0.010  -3.207  -7.138  0.00  0.00    -0.188 NA
ATOM      6  C   UNL     1      -0.003  -2.706  -8.335  0.00  0.00    +0.138 C 
BRANCH   6   7
ATOM      7  C   UNL     1       0.003  -3.599  -9.508  0.00  0.00    -0.001 A 
ATOM      8  C   UNL     1      -0.006  -3.061 -10.798  0.00  0.00    +0.059 A 
ATOM      9  C   UNL     1       0.000  -3.903 -11.894  0.00  0.00    +0.163 A 
ATOM     10  C   UNL     1       0.014  -5.284 -11.713  0.00  0.00    +0.173 A 
ATOM     11  C   UNL     1       0.023  -5.819 -10.432  0.00  0.00    +0.063 A 
ATOM     12  C   UNL     1       0.023  -4.985  -9.333  0.00  0.00    +0.028 A 
ATOM     13 BR   UNL     1       0.042  -7.695 -10.193  0.00  0.00    -0.046 Br
BRANCH  10  14
ATOM     14  O   UNL     1       0.019  -6.110 -12.793  0.00  0.00    -0.503 OA
ATOM     15  H   UNL     1       0.904  -6.340 -13.107  0.00  0.00    +0.292 HD
ENDBRANCH  10  14
BRANCH   9  16
ATOM     16  O   UNL     1      -0.008  -3.382 -13.150  0.00  0.00    -0.491 OA
ATOM     17  C   UNL     1      -0.022  -1.958 -13.262  0.00  0.00    +0.277 C 
ENDBRANCH   9  16
ENDBRANCH   6   7
ENDBRANCH   3   5
BRANCH   1  18
ATOM     18  C   UNL     1       0.011  -1.966  -3.581  0.00  0.00    +0.326 C 
BRANCH  18  19
ATOM     19  O   UNL     1       0.028  -2.749  -2.386  0.00  0.00    -0.482 OA
BRANCH  19  23
ATOM     20  C   UNL     1      -0.018   1.503   0.010  0.00  0.00    +0.045 C 
ATOM     21  C   UNL     1       0.002  -0.004   0.002  0.00  0.00    -0.033 A 
ATOM     22  C   UNL     1       0.006  -0.688  -1.199  0.00  0.00    +0.050 A 
ATOM     23  C   UNL     1       0.025  -2.075  -1.206  0.00  0.00    +0.125 A 
ATOM     24  C   UNL     1       0.041  -2.772  -0.006  0.00  0.00    -0.002 A 
ATOM     25  C   UNL     1       0.037  -2.085   1.192  0.00  0.00    +0.023 A 
ATOM     26  C   UNL     1       0.023  -0.702   1.196  0.00  0.00    +0.021 A 
ATOM     27 BR   UNL     1       0.025   0.237   2.838  0.00  0.00    -0.050 Br
BRANCH  24  28
ATOM     28  C   UNL     1       0.061  -4.279  -0.011  0.00  0.00    +0.016 C 
ATOM     29  C   UNL     1       1.321  -4.774   0.702  0.00  0.00    +0.012 C 
ATOM     30  C   UNL     1      -1.177  -4.809   0.715  0.00  0.00    +0.012 C 
ENDBRANCH  24  28
ENDBRANCH  19  23
ENDBRANCH  18  19
ENDBRANCH   1  18
TORSDOF 8
