REMARK  Name = ZINC35999673
REMARK  6 active torsions:
REMARK  status: ('A' for Active; 'I' for Inactive)
REMARK    1  A    between atoms: C_3  and  O_27
REMARK    2  A    between atoms: C_4  and  N_10
REMARK    3  A    between atoms: C_6  and  N_7
REMARK    4  A    between atoms: N_10  and  C_11
REMARK    5  A    between atoms: C_11  and  N_13
REMARK    6  A    between atoms: C_14  and  C_16
REMARK                            x       y       z     vdW  Elec       q    Type
REMARK                         _______ _______ _______ _____ _____    ______ ____
ROOT
ATOM      1  C   UNL     1       3.642  -2.005   0.057  0.00  0.00    +0.141 C 
ATOM      2  S   UNL     1       2.173  -2.885   0.068  0.00  0.00    -0.018 S 
ENDROOT
BRANCH   1   3
ATOM      3  N   UNL     1       4.818  -2.657   0.143  0.00  0.00    -0.263 N 
ATOM      4  C   UNL     1       4.838  -4.001   0.237  0.00  0.00    +0.258 C 
ATOM      5  O   UNL     1       3.795  -4.626   0.245  0.00  0.00    -0.269 OA
ATOM      6  H   UNL     1       5.651  -2.159   0.137  0.00  0.00    +0.157 HD
BRANCH   4   7
ATOM      7  C   UNL     1       6.119  -4.711   0.331  0.00  0.00    +0.094 A 
ATOM      8  C   UNL     1       6.341  -6.051   0.426  0.00  0.00    +0.068 A 
ATOM      9  C   UNL     1       7.659  -6.538   0.505  0.00  0.00    +0.008 A 
ATOM     10  C   UNL     1       8.092  -7.886   0.609  0.00  0.00    +0.012 A 
ATOM     11  C   UNL     1       9.414  -8.188   0.678  0.00  0.00    +0.021 A 
ATOM     12  C   UNL     1      10.390  -7.198   0.649  0.00  0.00    +0.042 A 
ATOM     13  C   UNL     1      10.012  -5.873   0.548  0.00  0.00    +0.035 A 
ATOM     14  C   UNL     1       8.674  -5.552   0.478  0.00  0.00    +0.023 A 
ATOM     15  S   UNL     1       7.769  -4.031   0.339  0.00  0.00    -0.082 S 
ATOM     16 CL   UNL     1      12.071  -7.624   0.740  0.00  0.00    -0.084 Cl
ATOM     17 CL   UNL     1       5.002  -7.155   0.450  0.00  0.00    -0.082 Cl
ENDBRANCH   4   7
ENDBRANCH   1   3
BRANCH   1  18
ATOM     18  N   UNL     1       3.622  -0.661  -0.037  0.00  0.00    -0.294 N 
ATOM     19  H   UNL     1       4.454  -0.167  -0.107  0.00  0.00    +0.154 HD
BRANCH  18  23
ATOM     20  C   UNL     1      -0.018   1.376  -0.034  0.00  0.00    +0.036 A 
ATOM     21  C   UNL     1       1.013   1.811   0.778  0.00  0.00    +0.049 A 
ATOM     22  C   UNL     1       2.224   1.139   0.781  0.00  0.00    +0.138 A 
ATOM     23  C   UNL     1       2.399   0.023  -0.036  0.00  0.00    +0.077 A 
ATOM     24  C   UNL     1       1.360  -0.408  -0.847  0.00  0.00    +0.059 A 
ATOM     25  C   UNL     1       0.155   0.270  -0.844  0.00  0.00    +0.128 A 
BRANCH  25  26
ATOM     26  N   UNL     1      -0.953  -0.192  -1.710  0.00  0.00    +0.056 N 
ATOM     27  O   UNL     1      -2.008   0.399  -1.709  0.00  0.00    -0.126 OA
ATOM     28  O   UNL     1      -0.803  -1.159  -2.420  0.00  0.00    -0.126 OA
ENDBRANCH  25  26
BRANCH  22  29
ATOM     29  O   UNL     1       3.239   1.566   1.578  0.00  0.00    -0.505 OA
ATOM     30  H   UNL     1       3.242   1.168   2.459  0.00  0.00    +0.292 HD
ENDBRANCH  22  29
ENDBRANCH  18  23
ENDBRANCH   1  18
TORSDOF 6
