REMARK  Name = ZINC12375050
REMARK  2 active torsions:
REMARK  status: ('A' for Active; 'I' for Inactive)
REMARK    1  A    between atoms: C_12  and  C_17
REMARK    2  A    between atoms: N_18  and  O_19
REMARK                            x       y       z     vdW  Elec       q    Type
REMARK                         _______ _______ _______ _____ _____    ______ ____
ROOT
ATOM      1  C   UNL     1       2.382   1.415  -0.014  0.00  0.00    +0.017 A 
ATOM      2  C   UNL     1       2.418   0.038  -0.021  0.00  0.00    +0.027 A 
ATOM      3  C   UNL     1       1.233  -0.688  -0.013  0.00  0.00    +0.047 A 
ATOM      4  C   UNL     1       0.002  -0.004   0.002  0.00  0.00    +0.004 A 
ATOM      5  C   UNL     1      -0.017   1.392   0.010  0.00  0.00    +0.025 A 
ATOM      6  C   UNL     1       1.170   2.091   0.002  0.00  0.00    +0.019 A 
ATOM      7 BR   UNL     1       1.147   3.982   0.013  0.00  0.00    -0.050 Br
ATOM      8  C   UNL     1      -1.029  -1.037   0.006  0.00  0.00    -0.018 A 
ATOM      9  C   UNL     1      -0.403  -2.230  -0.005  0.00  0.00    +0.031 A 
ATOM     10  N   UNL     1       0.950  -2.038  -0.018  0.00  0.00    -0.357 N 
ATOM     11  H   UNL     1       1.613  -2.745  -0.028  0.00  0.00    +0.166 HD
ATOM     12  C   UNL     1      -1.128  -3.556  -0.003  0.00  0.00    +0.102 C 
ATOM     13  C   UNL     1      -2.577  -3.318   0.434  0.00  0.00    +0.017 C 
ATOM     14  C   UNL     1      -3.180  -2.178  -0.391  0.00  0.00    +0.006 C 
ATOM     15  C   UNL     1      -2.524  -0.853   0.019  0.00  0.00    +0.037 C 
ENDROOT
BRANCH  12  16
ATOM     16  C   UNL     1      -0.453  -4.500   0.959  0.00  0.00    +0.141 C 
ATOM     17  N   UNL     1       0.233  -4.033   1.948  0.00  0.00    -0.076 NA
ATOM     18  N   UNL     1      -0.569  -5.861   0.782  0.00  0.00    -0.343 N 
ATOM     19  H   UNL     1      -1.085  -6.212   0.040  0.00  0.00    +0.144 HD
ATOM     20  H   UNL     1      -0.135  -6.469   1.401  0.00  0.00    +0.144 HD
BRANCH  17  21
ATOM     21  O   UNL     1       0.352  -2.634   2.129  0.00  0.00    -0.408 OA
ATOM     22  H   UNL     1       0.885  -2.380   2.895  0.00  0.00    +0.328 HD
ENDBRANCH  17  21
ENDBRANCH  12  16
TORSDOF 2
