REMARK  Name = ZINC01445510
REMARK  8 active torsions:
REMARK  status: ('A' for Active; 'I' for Inactive)
REMARK    1  A    between atoms: C_1  and  C_2
REMARK    2  A    between atoms: C_2  and  O_3
REMARK    3  A    between atoms: O_3  and  C_4
REMARK    4  A    between atoms: C_4  and  C_6
REMARK    5  A    between atoms: C_7  and  N_34
REMARK    6  A    between atoms: N_8  and  C_25
REMARK    7  A    between atoms: C_11  and  C_13
REMARK    8  A    between atoms: C_29  and  N_31
REMARK                            x       y       z     vdW  Elec       q    Type
REMARK                         _______ _______ _______ _____ _____    ______ ____
ROOT
ATOM      1  C   UNL     1       1.131   7.121   0.743  0.00  0.00    +0.084 C 
ATOM      2  C   UNL     1       1.082   6.046  -0.090  0.00  0.00    +0.103 C 
ATOM      3  N   UNL     1      -0.127   5.470  -0.402  0.00  0.00    -0.260 N 
ATOM      4  C   UNL     1      -1.294   6.170  -0.236  0.00  0.00    +0.024 C 
ATOM      5  C   UNL     1      -1.344   7.236   0.592  0.00  0.00    +0.025 C 
ATOM      6  C   UNL     1      -0.119   7.692   1.344  0.00  0.00    +0.094 C 
ATOM      7  C   UNL     1      -2.538   7.955   0.776  0.00  0.00    +0.162 C 
ATOM      8  O   UNL     1      -2.546   8.921   1.513  0.00  0.00    -0.292 OA
ATOM      9  C   UNL     1      -3.807   7.551   0.076  0.00  0.00    +0.080 C 
ATOM     10  C   UNL     1      -3.775   6.041  -0.182  0.00  0.00    +0.014 C 
ATOM     11  C   UNL     1      -2.517   5.714  -0.990  0.00  0.00    +0.052 C 
ENDROOT
BRANCH   6  12
ATOM     12  C   UNL     1      -0.226   7.246   2.780  0.00  0.00    -0.035 A 
ATOM     13  C   UNL     1      -0.296   5.898   3.081  0.00  0.00    +0.005 A 
ATOM     14  C   UNL     1      -0.389   5.488   4.397  0.00  0.00    +0.015 A 
ATOM     15  C   UNL     1      -0.423   6.426   5.413  0.00  0.00    +0.018 A 
ATOM     16  C   UNL     1      -0.358   7.775   5.111  0.00  0.00    +0.015 A 
ATOM     17  C   UNL     1      -0.260   8.184   3.795  0.00  0.00    +0.005 A 
ATOM     18 BR   UNL     1      -0.557   5.866   7.214  0.00  0.00    -0.050 Br
ENDBRANCH   6  12
BRANCH   3  19
ATOM     19  C   UNL     1      -0.166   4.162  -0.897  0.00  0.00    +0.042 A 
ATOM     20  C   UNL     1      -0.583   3.119  -0.079  0.00  0.00    +0.024 A 
ATOM     21  C   UNL     1      -0.625   1.830  -0.572  0.00  0.00    +0.004 A 
ATOM     22  C   UNL     1      -0.242   1.575  -1.876  0.00  0.00    +0.033 A 
ATOM     23  C   UNL     1       0.173   2.610  -2.693  0.00  0.00    +0.128 A 
ATOM     24  C   UNL     1       0.212   3.902  -2.208  0.00  0.00    +0.056 A 
BRANCH  23  25
ATOM     25  N   UNL     1       0.577   2.332  -4.090  0.00  0.00    +0.056 N 
ATOM     26  O   UNL     1       0.543   1.193  -4.519  0.00  0.00    -0.126 OA
ATOM     27  O   UNL     1       0.943   3.244  -4.811  0.00  0.00    -0.126 OA
ENDBRANCH  23  25
ENDBRANCH   3  19
BRANCH   2  28
ATOM     28  N   UNL     1       2.239   5.536  -0.620  0.00  0.00    -0.346 N 
ATOM     29  H   UNL     1       2.957   6.134  -0.883  0.00  0.00    +0.143 HD
ATOM     30  H   UNL     1       2.341   4.578  -0.731  0.00  0.00    +0.143 HD
ENDBRANCH   2  28
BRANCH   1  31
ATOM     31  C   UNL     1       2.370   7.704   1.044  0.00  0.00    +0.339 C 
ATOM     32  O   UNL     1       3.400   7.179   0.659  0.00  0.00    -0.245 OA
BRANCH  31  33
ATOM     33  O   UNL     1       2.422   8.847   1.762  0.00  0.00    -0.462 OA
BRANCH  33  35
ATOM     34  C   UNL     1       3.576  10.671   2.849  0.00  0.00    +0.048 C 
ATOM     35  C   UNL     1       3.718   9.386   2.032  0.00  0.00    +0.229 C 
ENDBRANCH  33  35
ENDBRANCH  31  33
ENDBRANCH   1  31
TORSDOF 7
