REMARK  Name = ZINC38730814
REMARK  8 active torsions:
REMARK  status: ('A' for Active; 'I' for Inactive)
REMARK    1  A    between atoms: C_4  and  C_7
REMARK    2  A    between atoms: C_7  and  N_8
REMARK    3  A    between atoms: C_14  and  C_16
REMARK    4  A    between atoms: C_22  and  C_24
REMARK    5  A    between atoms: N_26  and  C_27
REMARK    6  A    between atoms: C_27  and  C_29
REMARK    7  A    between atoms: C_27  and  C_39
REMARK    8  A    between atoms: C_29  and  C_30
REMARK                            x       y       z     vdW  Elec       q    Type
REMARK                         _______ _______ _______ _____ _____    ______ ____
ROOT
ATOM      1  C   UNL     1       7.859  -1.956   4.426  0.00  0.00    +0.091 C 
ATOM      2  C   UNL     1       7.146  -3.221   4.906  0.00  0.00    +0.040 C 
ATOM      3  C   UNL     1       6.785  -3.094   6.357  0.00  0.00    -0.030 C 
ATOM      4  C   UNL     1       7.308  -2.223   7.160  0.00  0.00    -0.030 C 
ATOM      5  C   UNL     1       8.340  -1.214   6.750  0.00  0.00    +0.040 C 
ATOM      6  C   UNL     1       8.981  -1.621   5.417  0.00  0.00    +0.091 C 
ENDROOT
BRANCH   1  13
ATOM      7  N   UNL     1       6.709   1.589   1.080  0.00  0.00    -0.295 NA
ATOM      8  C   UNL     1       6.132   2.015   2.362  0.00  0.00    +0.103 C 
ATOM      9  C   UNL     1       5.546   0.798   3.085  0.00  0.00    +0.123 C 
ATOM     10  N   UNL     1       6.590  -0.233   3.185  0.00  0.00    -0.299 N 
ATOM     11  C   UNL     1       7.310  -0.616   1.961  0.00  0.00    +0.123 C 
ATOM     12  C   UNL     1       7.827   0.657   1.282  0.00  0.00    +0.103 C 
ATOM     13  C   UNL     1       6.878  -0.813   4.367  0.00  0.00    +0.220 C 
ATOM     14  O   UNL     1       6.349  -0.415   5.383  0.00  0.00    -0.275 OA
BRANCH   7  15
ATOM     15  C   UNL     1       7.128   2.747   0.280  0.00  0.00    +0.119 C 
BRANCH  15  19
ATOM     16  C   UNL     1       3.691   5.025  -0.837  0.00  0.00    +0.000 A 
ATOM     17  C   UNL     1       4.354   5.307   0.343  0.00  0.00    +0.000 A 
ATOM     18  C   UNL     1       5.465   4.570   0.704  0.00  0.00    +0.005 A 
ATOM     19  C   UNL     1       5.915   3.550  -0.114  0.00  0.00    -0.033 A 
ATOM     20  C   UNL     1       5.251   3.268  -1.294  0.00  0.00    +0.005 A 
ATOM     21  C   UNL     1       4.140   4.006  -1.656  0.00  0.00    +0.000 A 
ENDBRANCH  15  19
ENDBRANCH   7  15
ENDBRANCH   1  13
BRANCH   6  22
ATOM     22  C   UNL     1       9.811  -0.485   4.878  0.00  0.00    +0.218 C 
ATOM     23  O   UNL     1       9.536   0.012   3.806  0.00  0.00    -0.275 OA
ATOM     24  N   UNL     1      10.860  -0.020   5.587  0.00  0.00    -0.303 N 
ATOM     25  H   UNL     1      11.080  -0.418   6.444  0.00  0.00    +0.149 HD
BRANCH  24  26
ATOM     26  C   UNL     1      11.666   1.084   5.062  0.00  0.00    +0.163 C 
BRANCH  26  27
ATOM     27  C   UNL     1      12.721   0.539   4.133  0.00  0.00    +0.231 C 
ATOM     28  O   UNL     1      12.791  -0.654   3.929  0.00  0.00    -0.274 OA
ATOM     29  N   UNL     1      13.585   1.378   3.529  0.00  0.00    -0.328 N 
ATOM     30  H   UNL     1      13.529   2.333   3.692  0.00  0.00    +0.145 HD
ATOM     31  H   UNL     1      14.264   1.028   2.931  0.00  0.00    +0.145 HD
ENDBRANCH  26  27
BRANCH  26  32
ATOM     32  C   UNL     1      12.340   1.819   6.223  0.00  0.00    +0.069 C 
BRANCH  32  33
ATOM     33  C   UNL     1      11.288   2.469   7.084  0.00  0.00    -0.020 A 
ATOM     34  C   UNL     1      10.542   1.835   8.174  0.00  0.00    +0.003 A 
ATOM     35  C   UNL     1      10.541   0.556   8.735  0.00  0.00    +0.010 A 
ATOM     36  C   UNL     1       9.701   0.272   9.775  0.00  0.00    +0.001 A 
ATOM     37  C   UNL     1       8.848   1.244  10.278  0.00  0.00    +0.002 A 
ATOM     38  C   UNL     1       8.832   2.512   9.739  0.00  0.00    +0.026 A 
ATOM     39  C   UNL     1       9.679   2.824   8.681  0.00  0.00    +0.047 A 
ATOM     40  N   UNL     1       9.895   3.967   7.945  0.00  0.00    -0.360 N 
ATOM     41  C   UNL     1      10.861   3.738   7.003  0.00  0.00    +0.087 A 
ATOM     42  H   UNL     1       9.435   4.811   8.077  0.00  0.00    +0.165 HD
ENDBRANCH  32  33
ENDBRANCH  26  32
ENDBRANCH  24  26
ENDBRANCH   6  22
TORSDOF 8
