REMARK  Name = ZINC11206816
REMARK  10 active torsions:
REMARK  status: ('A' for Active; 'I' for Inactive)
REMARK    1  A    between atoms: C_1  and  C_2
REMARK    2  A    between atoms: C_2  and  C_3
REMARK    3  A    between atoms: C_2  and  C_4
REMARK    4  A    between atoms: C_4  and  C_5
REMARK    5  A    between atoms: C_5  and  N_6
REMARK    6  A    between atoms: C_16  and  S_17
REMARK    7  A    between atoms: S_17  and  C_18
REMARK    8  A    between atoms: C_18  and  C_19
REMARK    9  A    between atoms: N_21  and  C_22
REMARK   10  A    between atoms: C_23  and  C_31
REMARK                            x       y       z     vdW  Elec       q    Type
REMARK                         _______ _______ _______ _____ _____    ______ ____
ROOT
ATOM      1  C   UNL     1      -3.801  -1.496   0.033  0.00  0.00    +0.173 C 
ENDROOT
BRANCH   1   2
ATOM      2  C   UNL     1      -5.219  -2.005   0.045  0.00  0.00    +0.228 C 
ATOM      3  O   UNL     1      -5.434  -3.199   0.041  0.00  0.00    -0.275 OA
ATOM      4  N   UNL     1      -6.248  -1.135   0.060  0.00  0.00    -0.279 N 
ATOM      5  H   UNL     1      -6.076  -0.180   0.063  0.00  0.00    +0.155 HD
BRANCH   4   6
ATOM      6  C   UNL     1      -7.553  -1.604   0.070  0.00  0.00    +0.084 A 
ATOM      7  C   UNL     1      -8.732  -0.873   0.092  0.00  0.00    +0.068 A 
ATOM      8  C   UNL     1      -9.982  -1.614   0.096  0.00  0.00    -0.023 A 
ATOM      9  C   UNL     1      -9.853  -2.958   0.088  0.00  0.00    -0.004 A 
ATOM     10  S   UNL     1      -8.107  -3.246   0.068  0.00  0.00    -0.077 S 
ATOM     11  C   UNL     1     -10.957  -3.971   0.096  0.00  0.00    +0.043 C 
ATOM     12  C   UNL     1     -12.260  -3.263   0.492  0.00  0.00    +0.005 C 
ATOM     13  C   UNL     1     -12.398  -1.983  -0.338  0.00  0.00    +0.005 C 
ATOM     14  C   UNL     1     -11.356  -0.957   0.113  0.00  0.00    +0.037 C 
BRANCH   7  15
ATOM     15  C   UNL     1      -8.717   0.593   0.105  0.00  0.00    +0.244 C 
ATOM     16  O   UNL     1      -8.724   1.212  -0.943  0.00  0.00    -0.270 OA
ATOM     17  N   UNL     1      -8.695   1.256   1.279  0.00  0.00    -0.325 N 
ATOM     18  H   UNL     1      -8.690   0.763   2.114  0.00  0.00    +0.145 HD
ATOM     19  H   UNL     1      -8.686   2.226   1.288  0.00  0.00    +0.145 HD
ENDBRANCH   7  15
ENDBRANCH   4   6
ENDBRANCH   1   2
BRANCH   1  20
ATOM     20  S   UNL     1      -2.656  -2.897   0.014  0.00  0.00    -0.078 S 
BRANCH  20  31
ATOM     21  N   UNL     1       0.036  -2.766  -0.012  0.00  0.00    -0.287 N 
ATOM     22  C   UNL     1       1.239  -2.146  -0.021  0.00  0.00    +0.262 A 
ATOM     23  O   UNL     1       2.277  -2.782  -0.034  0.00  0.00    -0.267 OA
ATOM     24  C   UNL     1       1.245  -0.677  -0.013  0.00  0.00    +0.065 A 
ATOM     25  C   UNL     1       2.432   0.055  -0.021  0.00  0.00    +0.015 A 
ATOM     26  C   UNL     1       2.381   1.422  -0.013  0.00  0.00    +0.001 A 
ATOM     27  C   UNL     1       1.161   2.086   0.002  0.00  0.00    +0.002 A 
ATOM     28  C   UNL     1      -0.017   1.394   0.010  0.00  0.00    +0.028 A 
ATOM     29  C   UNL     1       0.002  -0.004   0.002  0.00  0.00    +0.079 A 
ATOM     30  N   UNL     1      -1.136  -0.726   0.009  0.00  0.00    -0.223 NA
ATOM     31  C   UNL     1      -1.119  -2.036   0.003  0.00  0.00    +0.173 A 
BRANCH  21  32
ATOM     32  C   UNL     1      -0.028  -4.229  -0.019  0.00  0.00    +0.127 C 
BRANCH  32  33
ATOM     33  C   UNL     1      -0.037  -4.746   1.421  0.00  0.00    +0.025 C 
BRANCH  33  35
ATOM     34  C   UNL     1       0.013  -6.797   2.847  0.00  0.00    +0.007 C 
ATOM     35  C   UNL     1      -0.104  -6.275   1.414  0.00  0.00    -0.016 C 
ATOM     36  C   UNL     1      -1.438  -6.724   0.815  0.00  0.00    +0.007 C 
ENDBRANCH  33  35
ENDBRANCH  32  33
ENDBRANCH  21  32
ENDBRANCH  20  31
ENDBRANCH   1  20
TORSDOF 8
