REMARK  Name = ZINC39448939
REMARK  6 active torsions:
REMARK  status: ('A' for Active; 'I' for Inactive)
REMARK    1  A    between atoms: C_1  and  C_2
REMARK    2  A    between atoms: C_8  and  S_22
REMARK    3  A    between atoms: C_16  and  N_19
REMARK    4  A    between atoms: S_22  and  N_25
REMARK    5  A    between atoms: N_25  and  C_26
REMARK    6  A    between atoms: C_26  and  C_27
REMARK                            x       y       z     vdW  Elec       q    Type
REMARK                         _______ _______ _______ _____ _____    ______ ____
ROOT
ATOM      1  C   UNL     1       0.672  -0.755   1.124  0.00  0.00    +0.110 C 
ATOM      2  C   UNL     1       0.002  -0.004   0.002  0.00  0.00    +0.221 C 
ATOM      3  O   UNL     1      -0.092   1.204   0.052  0.00  0.00    -0.275 OA
ATOM      4  N   UNL     1      -0.493  -0.675  -1.057  0.00  0.00    -0.240 N 
ATOM      5  C   UNL     1      -1.009   0.058  -2.123  0.00  0.00    +0.045 A 
ATOM      6  C   UNL     1      -0.237   1.149  -2.541  0.00  0.00    +0.026 A 
ATOM      7  C   UNL     1      -0.632   1.929  -3.604  0.00  0.00    +0.030 A 
ATOM      8  C   UNL     1      -1.808   1.625  -4.266  0.00  0.00    +0.106 A 
ATOM      9  C   UNL     1      -2.573   0.560  -3.850  0.00  0.00    +0.034 A 
ATOM     10  C   UNL     1      -2.192  -0.232  -2.763  0.00  0.00    -0.023 A 
ATOM     11  C   UNL     1      -3.180  -1.313  -2.406  0.00  0.00    +0.042 C 
ATOM     12  C   UNL     1      -2.949  -1.951  -1.058  0.00  0.00    +0.042 C 
ATOM     13  C   UNL     1      -1.667  -2.725  -1.009  0.00  0.00    -0.025 A 
ATOM     14  C   UNL     1      -0.460  -2.070  -1.033  0.00  0.00    +0.047 A 
ATOM     15  C   UNL     1       0.741  -2.765  -1.026  0.00  0.00    +0.056 A 
ATOM     16  C   UNL     1       0.718  -4.148  -0.975  0.00  0.00    +0.128 A 
ATOM     17  C   UNL     1      -0.491  -4.816  -0.932  0.00  0.00    +0.033 A 
ATOM     18  C   UNL     1      -1.695  -4.110  -0.947  0.00  0.00    +0.008 A 
ENDROOT
BRANCH  16  19
ATOM     19  N   UNL     1       1.987  -4.910  -0.967  0.00  0.00    +0.056 N 
ATOM     20  O   UNL     1       3.044  -4.324  -1.006  0.00  0.00    -0.126 OA
ATOM     21  O   UNL     1       1.966  -6.118  -0.923  0.00  0.00    -0.126 OA
ENDBRANCH  16  19
BRANCH   8  22
ATOM     22  S   UNL     1      -2.325   2.600  -5.640  0.00  0.00    +0.059 S 
ATOM     23  O   UNL     1      -3.733   2.442  -5.743  0.00  0.00    -0.153 OA
ATOM     24  O   UNL     1      -1.710   3.872  -5.489  0.00  0.00    -0.153 OA
BRANCH  22  25
ATOM     25  N   UNL     1      -1.671   1.917  -6.999  0.00  0.00    -0.186 NA
ATOM     26  H   UNL     1      -1.013   2.405  -7.519  0.00  0.00    +0.148 HD
BRANCH  25  27
ATOM     27  C   UNL     1      -2.085   0.575  -7.416  0.00  0.00    +0.141 C 
BRANCH  27  28
ATOM     28  C   UNL     1      -1.647   0.333  -8.838  0.00  0.00    -0.032 A 
ATOM     29  C   UNL     1      -2.482   0.672  -9.886  0.00  0.00    +0.005 A 
ATOM     30  C   UNL     1      -2.079   0.450 -11.190  0.00  0.00    +0.000 A 
ATOM     31  C   UNL     1      -0.842  -0.110 -11.445  0.00  0.00    +0.000 A 
ATOM     32  C   UNL     1      -0.006  -0.448 -10.397  0.00  0.00    +0.000 A 
ATOM     33  C   UNL     1      -0.407  -0.222  -9.093  0.00  0.00    +0.005 A 
ENDBRANCH  27  28
ENDBRANCH  25  27
ENDBRANCH  22  25
ENDBRANCH   8  22
TORSDOF 5
