REMARK  Name = ZINC09522366
REMARK  6 active torsions:
REMARK  status: ('A' for Active; 'I' for Inactive)
REMARK    1  A    between atoms: C_1  and  C_2
REMARK    2  A    between atoms: C_6  and  N_8
REMARK    3  A    between atoms: C_13  and  O_21
REMARK    4  A    between atoms: C_15  and  S_17
REMARK    5  A    between atoms: S_17  and  C_18
REMARK    6  A    between atoms: C_18  and  C_19
REMARK                            x       y       z     vdW  Elec       q    Type
REMARK                         _______ _______ _______ _____ _____    ______ ____
ROOT
ATOM      1  N   UNL     1       3.573   2.593   2.427  0.00  0.00    -0.214 N 
ATOM      2  C   UNL     1       3.160   2.416   1.137  0.00  0.00    +0.171 A 
ATOM      3  C   UNL     1       1.880   1.830   1.203  0.00  0.00    +0.100 A 
ATOM      4  C   UNL     1       1.570   1.667   2.572  0.00  0.00    +0.150 A 
ATOM      5  N   UNL     1       2.567   2.120   3.278  0.00  0.00    -0.172 NA
ATOM      6  C   UNL     1       1.218   1.530  -0.001  0.00  0.00    +0.227 A 
ATOM      7  N   UNL     1       1.822   1.820  -1.145  0.00  0.00    -0.187 NA
ATOM      8  C   UNL     1       3.028   2.377  -1.163  0.00  0.00    +0.194 A 
ATOM      9  N   UNL     1       3.690   2.672  -0.056  0.00  0.00    -0.202 NA
ENDROOT
BRANCH   1  15
ATOM     10  C   UNL     1       6.132   5.321   5.620  0.00  0.00    +0.044 C 
ATOM     11  C   UNL     1       6.061   4.478   4.373  0.00  0.00    -0.048 A 
ATOM     12  C   UNL     1       7.203   4.255   3.624  0.00  0.00    +0.003 A 
ATOM     13  C   UNL     1       7.142   3.481   2.480  0.00  0.00    +0.002 A 
ATOM     14  C   UNL     1       5.942   2.925   2.083  0.00  0.00    +0.028 A 
ATOM     15  C   UNL     1       4.793   3.152   2.829  0.00  0.00    +0.068 A 
ATOM     16  C   UNL     1       4.857   3.929   3.979  0.00  0.00    +0.031 A 
ENDBRANCH   1  15
BRANCH   6  17
ATOM     17  O   UNL     1      -0.011   0.963   0.007  0.00  0.00    -0.492 OA
ATOM     18  H   UNL     1       0.002  -0.004   0.002  0.00  0.00    +0.294 HD
ENDBRANCH   6  17
BRANCH   8  19
ATOM     19  S   UNL     1       3.773   2.737  -2.719  0.00  0.00    -0.073 S 
BRANCH  19  20
ATOM     20  C   UNL     1       2.474   2.149  -3.833  0.00  0.00    +0.165 C 
BRANCH  20  21
ATOM     21  C   UNL     1       2.894   2.357  -5.229  0.00  0.00    -0.094 C 
ATOM     22  C   UNL     1       3.228   2.522  -6.342  0.00  0.00    +0.004 C 
ENDBRANCH  20  21
ENDBRANCH  19  20
ENDBRANCH   8  19
TORSDOF 5
