REMARK  Name = ZINC38595918
REMARK  9 active torsions:
REMARK  status: ('A' for Active; 'I' for Inactive)
REMARK    1  A    between atoms: C_1  and  C_2
REMARK    2  A    between atoms: C_2  and  C_4
REMARK    3  A    between atoms: C_2  and  N_24
REMARK    4  A    between atoms: C_4  and  C_6
REMARK    5  A    between atoms: C_4  and  N_11
REMARK    6  A    between atoms: N_14  and  C_17
REMARK    7  A    between atoms: C_17  and  C_18
REMARK    8  A    between atoms: C_25  and  C_27
REMARK    9  A    between atoms: C_27  and  C_32
REMARK                            x       y       z     vdW  Elec       q    Type
REMARK                         _______ _______ _______ _____ _____    ______ ____
ROOT
ATOM      1  C   UNL     1      -1.427  -0.534   0.139  0.00  0.00    +0.113 C 
ENDROOT
BRANCH   1   2
ATOM      2  N   UNL     1      -2.427  -0.197  -0.882  0.00  0.00    -0.297 NA
ATOM      3  C   UNL     1      -3.705  -0.870  -0.611  0.00  0.00    +0.066 C 
ATOM      4  C   UNL     1      -4.735  -0.446  -1.660  0.00  0.00    -0.063 C 
ATOM      5  N   UNL     1      -4.247  -0.806  -2.998  0.00  0.00    +0.384 N 
ATOM      6  C   UNL     1      -2.983  -0.106  -3.265  0.00  0.00    -0.063 C 
ATOM      7  C   UNL     1      -1.939  -0.527  -2.229  0.00  0.00    +0.066 C 
ATOM      8  H   UNL     1      -4.096  -1.802  -3.044  0.00  0.00    -0.081 HD
BRANCH   5   9
ATOM      9  C   UNL     1      -5.244  -0.415  -4.004  0.00  0.00    -0.043 C 
BRANCH   9  10
ATOM     10  C   UNL     1      -4.801  -0.893  -5.363  0.00  0.00    -0.064 A 
ATOM     11  C   UNL     1      -4.013  -0.082  -6.157  0.00  0.00    +0.002 A 
ATOM     12  C   UNL     1      -3.606  -0.520  -7.404  0.00  0.00    +0.000 A 
ATOM     13  C   UNL     1      -3.987  -1.770  -7.855  0.00  0.00    +0.000 A 
ATOM     14  C   UNL     1      -4.775  -2.581  -7.060  0.00  0.00    +0.000 A 
ATOM     15  C   UNL     1      -5.178  -2.145  -5.812  0.00  0.00    +0.002 A 
ENDBRANCH   9  10
ENDBRANCH   5   9
ENDBRANCH   1   2
BRANCH   1  16
ATOM     16  C   UNL     1      -1.971  -0.204   1.504  0.00  0.00    +0.009 A 
ATOM     17  C   UNL     1      -1.900  -0.927   2.649  0.00  0.00    +0.013 A 
ATOM     18  C   UNL     1      -2.478  -0.420   3.798  0.00  0.00    +0.008 A 
ATOM     19  C   UNL     1      -3.099   0.783   3.746  0.00  0.00    +0.045 A 
ATOM     20  S   UNL     1      -2.871   1.243   2.036  0.00  0.00    -0.100 S 
ENDBRANCH   1  16
BRANCH   1  22
ATOM     21  C   UNL     1      -0.489   1.765  -0.138  0.00  0.00    +0.030 C 
ATOM     22  C   UNL     1      -0.151   0.273  -0.111  0.00  0.00    +0.092 C 
BRANCH  22  23
ATOM     23  N   UNL     1       0.811   0.011   0.963  0.00  0.00    -0.310 N 
ATOM     24  C   UNL     1       2.130   0.174   0.740  0.00  0.00    +0.224 C 
ATOM     25  O   UNL     1       2.521   0.538  -0.349  0.00  0.00    -0.275 OA
ATOM     26  H   UNL     1       0.498  -0.281   1.833  0.00  0.00    +0.149 HD
BRANCH  24  27
ATOM     27  C   UNL     1       3.119  -0.097   1.844  0.00  0.00    +0.078 C 
ATOM     28  C   UNL     1       2.882   0.874   3.014  0.00  0.00    +0.021 C 
ATOM     29  C   UNL     1       4.182   1.688   3.182  0.00  0.00    +0.001 C 
ATOM     30  C   UNL     1       4.860   1.611   1.792  0.00  0.00    +0.001 C 
ATOM     31  C   UNL     1       4.555   0.161   1.342  0.00  0.00    +0.021 C 
BRANCH  27  32
ATOM     32  C   UNL     1       2.986  -1.521   2.319  0.00  0.00    +0.005 A 
ATOM     33  C   UNL     1       1.904  -2.150   2.838  0.00  0.00    +0.012 A 
ATOM     34  C   UNL     1       2.014  -3.477   3.209  0.00  0.00    +0.008 A 
ATOM     35  C   UNL     1       3.200  -4.110   3.042  0.00  0.00    +0.045 A 
ATOM     36  S   UNL     1       4.211  -2.819   2.336  0.00  0.00    -0.101 S 
ENDBRANCH  27  32
ENDBRANCH  24  27
ENDBRANCH  22  23
ENDBRANCH   1  22
TORSDOF 8
