REMARK  Name = ZINC06456393
REMARK  8 active torsions:
REMARK  status: ('A' for Active; 'I' for Inactive)
REMARK    1  A    between atoms: C_1  and  C_2
REMARK    2  A    between atoms: C_6  and  C_39
REMARK    3  A    between atoms: C_7  and  N_8
REMARK    4  A    between atoms: N_8  and  S_9
REMARK    5  A    between atoms: S_9  and  C_12
REMARK    6  A    between atoms: C_25  and  C_28
REMARK    7  A    between atoms: C_32  and  O_34
REMARK    8  A    between atoms: O_34  and  C_35
REMARK                            x       y       z     vdW  Elec       q    Type
REMARK                         _______ _______ _______ _____ _____    ______ ____
ROOT
ATOM      1  C   UNL     1       3.312   1.744  -1.732  0.00  0.00    +0.109 A 
ATOM      2  C   UNL     1       2.353   1.473  -2.691  0.00  0.00    +0.030 A 
ATOM      3  C   UNL     1       1.087   1.084  -2.302  0.00  0.00    +0.025 A 
ATOM      4  C   UNL     1       0.780   0.966  -0.952  0.00  0.00    +0.031 A 
ATOM      5  C   UNL     1       1.739   1.234   0.013  0.00  0.00    -0.018 A 
ATOM      6  C   UNL     1       3.008   1.625  -0.391  0.00  0.00    +0.034 A 
ATOM      7  C   UNL     1       1.456   1.117   1.477  0.00  0.00    +0.049 C 
ATOM      8  C   UNL     1       1.306   2.475   2.120  0.00  0.00    -0.023 C 
ATOM      9  C   UNL     1       0.383   2.438   3.051  0.00  0.00    -0.030 C 
ATOM     10  C   UNL     1      -0.205   1.045   3.159  0.00  0.00    +0.033 C 
ATOM     11  C   UNL     1       0.121   0.407   1.777  0.00  0.00    +0.029 C 
ATOM     12  C   UNL     1      -0.948   0.862   0.780  0.00  0.00    +0.105 C 
ATOM     13  N   UNL     1      -0.509   0.578  -0.573  0.00  0.00    -0.336 N 
ATOM     14  H   UNL     1      -1.095   0.123  -1.198  0.00  0.00    +0.147 HD
ENDROOT
BRANCH  12  15
ATOM     15  C   UNL     1      -1.176   2.345   0.925  0.00  0.00    -0.024 A 
ATOM     16  C   UNL     1      -0.299   3.239   0.338  0.00  0.00    +0.006 A 
ATOM     17  C   UNL     1      -0.505   4.599   0.469  0.00  0.00    +0.004 A 
ATOM     18  C   UNL     1      -1.588   5.069   1.188  0.00  0.00    +0.045 A 
ATOM     19  C   UNL     1      -2.469   4.175   1.778  0.00  0.00    +0.121 A 
ATOM     20  C   UNL     1      -2.263   2.809   1.640  0.00  0.00    +0.051 A 
BRANCH  19  21
ATOM     21  O   UNL     1      -3.534   4.634   2.484  0.00  0.00    -0.487 OA
BRANCH  21  22
ATOM     22  C   UNL     1      -3.762   6.045   2.471  0.00  0.00    +0.193 C 
ATOM     23  C   UNL     1      -3.313   6.739   3.758  0.00  0.00    +0.114 C 
ATOM     24  S   UNL     1      -4.644   7.957   3.562  0.00  0.00    -0.153 S 
ATOM     25  C   UNL     1      -5.213   6.423   2.777  0.00  0.00    +0.114 C 
ENDBRANCH  21  22
ENDBRANCH  19  21
ENDBRANCH  12  15
BRANCH   1  26
ATOM     26  S   UNL     1       4.929   2.242  -2.224  0.00  0.00    +0.072 S 
ATOM     27  O   UNL     1       4.822   2.698  -3.566  0.00  0.00    -0.150 OA
ATOM     28  O   UNL     1       5.437   3.061  -1.180  0.00  0.00    -0.150 OA
BRANCH  26  29
ATOM     29  N   UNL     1       5.872   0.881  -2.260  0.00  0.00    -0.216 N 
ATOM     30  H   UNL     1       6.579   0.764  -1.607  0.00  0.00    +0.174 HD
BRANCH  29  37
ATOM     31  C   UNL     1       4.589  -1.529  -1.461  0.00  0.00    +0.046 C 
ATOM     32  C   UNL     1       5.024  -1.291  -2.884  0.00  0.00    -0.028 A 
ATOM     33  C   UNL     1       4.800  -2.255  -3.847  0.00  0.00    +0.005 A 
ATOM     34  C   UNL     1       5.204  -2.039  -5.152  0.00  0.00    +0.001 A 
ATOM     35  C   UNL     1       5.829  -0.855  -5.498  0.00  0.00    +0.005 A 
ATOM     36  C   UNL     1       6.052   0.115  -4.542  0.00  0.00    -0.028 A 
ATOM     37  C   UNL     1       5.647  -0.098  -3.230  0.00  0.00    +0.054 A 
ATOM     38  C   UNL     1       6.733   1.405  -4.920  0.00  0.00    +0.046 C 
ENDBRANCH  29  37
ENDBRANCH  26  29
ENDBRANCH   1  26
TORSDOF 6
