REMARK  Name = ZINC36214754
REMARK  10 active torsions:
REMARK  status: ('A' for Active; 'I' for Inactive)
REMARK    1  A    between atoms: C_1  and  C_2
REMARK    2  A    between atoms: C_2  and  C_3
REMARK    3  A    between atoms: C_3  and  C_5
REMARK    4  A    between atoms: C_3  and  N_6
REMARK    5  A    between atoms: C_7  and  C_9
REMARK    6  A    between atoms: C_9  and  C_11
REMARK    7  A    between atoms: C_9  and  N_27
REMARK    8  A    between atoms: N_14  and  S_17
REMARK    9  A    between atoms: S_17  and  C_20
REMARK   10  A    between atoms: C_28  and  C_30
REMARK                            x       y       z     vdW  Elec       q    Type
REMARK                         _______ _______ _______ _____ _____    ______ ____
ROOT
ATOM      1  C   UNL     1      -4.090   0.329   2.630  0.00  0.00    +0.162 C 
ENDROOT
BRANCH   1   2
ATOM      2  C   UNL     1      -3.998   1.844   2.824  0.00  0.00    +0.021 C 
ATOM      3  C   UNL     1      -2.526   2.264   2.862  0.00  0.00    +0.023 C 
ATOM      4  C   UNL     1      -2.438   3.785   3.021  0.00  0.00    +0.110 C 
ATOM      5  N   UNL     1      -3.209   4.182   4.207  0.00  0.00    -0.177 NA
ATOM      6  C   UNL     1      -4.610   3.753   4.314  0.00  0.00    +0.110 C 
ATOM      7  C   UNL     1      -4.675   2.232   4.140  0.00  0.00    +0.023 C 
BRANCH   5   8
ATOM      8  S   UNL     1      -2.513   5.096   5.399  0.00  0.00    +0.061 S 
ATOM      9  O   UNL     1      -3.252   4.845   6.587  0.00  0.00    -0.153 OA
ATOM     10  O   UNL     1      -1.112   4.876   5.314  0.00  0.00    -0.153 OA
BRANCH   8  11
ATOM     11  C   UNL     1      -2.784   6.787   4.985  0.00  0.00    +0.106 A 
ATOM     12  C   UNL     1      -1.864   7.463   4.206  0.00  0.00    +0.030 A 
ATOM     13  C   UNL     1      -2.076   8.790   3.881  0.00  0.00    +0.022 A 
ATOM     14  C   UNL     1      -3.209   9.441   4.335  0.00  0.00    +0.041 A 
ATOM     15  C   UNL     1      -4.130   8.763   5.115  0.00  0.00    +0.022 A 
ATOM     16  C   UNL     1      -3.919   7.435   5.435  0.00  0.00    +0.030 A 
ATOM     17 CL   UNL     1      -3.476  11.107   3.928  0.00  0.00    -0.084 Cl
ENDBRANCH   8  11
ENDBRANCH   5   8
ENDBRANCH   1   2
BRANCH   1  19
ATOM     18  N   UNL     1      -2.082  -0.162   1.273  0.00  0.00    -0.311 N 
ATOM     19  C   UNL     1      -3.424  -0.053   1.334  0.00  0.00    +0.234 C 
ATOM     20  O   UNL     1      -4.095  -0.264   0.346  0.00  0.00    -0.274 OA
ATOM     21  H   UNL     1      -1.545   0.006   2.063  0.00  0.00    +0.149 HD
BRANCH  18  22
ATOM     22  C   UNL     1      -1.433  -0.534   0.013  0.00  0.00    +0.070 C 
ATOM     23  C   UNL     1      -1.416  -2.058  -0.121  0.00  0.00    +0.028 C 
BRANCH  22  25
ATOM     24  C   UNL     1      -0.019   1.526   0.010  0.00  0.00    +0.005 C 
ATOM     25  C   UNL     1       0.002  -0.004   0.002  0.00  0.00    +0.018 C 
ENDBRANCH  22  25
ENDBRANCH  18  22
ENDBRANCH   1  19
BRANCH   1  26
ATOM     26  N   UNL     1      -5.498  -0.073   2.592  0.00  0.00    -0.299 N 
ATOM     27  C   UNL     1      -6.317   0.427   1.645  0.00  0.00    +0.251 C 
ATOM     28  O   UNL     1      -5.886   1.213   0.822  0.00  0.00    -0.270 OA
ATOM     29  H   UNL     1      -5.842  -0.699   3.249  0.00  0.00    +0.150 HD
BRANCH  27  30
ATOM     30  C   UNL     1      -7.726   0.025   1.607  0.00  0.00    +0.074 A 
ATOM     31  C   UNL     1      -8.722   0.412   0.724  0.00  0.00    +0.021 A 
ATOM     32  C   UNL     1      -9.961  -0.139   0.943  0.00  0.00    +0.008 A 
ATOM     33  C   UNL     1     -10.126  -1.001   1.976  0.00  0.00    +0.046 A 
ATOM     34  S   UNL     1      -8.604  -1.096   2.680  0.00  0.00    -0.092 S 
ENDBRANCH  27  30
ENDBRANCH   1  26
TORSDOF 8
