REMARK  Name = ZINC27816497
REMARK  6 active torsions:
REMARK  status: ('A' for Active; 'I' for Inactive)
REMARK    1  A    between atoms: C_1  and  N_2
REMARK    2  A    between atoms: C_15  and  S_16
REMARK    3  A    between atoms: S_16  and  C_17
REMARK    4  A    between atoms: C_17  and  C_18
REMARK    5  A    between atoms: C_18  and  C_19
REMARK    6  A    between atoms: C_19  and  N_20
REMARK                            x       y       z     vdW  Elec       q    Type
REMARK                         _______ _______ _______ _____ _____    ______ ____
ROOT
ATOM      1  C   UNL     1      -2.506   2.811   8.254  0.00  0.00    +0.155 C 
ATOM      2  N   UNL     1      -1.461   2.091   7.523  0.00  0.00    -0.280 N 
ATOM      3  C   UNL     1      -0.513   1.421   8.209  0.00  0.00    +0.263 A 
ATOM      4  O   UNL     1      -0.514   1.418   9.425  0.00  0.00    -0.267 OA
ATOM      5  C   UNL     1       0.531   0.699   7.459  0.00  0.00    +0.064 A 
ATOM      6  C   UNL     1       1.540  -0.003   8.116  0.00  0.00    +0.015 A 
ATOM      7  C   UNL     1       2.500  -0.665   7.380  0.00  0.00    +0.001 A 
ATOM      8  C   UNL     1       2.464  -0.636   5.995  0.00  0.00    +0.002 A 
ATOM      9  C   UNL     1       1.469   0.055   5.332  0.00  0.00    +0.027 A 
ATOM     10  C   UNL     1       0.497   0.728   6.057  0.00  0.00    +0.064 A 
ATOM     11  N   UNL     1      -0.518   1.433   5.413  0.00  0.00    -0.256 N 
ATOM     12  C   UNL     1      -1.472   2.096   6.137  0.00  0.00    +0.240 A 
ATOM     13  N   UNL     1      -2.299   2.662   5.287  0.00  0.00    -0.109 NA
ATOM     14  N   UNL     1      -1.864   2.362   3.990  0.00  0.00    -0.120 NA
ATOM     15  C   UNL     1      -0.786   1.622   4.084  0.00  0.00    +0.198 A 
ENDROOT
BRANCH  15  16
ATOM     16  S   UNL     1       0.148   0.978   2.736  0.00  0.00    -0.086 S 
BRANCH  16  17
ATOM     17  C   UNL     1      -0.729   1.579   1.267  0.00  0.00    +0.079 C 
BRANCH  17  18
ATOM     18  C   UNL     1      -0.013   1.086   0.008  0.00  0.00    +0.030 C 
BRANCH  18  19
ATOM     19  C   UNL     1      -0.753   1.593  -1.232  0.00  0.00    +0.118 C 
BRANCH  19  20
ATOM     20  N   UNL     1      -0.067   1.120  -2.437  0.00  0.00    -0.234 N 
ATOM     21  C   UNL     1       0.913   1.792  -3.067  0.00  0.00    +0.254 C 
ATOM     22  O   UNL     1       1.364   2.869  -2.733  0.00  0.00    -0.270 OA
ATOM     23  C   UNL     1       1.353   0.998  -4.234  0.00  0.00    +0.049 A 
ATOM     24  C   UNL     1       2.305   1.179  -5.225  0.00  0.00    +0.014 A 
ATOM     25  C   UNL     1       2.466   0.214  -6.207  0.00  0.00    +0.001 A 
ATOM     26  C   UNL     1       1.684  -0.925  -6.205  0.00  0.00    +0.001 A 
ATOM     27  C   UNL     1       0.727  -1.120  -5.221  0.00  0.00    +0.014 A 
ATOM     28  C   UNL     1       0.555  -0.164  -4.233  0.00  0.00    +0.049 A 
ATOM     29  C   UNL     1      -0.339  -0.040  -3.062  0.00  0.00    +0.254 C 
ATOM     30  O   UNL     1      -1.178  -0.849  -2.722  0.00  0.00    -0.270 OA
ENDBRANCH  19  20
ENDBRANCH  18  19
ENDBRANCH  17  18
ENDBRANCH  16  17
ENDBRANCH  15  16
TORSDOF 5
