REMARK  Name = ZINC36393703
REMARK  4 active torsions:
REMARK  status: ('A' for Active; 'I' for Inactive)
REMARK    1  A    between atoms: C_1  and  C_2
REMARK    2  A    between atoms: N_13  and  C_25
REMARK    3  A    between atoms: C_14  and  C_16
REMARK    4  A    between atoms: C_19  and  N_22
REMARK                            x       y       z     vdW  Elec       q    Type
REMARK                         _______ _______ _______ _____ _____    ______ ____
ROOT
ATOM      1  C   UNL     1      -0.019   1.526   0.010  0.00  0.00    +0.070 C 
ATOM      2  C   UNL     1       0.002  -0.004   0.002  0.00  0.00    +0.247 C 
ATOM      3  O   UNL     1       0.658  -0.457  -1.159  0.00  0.00    -0.351 OA
ATOM      4  C   UNL     1       0.690  -1.853  -1.346  0.00  0.00    +0.171 C 
ATOM      5  C   UNL     1       1.743  -2.579  -0.567  0.00  0.00    +0.072 C 
ATOM      6  C   UNL     1       1.402  -2.826   0.893  0.00  0.00    +0.175 C 
ATOM      7  C   UNL     1       0.480  -1.839   1.551  0.00  0.00    +0.197 C 
ATOM      8  O   UNL     1       0.686  -0.473   1.156  0.00  0.00    -0.349 OA
ATOM      9  O   UNL     1       0.844  -4.157   0.926  0.00  0.00    -0.291 OA
ATOM     10  N   UNL     1       1.682  -4.920  -0.025  0.00  0.00    -0.183 NA
ATOM     11  C   UNL     1       1.921  -4.006  -1.146  0.00  0.00    +0.122 C 
ATOM     12  C   UNL     1       0.991  -6.135  -0.477  0.00  0.00    +0.138 C 
ENDROOT
BRANCH  11  13
ATOM     13  C   UNL     1       3.324  -4.191  -1.664  0.00  0.00    -0.027 A 
ATOM     14  C   UNL     1       4.353  -4.474  -0.785  0.00  0.00    +0.007 A 
ATOM     15  C   UNL     1       5.640  -4.644  -1.260  0.00  0.00    +0.033 A 
ATOM     16  C   UNL     1       5.898  -4.530  -2.613  0.00  0.00    +0.126 A 
ATOM     17  C   UNL     1       4.869  -4.247  -3.492  0.00  0.00    +0.033 A 
ATOM     18  C   UNL     1       3.581  -4.082  -3.018  0.00  0.00    +0.007 A 
BRANCH  16  19
ATOM     19  N   UNL     1       7.277  -4.710  -3.122  0.00  0.00    +0.056 N 
ATOM     20  O   UNL     1       8.177  -4.957  -2.353  0.00  0.00    -0.126 OA
ATOM     21  O   UNL     1       7.502  -4.611  -4.305  0.00  0.00    -0.126 OA
ENDBRANCH  16  19
ENDBRANCH  11  13
TORSDOF 2
