REMARK  Name = ZINC20236165
REMARK  13 active torsions:
REMARK  status: ('A' for Active; 'I' for Inactive)
REMARK    1  A    between atoms: C_1  and  C_2
REMARK    2  A    between atoms: C_9  and  C_10
REMARK    3  A    between atoms: C_13  and  O_18
REMARK    4  A    between atoms: C_14  and  O_16
REMARK    5  A    between atoms: O_16  and  C_17
REMARK    6  A    between atoms: O_18  and  C_19
REMARK    7  A    between atoms: C_19  and  C_20
REMARK    8  A    between atoms: C_20  and  O_21
REMARK    9  A    between atoms: O_21  and  C_22
REMARK   10  A    between atoms: C_25  and  C_30
REMARK   11  A    between atoms: C_27  and  O_28
REMARK   12  A    between atoms: O_28  and  C_29
REMARK   13  A    between atoms: C_30  and  C_31
REMARK                            x       y       z     vdW  Elec       q    Type
REMARK                         _______ _______ _______ _____ _____    ______ ____
ROOT
ATOM      1  C   UNL     1       0.639  -6.804   1.134  0.00  0.00    -0.021 A 
ATOM      2  C   UNL     1      -0.744  -6.900   0.922  0.00  0.00    +0.012 A 
ATOM      3  C   UNL     1      -1.413  -8.054   1.260  0.00  0.00    +0.050 A 
ATOM      4  C   UNL     1      -0.721  -9.126   1.812  0.00  0.00    +0.162 A 
ATOM      5  C   UNL     1       0.654  -9.039   2.027  0.00  0.00    +0.162 A 
ATOM      6  C   UNL     1       1.336  -7.888   1.686  0.00  0.00    +0.057 A 
ENDROOT
BRANCH   1  15
ATOM      7  C   UNL     1       8.191  -3.462   1.946  0.00  0.00    +0.089 C 
ATOM      8  C   UNL     1       6.756  -3.917   2.017  0.00  0.00    +0.134 C 
ATOM      9  C   UNL     1       6.241  -4.732   2.963  0.00  0.00    +0.091 C 
ATOM     10  C   UNL     1       4.877  -4.915   2.695  0.00  0.00    +0.168 C 
ATOM     11  N   UNL     1       3.981  -5.668   3.331  0.00  0.00    -0.156 NA
ATOM     12  C   UNL     1       2.729  -5.758   2.860  0.00  0.00    +0.273 C 
ATOM     13  O   UNL     1       1.868  -6.341   3.499  0.00  0.00    -0.268 OA
ATOM     14  C   UNL     1       2.404  -5.140   1.550  0.00  0.00    +0.084 C 
ATOM     15  C   UNL     1       1.354  -5.577   0.774  0.00  0.00    +0.025 C 
ATOM     16  C   UNL     1       3.289  -4.011   1.128  0.00  0.00    +0.176 C 
ATOM     17  N   UNL     1       2.883  -3.010   0.393  0.00  0.00    -0.280 NA
ATOM     18  N   UNL     1       4.588  -4.140   1.600  0.00  0.00    -0.142 N 
ATOM     19  O   UNL     1       5.788  -3.571   1.153  0.00  0.00    -0.375 OA
ATOM     20  H   UNL     1       1.962  -2.972   0.092  0.00  0.00    +0.188 HD
ENDBRANCH   1  15
BRANCH   5  21
ATOM     21  O   UNL     1       1.326 -10.091   2.568  0.00  0.00    -0.491 OA
ATOM     22  C   UNL     1       2.733  -9.932   2.761  0.00  0.00    +0.277 C 
ENDBRANCH   5  21
BRANCH   4  23
ATOM     23  O   UNL     1      -1.387 -10.261   2.144  0.00  0.00    -0.485 OA
BRANCH  23  24
ATOM     24  C   UNL     1      -2.795 -10.283   1.898  0.00  0.00    +0.270 C 
BRANCH  24  25
ATOM     25  C   UNL     1      -3.367 -11.634   2.332  0.00  0.00    +0.270 C 
BRANCH  25  26
ATOM     26  O   UNL     1      -3.229 -11.777   3.747  0.00  0.00    -0.485 OA
BRANCH  26  27
ATOM     27  C   UNL     1      -3.691 -12.931   4.299  0.00  0.00    +0.162 A 
ATOM     28  C   UNL     1      -4.261 -13.906   3.496  0.00  0.00    +0.050 A 
ATOM     29  C   UNL     1      -4.730 -15.078   4.058  0.00  0.00    +0.008 A 
ATOM     30  C   UNL     1      -4.633 -15.281   5.423  0.00  0.00    -0.040 A 
ATOM     31  C   UNL     1      -4.067 -14.312   6.230  0.00  0.00    +0.053 A 
ATOM     32  C   UNL     1      -3.589 -13.138   5.672  0.00  0.00    +0.162 A 
BRANCH  32  33
ATOM     33  O   UNL     1      -3.026 -12.187   6.464  0.00  0.00    -0.491 OA
ATOM     34  C   UNL     1      -2.954 -12.467   7.863  0.00  0.00    +0.277 C 
ENDBRANCH  32  33
BRANCH  30  35
ATOM     35  C   UNL     1      -5.147 -16.561   6.031  0.00  0.00    +0.061 C 
BRANCH  35  36
ATOM     36  C   UNL     1      -4.042 -17.585   6.054  0.00  0.00    -0.030 C 
ATOM     37  C   UNL     1      -3.708 -18.163   7.181  0.00  0.00    +0.004 C 
ENDBRANCH  35  36
ENDBRANCH  30  35
ENDBRANCH  26  27
ENDBRANCH  25  26
ENDBRANCH  24  25
ENDBRANCH  23  24
ENDBRANCH   4  23
TORSDOF 10
