REMARK  Name = ZINC23194369
REMARK  12 active torsions:
REMARK  status: ('A' for Active; 'I' for Inactive)
REMARK    1  A    between atoms: C_1  and  C_2
REMARK    2  A    between atoms: C_6  and  N_8
REMARK    3  A    between atoms: N_11  and  C_14
REMARK    4  A    between atoms: C_14  and  C_15
REMARK    5  A    between atoms: C_15  and  N_16
REMARK    6  A    between atoms: C_17  and  C_19
REMARK    7  A    between atoms: C_19  and  C_21
REMARK    8  A    between atoms: C_19  and  N_25
REMARK    9  A    between atoms: C_21  and  C_22
REMARK   10  A    between atoms: C_22  and  S_23
REMARK   11  A    between atoms: S_23  and  C_24
REMARK   12  A    between atoms: C_26  and  C_28
REMARK                            x       y       z     vdW  Elec       q    Type
REMARK                         _______ _______ _______ _____ _____    ______ ____
ROOT
ATOM      1  N   UNL     1      -0.190  11.275  -2.318  0.00  0.00    -0.316 N 
ATOM      2  C   UNL     1      -0.681  11.948  -3.378  0.00  0.00    +0.233 C 
ATOM      3  O   UNL     1      -1.106  11.341  -4.338  0.00  0.00    -0.274 OA
ATOM      4  H   UNL     1       0.195  11.826  -1.447  0.00  0.00    +0.149 HD
ENDROOT
BRANCH   1   5
ATOM      5  C   UNL     1      -0.170   9.810  -2.325  0.00  0.00    +0.086 C 
BRANCH   5   6
ATOM      6  C   UNL     1       0.431   9.302  -1.014  0.00  0.00    -0.060 C 
BRANCH   6  10
ATOM      7  N   UNL     1      -0.069   5.239   0.030  0.00  0.00    -0.333 N 
ATOM      8  C   UNL     1      -0.850   5.761  -1.099  0.00  0.00    +0.086 C 
ATOM      9  C   UNL     1      -0.913   7.288  -1.011  0.00  0.00    -0.060 C 
ATOM     10  N   UNL     1       0.451   7.833  -1.021  0.00  0.00    +0.383 N 
ATOM     11  C   UNL     1       1.233   7.311   0.108  0.00  0.00    -0.060 C 
ATOM     12  C   UNL     1       1.296   5.784   0.020  0.00  0.00    +0.086 C 
ATOM     13  H   UNL     1       0.940   7.508  -1.952  0.00  0.00    -0.082 HD
BRANCH   7  19
ATOM     14  C   UNL     1      -2.514   0.976   0.019  0.00  0.00    +0.044 C 
ATOM     15  C   UNL     1      -1.220   1.749   0.017  0.00  0.00    -0.049 A 
ATOM     16  C   UNL     1      -0.013   1.076   0.008  0.00  0.00    +0.003 A 
ATOM     17  C   UNL     1       1.176   1.782   0.000  0.00  0.00    +0.002 A 
ATOM     18  C   UNL     1       1.161   3.163   0.008  0.00  0.00    +0.023 A 
ATOM     19  C   UNL     1      -0.050   3.842   0.023  0.00  0.00    +0.030 A 
ATOM     20  C   UNL     1      -1.243   3.130   0.031  0.00  0.00    +0.026 A 
ENDBRANCH   7  19
ENDBRANCH   6  10
ENDBRANCH   5   6
ENDBRANCH   1   5
BRANCH   2  21
ATOM     21  C   UNL     1      -0.701  13.455  -3.370  0.00  0.00    +0.160 C 
BRANCH  21  22
ATOM     22  N   UNL     1      -1.277  13.942  -4.626  0.00  0.00    -0.300 N 
ATOM     23  C   UNL     1      -1.860  15.156  -4.673  0.00  0.00    +0.246 C 
ATOM     24  O   UNL     1      -1.907  15.848  -3.675  0.00  0.00    -0.270 OA
ATOM     25  H   UNL     1      -1.234  13.316  -5.529  0.00  0.00    +0.150 HD
BRANCH  23  26
ATOM     26  C   UNL     1      -2.441  15.648  -5.940  0.00  0.00    +0.055 A 
ATOM     27  C   UNL     1      -2.384  14.859  -7.091  0.00  0.00    +0.014 A 
ATOM     28  C   UNL     1      -2.933  15.321  -8.268  0.00  0.00    +0.001 A 
ATOM     29  C   UNL     1      -3.531  16.568  -8.315  0.00  0.00    +0.001 A 
ATOM     30  C   UNL     1      -3.587  17.358  -7.181  0.00  0.00    +0.021 A 
ATOM     31  C   UNL     1      -3.046  16.906  -5.993  0.00  0.00    +0.053 A 
ATOM     32 CL   UNL     1      -3.116  17.899  -4.571  0.00  0.00    -0.083 Cl
ENDBRANCH  23  26
ENDBRANCH  21  22
BRANCH  21  33
ATOM     33  C   UNL     1       0.727  13.984  -3.225  0.00  0.00    +0.042 C 
BRANCH  33  34
ATOM     34  C   UNL     1       0.696  15.508  -3.092  0.00  0.00    +0.071 C 
BRANCH  34  35
ATOM     35  S   UNL     1       2.390  16.134  -2.921  0.00  0.00    -0.164 S 
ATOM     36  C   UNL     1       2.180  17.930  -2.776  0.00  0.00    +0.084 C 
ENDBRANCH  34  35
ENDBRANCH  33  34
ENDBRANCH  21  33
ENDBRANCH   2  21
TORSDOF 10
