REMARK  Name = ZINC38906044
REMARK  6 active torsions:
REMARK  status: ('A' for Active; 'I' for Inactive)
REMARK    1  A    between atoms: C_1  and  N_2
REMARK    2  A    between atoms: N_2  and  C_3
REMARK    3  A    between atoms: N_2  and  C_4
REMARK    4  A    between atoms: C_7  and  C_10
REMARK    5  A    between atoms: N_11  and  N_12
REMARK    6  A    between atoms: C_13  and  C_15
REMARK                            x       y       z     vdW  Elec       q    Type
REMARK                         _______ _______ _______ _____ _____    ______ ____
ROOT
ATOM      1  N   UNL     1      -7.180  -2.974   0.048  0.00  0.00    -0.205 N 
ATOM      2  C   UNL     1      -8.356  -2.316   0.058  0.00  0.00    +0.263 C 
ATOM      3  O   UNL     1      -8.373  -1.103   0.060  0.00  0.00    -0.271 OA
ATOM      4  H   UNL     1      -7.167  -3.944   0.047  0.00  0.00    +0.177 HD
ENDROOT
BRANCH   2   5
ATOM      5  C   UNL     1      -9.651  -3.087   0.065  0.00  0.00    +0.243 C 
ATOM      6  C   UNL     1     -10.027  -3.518  -1.337  0.00  0.00    -0.012 C 
ATOM      7  C   UNL     1     -11.192  -2.918  -1.576  0.00  0.00    +0.065 C 
ATOM      8  C   UNL     1     -11.681  -3.277  -2.968  0.00  0.00    +0.057 C 
ATOM      9  C   UNL     1     -10.440  -3.834  -3.699  0.00  0.00    +0.011 C 
ATOM     10  C   UNL     1      -9.583  -4.344  -2.517  0.00  0.00    +0.035 C 
ATOM     11  N   UNL     1     -11.563  -2.180  -0.494  0.00  0.00    -0.158 NA
ATOM     12  N   UNL     1     -10.774  -2.218   0.456  0.00  0.00    -0.170 NA
ENDBRANCH   2   5
BRANCH   1  14
ATOM     13  C   UNL     1      -4.844  -2.890   0.032  0.00  0.00    +0.138 C 
ATOM     14  N   UNL     1      -5.976  -2.257   0.041  0.00  0.00    -0.188 NA
BRANCH  13  18
ATOM     15  C   UNL     1      -1.196  -0.718   0.010  0.00  0.00    +0.029 A 
ATOM     16  C   UNL     1      -1.175  -2.108   0.008  0.00  0.00    +0.024 A 
ATOM     17  C   UNL     1      -2.357  -2.817   0.015  0.00  0.00    +0.011 A 
ATOM     18  C   UNL     1      -3.577  -2.136   0.025  0.00  0.00    -0.005 A 
ATOM     19  C   UNL     1      -3.594  -0.739   0.027  0.00  0.00    +0.011 A 
ATOM     20  C   UNL     1      -2.409  -0.037   0.025  0.00  0.00    +0.024 A 
BRANCH  15  22
ATOM     21  C   UNL     1      -0.018   1.461   0.010  0.00  0.00    +0.129 C 
ATOM     22  N   UNL     1       0.002  -0.004   0.002  0.00  0.00    -0.336 N 
ATOM     23  C   UNL     1       1.281  -0.719  -0.014  0.00  0.00    +0.129 C 
ENDBRANCH  15  22
ENDBRANCH  13  18
ENDBRANCH   1  14
TORSDOF 4
