REMARK  Name = ZINC62465823
REMARK  5 active torsions:
REMARK  status: ('A' for Active; 'I' for Inactive)
REMARK    1  A    between atoms: C_4  and  C_7
REMARK    2  A    between atoms: N_9  and  C_10
REMARK    3  A    between atoms: N_18  and  C_19
REMARK    4  A    between atoms: C_19  and  C_20
REMARK    5  A    between atoms: C_20  and  N_21
REMARK                            x       y       z     vdW  Elec       q    Type
REMARK                         _______ _______ _______ _____ _____    ______ ____
ROOT
ATOM      1  C   UNL     1       3.684  -2.250  -3.930  0.00  0.00    +0.076 C 
ATOM      2  C   UNL     1       5.194  -2.281  -3.680  0.00  0.00    +0.041 C 
ATOM      3  C   UNL     1       5.909  -2.741  -4.955  0.00  0.00    +0.111 C 
ATOM      4  N   UNL     1       5.341  -4.029  -5.377  0.00  0.00    -0.286 N 
ATOM      5  C   UNL     1       3.887  -4.134  -5.559  0.00  0.00    +0.111 C 
ATOM      6  C   UNL     1       3.194  -3.658  -4.278  0.00  0.00    +0.041 C 
ATOM      7  C   UNL     1       6.139  -5.093  -5.594  0.00  0.00    +0.302 C 
ATOM      8  O   UNL     1       7.347  -4.970  -5.530  0.00  0.00    -0.253 OA
ATOM      9  N   UNL     1       5.598  -6.293  -5.882  0.00  0.00    -0.301 N 
ATOM     10  H   UNL     1       4.639  -6.376  -6.006  0.00  0.00    +0.150 HD
ENDROOT
BRANCH   1  13
ATOM     11  C   UNL     1       2.860  -0.457  -2.501  0.00  0.00    +0.216 C 
ATOM     12  O   UNL     1       3.302   0.342  -3.299  0.00  0.00    -0.276 OA
ATOM     13  N   UNL     1       2.999  -1.779  -2.724  0.00  0.00    -0.312 N 
ATOM     14  H   UNL     1       2.646  -2.418  -2.086  0.00  0.00    +0.149 HD
BRANCH  11  18
ATOM     15  C   UNL     1      -0.016   1.520   0.020  0.00  0.00    +0.000 C 
ATOM     16  C   UNL     1       1.419   2.050   0.009  0.00  0.00    +0.001 C 
ATOM     17  C   UNL     1       2.135   1.557  -1.251  0.00  0.00    +0.013 C 
ATOM     18  C   UNL     1       2.155   0.028  -1.260  0.00  0.00    +0.075 C 
ATOM     19  C   UNL     1       0.720  -0.502  -1.249  0.00  0.00    +0.013 C 
ATOM     20  C   UNL     1       0.005  -0.010   0.011  0.00  0.00    +0.001 C 
ENDBRANCH  11  18
ENDBRANCH   1  13
BRANCH   9  21
ATOM     21  C   UNL     1       6.457  -7.473  -6.009  0.00  0.00    +0.087 C 
BRANCH  21  22
ATOM     22  C   UNL     1       5.599  -8.696  -6.337  0.00  0.00    -0.060 C 
BRANCH  22  23
ATOM     23  N   UNL     1       6.461  -9.879  -6.464  0.00  0.00    +0.381 N 
ATOM     24  C   UNL     1       7.361  -9.707  -7.610  0.00  0.00    -0.079 C 
ATOM     25  C   UNL     1       8.315 -10.899  -7.699  0.00  0.00    -0.019 C 
ATOM     26  C   UNL     1       7.502 -12.185  -7.875  0.00  0.00    -0.004 C 
ATOM     27  C   UNL     1       6.515 -12.316  -6.711  0.00  0.00    -0.019 C 
ATOM     28  C   UNL     1       5.627 -11.071  -6.660  0.00  0.00    -0.079 C 
ATOM     29  H   UNL     1       7.008  -9.987  -5.623  0.00  0.00    -0.082 HD
ENDBRANCH  22  23
ENDBRANCH  21  22
ENDBRANCH   9  21
TORSDOF 5
