REMARK  Name = ZINC04978760
REMARK  7 active torsions:
REMARK  status: ('A' for Active; 'I' for Inactive)
REMARK    1  A    between atoms: C_1  and  C_2
REMARK    2  A    between atoms: N_7  and  C_8
REMARK    3  A    between atoms: C_8  and  C_10
REMARK    4  A    between atoms: C_8  and  C_19
REMARK    5  A    between atoms: C_13  and  N_16
REMARK    6  A    between atoms: C_25  and  C_30
REMARK    7  A    between atoms: C_28  and  O_29
REMARK                            x       y       z     vdW  Elec       q    Type
REMARK                         _______ _______ _______ _____ _____    ______ ____
ROOT
ATOM      1  C   UNL     1       1.360  -2.217  -0.036  0.00  0.00    +0.136 C 
ENDROOT
BRANCH   1   2
ATOM      2  C   UNL     1       1.601  -0.744   0.175  0.00  0.00    +0.021 A 
ATOM      3  C   UNL     1       2.899  -0.245   0.105  0.00  0.00    +0.010 A 
ATOM      4  C   UNL     1       3.151   1.080   0.292  0.00  0.00    +0.010 A 
ATOM      5  C   UNL     1       2.089   1.960   0.559  0.00  0.00    +0.004 A 
ATOM      6  C   UNL     1       2.309   3.336   0.757  0.00  0.00    +0.012 A 
ATOM      7  C   UNL     1       1.229   4.131   1.013  0.00  0.00    +0.023 A 
ATOM      8  C   UNL     1      -0.047   3.573   1.072  0.00  0.00    +0.039 A 
ATOM      9  N   UNL     1      -0.248   2.292   0.881  0.00  0.00    -0.248 NA
ATOM     10  C   UNL     1       0.766   1.459   0.632  0.00  0.00    +0.113 A 
ATOM     11  C   UNL     1       0.543   0.080   0.433  0.00  0.00    +0.148 A 
ATOM     12  C   UNL     1      -1.226   4.468   1.355  0.00  0.00    +0.065 C 
BRANCH  11  13
ATOM     13  O   UNL     1      -0.716  -0.425   0.499  0.00  0.00    -0.504 OA
ATOM     14  H   UNL     1      -1.182  -0.430  -0.348  0.00  0.00    +0.292 HD
ENDBRANCH  11  13
ENDBRANCH   1   2
BRANCH   1  21
ATOM     15  C   UNL     1       1.122  -2.880   5.042  0.00  0.00    +0.044 C 
ATOM     16  C   UNL     1       2.067  -3.316   3.952  0.00  0.00    -0.046 A 
ATOM     17  C   UNL     1       3.163  -4.117   4.242  0.00  0.00    +0.021 A 
ATOM     18  C   UNL     1       4.010  -4.500   3.221  0.00  0.00    +0.084 A 
ATOM     19  C   UNL     1       2.755  -3.350   1.662  0.00  0.00    +0.097 A 
ATOM     20  C   UNL     1       1.861  -2.927   2.641  0.00  0.00    +0.045 A 
ATOM     21  N   UNL     1       2.560  -2.967   0.340  0.00  0.00    -0.320 N 
ATOM     22  H   UNL     1       3.220  -3.197  -0.334  0.00  0.00    +0.148 HD
ATOM     23  N   UNL     1       3.835  -4.142   1.920  0.00  0.00    -0.350 N 
ATOM     24  H   UNL     1       4.476  -4.449   1.179  0.00  0.00    +0.166 HD
ENDBRANCH   1  21
BRANCH   1  25
ATOM     25  C   UNL     1       1.043  -2.470  -1.488  0.00  0.00    -0.023 A 
ATOM     26  C   UNL     1       2.053  -2.442  -2.431  0.00  0.00    +0.008 A 
ATOM     27  C   UNL     1       1.764  -2.680  -3.761  0.00  0.00    +0.033 A 
ATOM     28  C   UNL     1       0.462  -2.935  -4.150  0.00  0.00    +0.126 A 
ATOM     29  C   UNL     1      -0.549  -2.958  -3.208  0.00  0.00    +0.033 A 
ATOM     30  C   UNL     1      -0.259  -2.725  -1.877  0.00  0.00    +0.008 A 
BRANCH  28  31
ATOM     31  N   UNL     1       0.151  -3.184  -5.576  0.00  0.00    +0.056 N 
ATOM     32  O   UNL     1      -0.996  -3.409  -5.919  0.00  0.00    -0.126 OA
ATOM     33  O   UNL     1       1.042  -3.164  -6.406  0.00  0.00    -0.126 OA
ENDBRANCH  28  31
ENDBRANCH   1  25
TORSDOF 5
