REMARK  Name = ZINC28288369
REMARK  7 active torsions:
REMARK  status: ('A' for Active; 'I' for Inactive)
REMARK    1  A    between atoms: C_1  and  C_2
REMARK    2  A    between atoms: C_4  and  C_29
REMARK    3  A    between atoms: C_9  and  C_13
REMARK    4  A    between atoms: N_15  and  C_16
REMARK    5  A    between atoms: C_16  and  C_17
REMARK    6  A    between atoms: C_17  and  C_19
REMARK    7  A    between atoms: C_17  and  N_24
REMARK                            x       y       z     vdW  Elec       q    Type
REMARK                         _______ _______ _______ _____ _____    ______ ____
ROOT
ATOM      1  C   UNL     1       3.866  -4.248  -2.161  0.00  0.00    +0.279 C 
ATOM      2  O   UNL     1       3.522  -3.957  -3.290  0.00  0.00    -0.267 OA
ATOM      3  N   UNL     1       3.537  -3.446  -1.129  0.00  0.00    -0.310 N 
ATOM      4  H   UNL     1       3.848  -3.710  -0.107  0.00  0.00    +0.149 HD
ENDROOT
BRANCH   1  13
ATOM      5  C   UNL     1       7.178  -8.538   2.722  0.00  0.00    +0.044 C 
ATOM      6  C   UNL     1       6.800  -8.265   1.289  0.00  0.00    -0.047 A 
ATOM      7  C   UNL     1       7.187  -9.154   0.296  0.00  0.00    +0.007 A 
ATOM      8  C   UNL     1       6.852  -8.923  -1.009  0.00  0.00    -0.036 A 
ATOM      9  C   UNL     1       6.117  -7.785  -1.342  0.00  0.00    +0.067 A 
ATOM     10  C   UNL     1       5.737  -7.499  -2.738  0.00  0.00    +0.193 A 
ATOM     11  O   UNL     1       6.048  -8.244  -3.650  0.00  0.00    -0.287 OA
ATOM     12  C   UNL     1       4.962  -6.272  -2.976  0.00  0.00    +0.103 A 
ATOM     13  C   UNL     1       4.646  -5.485  -1.920  0.00  0.00    +0.193 A 
ATOM     14  O   UNL     1       5.016  -5.778  -0.665  0.00  0.00    -0.450 OA
ATOM     15  C   UNL     1       5.721  -6.880  -0.342  0.00  0.00    +0.140 A 
ATOM     16  C   UNL     1       6.073  -7.136   0.979  0.00  0.00    +0.050 A 
ATOM     17  C   UNL     1       7.276  -9.892  -2.083  0.00  0.00    +0.044 C 
ENDBRANCH   1  13
BRANCH   3  18
ATOM     18  C   UNL     1       2.766  -2.224  -1.367  0.00  0.00    +0.094 C 
BRANCH  18  19
ATOM     19  C   UNL     1       2.639  -1.438  -0.061  0.00  0.00    -0.013 C 
BRANCH  19  20
ATOM     20  N   UNL     1       1.780  -0.266  -0.276  0.00  0.00    +0.386 N 
ATOM     21  C   UNL     1       0.419  -0.676  -0.708  0.00  0.00    -0.078 C 
ATOM     22  C   UNL     1      -0.447   0.565  -0.375  0.00  0.00    -0.020 C 
ATOM     23  C   UNL     1       0.166   1.069   0.952  0.00  0.00    -0.020 C 
ATOM     24  C   UNL     1       1.593   0.492   0.980  0.00  0.00    -0.078 C 
ATOM     25  H   UNL     1       2.286   0.340  -1.042  0.00  0.00    -0.081 HD
ENDBRANCH  19  20
BRANCH  19  26
ATOM     26  C   UNL     1       4.004  -0.984   0.387  0.00  0.00    -0.022 A 
ATOM     27  C   UNL     1       4.818  -1.525   1.327  0.00  0.00    +0.009 A 
ATOM     28  C   UNL     1       6.042  -0.933   1.575  0.00  0.00    +0.008 A 
ATOM     29  C   UNL     1       6.393   0.172   0.871  0.00  0.00    +0.045 A 
ATOM     30  S   UNL     1       4.970   0.406  -0.182  0.00  0.00    -0.103 S 
ENDBRANCH  19  26
ENDBRANCH  18  19
ENDBRANCH   3  18
TORSDOF 5
