REMARK  Name = ZINC44016326
REMARK  5 active torsions:
REMARK  status: ('A' for Active; 'I' for Inactive)
REMARK    1  A    between atoms: C_3  and  N_15
REMARK    2  A    between atoms: C_6  and  C_7
REMARK    3  A    between atoms: N_11  and  C_12
REMARK    4  A    between atoms: N_18  and  C_19
REMARK    5  A    between atoms: C_19  and  C_20
REMARK                            x       y       z     vdW  Elec       q    Type
REMARK                         _______ _______ _______ _____ _____    ______ ____
ROOT
ATOM      1  C   UNL     1      -0.099   1.300   0.385  0.00  0.00    +0.013 A 
ATOM      2  C   UNL     1       1.036   2.028   0.670  0.00  0.00    +0.024 A 
ATOM      3  C   UNL     1       2.177   1.385   1.137  0.00  0.00    +0.035 A 
ATOM      4  C   UNL     1       2.176   0.006   1.318  0.00  0.00    +0.024 A 
ATOM      5  C   UNL     1       1.044  -0.727   1.035  0.00  0.00    +0.013 A 
ATOM      6  C   UNL     1      -0.102  -0.084   0.566  0.00  0.00    +0.021 A 
ENDROOT
BRANCH   3   7
ATOM      7  N   UNL     1       3.326   2.125   1.425  0.00  0.00    -0.269 N 
ATOM      8  C   UNL     1       3.218   3.355   1.966  0.00  0.00    +0.304 C 
ATOM      9  O   UNL     1       2.122   3.859   2.115  0.00  0.00    -0.252 OA
ATOM     10  N   UNL     1       4.325   4.026   2.341  0.00  0.00    -0.295 N 
ATOM     11  H   UNL     1       4.202   1.754   1.236  0.00  0.00    +0.156 HD
ATOM     12  H   UNL     1       5.199   3.624   2.222  0.00  0.00    +0.151 HD
BRANCH  10  13
ATOM     13  C   UNL     1       4.207   5.363   2.929  0.00  0.00    +0.148 C 
BRANCH  13  14
ATOM     14  C   UNL     1       5.580   5.890   3.258  0.00  0.00    +0.008 A 
ATOM     15  C   UNL     1       6.421   6.621   2.486  0.00  0.00    +0.014 A 
ATOM     16  C   UNL     1       7.647   6.998   3.002  0.00  0.00    +0.028 A 
ATOM     17  C   UNL     1       7.971   6.625   4.266  0.00  0.00    +0.078 A 
ATOM     18  S   UNL     1       6.517   5.720   4.768  0.00  0.00    -0.080 S 
ATOM     19 CL   UNL     1       9.421   6.951   5.163  0.00  0.00    -0.076 Cl
ENDBRANCH  13  14
ENDBRANCH  10  13
ENDBRANCH   3   7
BRANCH   6  20
ATOM     20  C   UNL     1      -1.319  -0.868   0.261  0.00  0.00    +0.182 A 
ATOM     21  N   UNL     1      -2.543  -0.398   0.138  0.00  0.00    -0.108 NA
ATOM     22  N   UNL     1      -3.365  -1.348  -0.129  0.00  0.00    -0.023 NA
ATOM     23  N   UNL     1      -2.742  -2.475  -0.195  0.00  0.00    -0.043 NA
ATOM     24  N   UNL     1      -1.385  -2.206   0.051  0.00  0.00    -0.222 N 
BRANCH  24  25
ATOM     25  C   UNL     1      -0.278  -3.166   0.077  0.00  0.00    +0.111 C 
ATOM     26  C   UNL     1      -0.608  -4.633  -0.209  0.00  0.00    +0.029 C 
ATOM     27  C   UNL     1      -0.258  -4.190   1.213  0.00  0.00    +0.029 C 
ENDBRANCH  24  25
ENDBRANCH   6  20
TORSDOF 5
