REMARK  Name = ZINC13190863
REMARK  6 active torsions:
REMARK  status: ('A' for Active; 'I' for Inactive)
REMARK    1  A    between atoms: C_4  and  C_7
REMARK    2  A    between atoms: N_10  and  C_13
REMARK    3  A    between atoms: C_16  and  S_22
REMARK    4  A    between atoms: C_18  and  N_19
REMARK    5  A    between atoms: S_22  and  N_25
REMARK    6  A    between atoms: C_28  and  C_31
REMARK                            x       y       z     vdW  Elec       q    Type
REMARK                         _______ _______ _______ _____ _____    ______ ____
ROOT
ATOM      1  C   UNL     1       1.194  -5.700   0.667  0.00  0.00    +0.061 A 
ATOM      2  C   UNL     1       2.125  -5.010   1.433  0.00  0.00    +0.027 A 
ATOM      3  C   UNL     1       1.827  -3.748   1.908  0.00  0.00    +0.030 A 
ATOM      4  C   UNL     1       0.603  -3.171   1.621  0.00  0.00    +0.108 A 
ATOM      5  C   UNL     1      -0.328  -3.857   0.864  0.00  0.00    +0.063 A 
ATOM      6  C   UNL     1      -0.035  -5.118   0.381  0.00  0.00    +0.149 A 
ENDROOT
BRANCH   1  10
ATOM      7  C   UNL     1       2.623  -9.420  -0.448  0.00  0.00    -0.041 C 
ATOM      8  C   UNL     1       3.073  -8.348  -1.062  0.00  0.00    -0.004 C 
ATOM      9  C   UNL     1       2.692  -6.953  -0.661  0.00  0.00    +0.132 C 
ATOM     10  N   UNL     1       1.492  -6.977   0.185  0.00  0.00    -0.324 N 
ATOM     11  C   UNL     1       1.668  -7.931   1.292  0.00  0.00    +0.110 C 
ATOM     12  C   UNL     1       1.673  -9.349   0.715  0.00  0.00    +0.054 C 
BRANCH   7  16
ATOM     13  C   UNL     1       3.902 -13.236  -1.805  0.00  0.00    +0.000 A 
ATOM     14  C   UNL     1       4.819 -12.356  -1.258  0.00  0.00    +0.001 A 
ATOM     15  C   UNL     1       4.410 -11.115  -0.815  0.00  0.00    +0.008 A 
ATOM     16  C   UNL     1       3.068 -10.748  -0.920  0.00  0.00    -0.022 A 
ATOM     17  C   UNL     1       2.147 -11.642  -1.468  0.00  0.00    +0.008 A 
ATOM     18  C   UNL     1       2.570 -12.878  -1.912  0.00  0.00    +0.001 A 
ENDBRANCH   7  16
ENDBRANCH   1  10
BRANCH   6  19
ATOM     19  N   UNL     1      -1.030  -5.849  -0.435  0.00  0.00    +0.058 N 
ATOM     20  O   UNL     1      -2.068  -5.303  -0.763  0.00  0.00    -0.126 OA
ATOM     21  O   UNL     1      -0.810  -6.997  -0.778  0.00  0.00    -0.126 OA
ENDBRANCH   6  19
BRANCH   4  22
ATOM     22  S   UNL     1       0.227  -1.561   2.229  0.00  0.00    +0.061 S 
ATOM     23  O   UNL     1       1.047  -1.356   3.371  0.00  0.00    -0.153 OA
ATOM     24  O   UNL     1      -1.190  -1.467   2.282  0.00  0.00    -0.153 OA
BRANCH  22  25
ATOM     25  N   UNL     1       0.730  -0.475   1.084  0.00  0.00    -0.177 NA
ATOM     26  C   UNL     1      -0.177  -0.041   0.014  0.00  0.00    +0.110 C 
ATOM     27  C   UNL     1      -0.233   1.490   0.005  0.00  0.00    +0.032 C 
ATOM     28  C   UNL     1       1.187   2.048  -0.110  0.00  0.00    +0.105 C 
ATOM     29  C   UNL     1       2.012   1.601   1.099  0.00  0.00    +0.032 C 
ATOM     30  C   UNL     1       2.094   0.071   1.120  0.00  0.00    +0.110 C 
BRANCH  28  31
ATOM     31  C   UNL     1       1.133   3.553  -0.153  0.00  0.00    +0.359 C 
ATOM     32  O   UNL     1       0.069   4.121  -0.097  0.00  0.00    -0.246 OA
ATOM     33  O   UNL     1       2.268   4.263  -0.253  0.00  0.00    -0.246 OA
ENDBRANCH  28  31
ENDBRANCH  22  25
ENDBRANCH   4  22
TORSDOF 6
