REMARK  Name = ZINC45148678
REMARK  12 active torsions:
REMARK  status: ('A' for Active; 'I' for Inactive)
REMARK    1  A    between atoms: C_1  and  C_2
REMARK    2  A    between atoms: C_2  and  C_3
REMARK    3  A    between atoms: C_2  and  C_4
REMARK    4  A    between atoms: C_4  and  C_6
REMARK    5  A    between atoms: C_4  and  N_16
REMARK    6  A    between atoms: C_9  and  C_12
REMARK    7  A    between atoms: C_12  and  C_13
REMARK    8  A    between atoms: C_12  and  C_14
REMARK    9  A    between atoms: C_12  and  C_15
REMARK   10  A    between atoms: N_19  and  N_20
REMARK   11  A    between atoms: N_20  and  C_21
REMARK   12  A    between atoms: C_21  and  C_28
REMARK                            x       y       z     vdW  Elec       q    Type
REMARK                         _______ _______ _______ _____ _____    ______ ____
ROOT
ATOM      1  N   UNL     1      -1.413  -1.998   0.005  0.00  0.00    -0.291 N 
ATOM      2  C   UNL     1      -1.314  -2.665  -1.163  0.00  0.00    +0.314 C 
ATOM      3  O   UNL     1      -1.240  -2.050  -2.209  0.00  0.00    -0.252 OA
ATOM      4  N   UNL     1      -1.295  -4.012  -1.170  0.00  0.00    -0.234 N 
ATOM      5  H   UNL     1      -1.472  -2.489   0.840  0.00  0.00    +0.151 HD
ATOM      6  H   UNL     1      -1.224  -4.492  -2.010  0.00  0.00    +0.171 HD
ENDROOT
BRANCH   4   7
ATOM      7  N   UNL     1      -1.378  -4.703   0.006  0.00  0.00    -0.232 NA
ATOM      8  H   UNL     1      -0.647  -4.422   0.642  0.00  0.00    +0.145 HD
BRANCH   7   9
ATOM      9  C   UNL     1      -1.341  -6.152  -0.231  0.00  0.00    +0.054 C 
ATOM     10  C   UNL     1      -2.465  -6.519  -1.199  0.00  0.00    +0.047 C 
ATOM     11  C   UNL     1      -2.932  -7.981  -0.953  0.00  0.00    +0.168 C 
ATOM     12  S   UNL     1      -2.861  -8.020   0.892  0.00  0.00    -0.029 S 
ATOM     13  O   UNL     1      -4.036  -7.416   1.417  0.00  0.00    -0.174 OA
ATOM     14  O   UNL     1      -2.491  -9.324   1.318  0.00  0.00    -0.174 OA
ATOM     15  C   UNL     1      -1.437  -6.877   1.125  0.00  0.00    +0.189 C 
ATOM     16  C   UNL     1      -0.002  -6.506  -0.883  0.00  0.00    +0.031 C 
ENDBRANCH   7   9
ENDBRANCH   4   7
BRANCH   1  17
ATOM     17  C   UNL     1      -1.433  -0.534   0.013  0.00  0.00    +0.107 C 
BRANCH  17  18
ATOM     18  C   UNL     1      -2.139  -0.048   1.253  0.00  0.00    -0.027 A 
ATOM     19  C   UNL     1      -1.926  -0.682   2.462  0.00  0.00    +0.006 A 
ATOM     20  C   UNL     1      -2.573  -0.236   3.600  0.00  0.00    +0.004 A 
ATOM     21  C   UNL     1      -3.432   0.844   3.527  0.00  0.00    -0.042 A 
ATOM     22  C   UNL     1      -3.644   1.479   2.318  0.00  0.00    +0.004 A 
ATOM     23  C   UNL     1      -2.994   1.036   1.182  0.00  0.00    +0.006 A 
BRANCH  21  24
ATOM     24  C   UNL     1      -4.138   1.330   4.767  0.00  0.00    -0.013 C 
ATOM     25  C   UNL     1      -3.103   1.750   5.812  0.00  0.00    +0.015 C 
ATOM     26  C   UNL     1      -5.022   2.528   4.415  0.00  0.00    +0.015 C 
ATOM     27  C   UNL     1      -5.007   0.204   5.333  0.00  0.00    +0.015 C 
ENDBRANCH  21  24
ENDBRANCH  17  18
BRANCH  17  29
ATOM     28  C   UNL     1      -0.019   1.526   0.010  0.00  0.00    +0.009 C 
ATOM     29  C   UNL     1       0.002  -0.004   0.002  0.00  0.00    +0.008 C 
ATOM     30  C   UNL     1       0.742  -0.511   1.242  0.00  0.00    +0.009 C 
ENDBRANCH  17  29
ENDBRANCH   1  17
TORSDOF 6
