REMARK  Name = ZINC12010270
REMARK  12 active torsions:
REMARK  status: ('A' for Active; 'I' for Inactive)
REMARK    1  A    between atoms: C_1  and  C_2
REMARK    2  A    between atoms: C_2  and  O_3
REMARK    3  A    between atoms: O_3  and  C_4
REMARK    4  A    between atoms: C_6  and  C_16
REMARK    5  A    between atoms: C_8  and  O_13
REMARK    6  A    between atoms: C_9  and  O_10
REMARK    7  A    between atoms: O_10  and  C_11
REMARK    8  A    between atoms: C_11  and  C_12
REMARK    9  A    between atoms: O_13  and  C_14
REMARK   10  A    between atoms: C_14  and  C_15
REMARK   11  A    between atoms: N_18  and  C_19
REMARK   12  A    between atoms: C_21  and  C_36
REMARK                            x       y       z     vdW  Elec       q    Type
REMARK                         _______ _______ _______ _____ _____    ______ ____
ROOT
ATOM      1  C   UNL     1       2.311   5.647   0.009  0.00  0.00    +0.133 A 
ATOM      2  C   UNL     1       1.206   6.435   0.024  0.00  0.00    +0.077 A 
ATOM      3  C   UNL     1       1.635   7.779   0.027  0.00  0.00    +0.130 A 
ATOM      4  N   UNL     1       2.952   7.791   0.015  0.00  0.00    -0.159 NA
ATOM      5  N   UNL     1       3.404   6.466   0.009  0.00  0.00    -0.184 N 
ATOM      6  C   UNL     1       4.724   6.058   0.001  0.00  0.00    +0.234 A 
ATOM      7  N   UNL     1       5.713   6.991   0.001  0.00  0.00    -0.291 N 
ATOM      8  H   UNL     1       5.493   7.936   0.010  0.00  0.00    +0.172 HD
ATOM      9  C   UNL     1       7.001   6.594  -0.011  0.00  0.00    +0.256 A 
ATOM     10  O   UNL     1       7.902   7.416  -0.009  0.00  0.00    -0.267 OA
ATOM     11  C   UNL     1       7.293   5.212  -0.026  0.00  0.00    +0.038 A 
ATOM     12  C   UNL     1       6.265   4.325  -0.018  0.00  0.00    +0.053 A 
ATOM     13  N   UNL     1       5.004   4.776  -0.002  0.00  0.00    -0.217 NA
ATOM     14  C   UNL     1       6.478   2.835  -0.010  0.00  0.00    +0.056 C 
ATOM     15  C   UNL     1       7.896   2.492  -0.463  0.00  0.00    +0.006 C 
ATOM     16  C   UNL     1       8.883   3.331   0.359  0.00  0.00    +0.005 C 
ATOM     17  C   UNL     1       8.737   4.793  -0.061  0.00  0.00    +0.042 C 
ENDROOT
BRANCH   3  18
ATOM     18  C   UNL     1       0.757   8.969   0.042  0.00  0.00    +0.155 A 
ATOM     19  C   UNL     1       1.169  10.264   0.050  0.00  0.00    +0.051 A 
ATOM     20  C   UNL     1       0.006  11.060   0.060  0.00  0.00    +0.042 A 
ATOM     21  C   UNL     1      -1.047  10.220   0.066  0.00  0.00    +0.196 A 
ATOM     22  O   UNL     1      -0.590   8.957   0.054  0.00  0.00    -0.461 OA
ENDBRANCH   3  18
BRANCH   1  25
ATOM     23  C   UNL     1       1.167   3.567   0.010  0.00  0.00    +0.250 C 
ATOM     24  O   UNL     1       0.107   4.163   0.022  0.00  0.00    -0.270 OA
ATOM     25  N   UNL     1       2.327   4.255   0.002  0.00  0.00    -0.266 N 
ATOM     26  H   UNL     1       3.172   3.780  -0.008  0.00  0.00    +0.157 HD
BRANCH  23  29
ATOM     27  C   UNL     1       0.002  -0.004   0.002  0.00  0.00    +0.166 A 
ATOM     28  C   UNL     1      -0.017   1.378   0.010  0.00  0.00    +0.062 A 
ATOM     29  C   UNL     1       1.184   2.092   0.002  0.00  0.00    +0.044 A 
ATOM     30  C   UNL     1       2.402   1.406  -0.013  0.00  0.00    +0.062 A 
ATOM     31  C   UNL     1       2.415   0.024  -0.020  0.00  0.00    +0.166 A 
ATOM     32  C   UNL     1       1.216  -0.685  -0.013  0.00  0.00    +0.204 A 
BRANCH  27  33
ATOM     33  O   UNL     1      -1.167  -0.699   0.009  0.00  0.00    -0.488 OA
BRANCH  33  35
ATOM     34  C   UNL     1      -3.576  -0.885   0.030  0.00  0.00    +0.048 C 
ATOM     35  C   UNL     1      -2.375   0.063   0.024  0.00  0.00    +0.226 C 
ENDBRANCH  33  35
ENDBRANCH  27  33
BRANCH  32  36
ATOM     36  O   UNL     1       1.232  -2.044  -0.021  0.00  0.00    -0.485 OA
BRANCH  36  37
ATOM     37  C   UNL     1       1.227  -2.686  -1.297  0.00  0.00    +0.226 C 
ATOM     38  C   UNL     1       1.247  -4.204  -1.105  0.00  0.00    +0.048 C 
ENDBRANCH  36  37
ENDBRANCH  32  36
BRANCH  31  39
ATOM     39  O   UNL     1       3.599  -0.644  -0.034  0.00  0.00    -0.488 OA
BRANCH  39  40
ATOM     40  C   UNL     1       4.790   0.146  -0.041  0.00  0.00    +0.226 C 
ATOM     41  C   UNL     1       6.013  -0.774  -0.057  0.00  0.00    +0.048 C 
ENDBRANCH  39  40
ENDBRANCH  31  39
ENDBRANCH  23  29
ENDBRANCH   1  25
TORSDOF 9
