REMARK  Name = ZINC67350594
REMARK  3 active torsions:
REMARK  status: ('A' for Active; 'I' for Inactive)
REMARK    1  A    between atoms: C_5  and  C_8
REMARK    2  A    between atoms: C_10  and  C_13
REMARK    3  A    between atoms: N_18  and  C_19
REMARK                            x       y       z     vdW  Elec       q    Type
REMARK                         _______ _______ _______ _____ _____    ______ ____
ROOT
ATOM      1  C   UNL     1       0.398   1.514   0.121  0.00  0.00    +0.004 C 
ATOM      2  C   UNL     1       1.729   2.131  -0.314  0.00  0.00    +0.019 C 
ATOM      3  C   UNL     1       2.046   1.693  -1.748  0.00  0.00    +0.110 C 
ATOM      4  N   UNL     1       2.010   0.226  -1.813  0.00  0.00    -0.274 N 
ATOM      5  C   UNL     1       0.810  -0.474  -1.334  0.00  0.00    +0.166 C 
ATOM      6  C   UNL     1       0.507  -0.012   0.095  0.00  0.00    +0.032 C 
ATOM      7  C   UNL     1       3.058  -0.465  -2.304  0.00  0.00    +0.303 C 
ATOM      8  O   UNL     1       3.057  -1.681  -2.263  0.00  0.00    -0.253 OA
ATOM      9  N   UNL     1       4.106   0.191  -2.840  0.00  0.00    -0.296 N 
ATOM     10  H   UNL     1       4.139   1.159  -2.808  0.00  0.00    +0.151 HD
ENDROOT
BRANCH   5  11
ATOM     11  C   UNL     1       1.053  -1.961  -1.347  0.00  0.00    +0.248 A 
ATOM     12  N   UNL     1       0.458  -2.826  -2.120  0.00  0.00    -0.194 NA
ATOM     13  C   UNL     1       0.913  -4.058  -1.867  0.00  0.00    +0.175 A 
ATOM     14  N   UNL     1       1.809  -3.991  -0.924  0.00  0.00    -0.061 NA
ATOM     15  O   UNL     1       1.922  -2.621  -0.571  0.00  0.00    -0.336 OA
BRANCH  13  16
ATOM     16  C   UNL     1       0.463  -5.318  -2.559  0.00  0.00    +0.060 C 
ATOM     17  C   UNL     1       0.954  -6.651  -1.991  0.00  0.00    +0.012 C 
ATOM     18  C   UNL     1       1.520  -6.128  -3.312  0.00  0.00    +0.012 C 
ENDBRANCH  13  16
ENDBRANCH   5  11
BRANCH   9  19
ATOM     19  C   UNL     1       5.194  -0.560  -3.471  0.00  0.00    +0.074 C 
ATOM     20  C   UNL     1       6.253  -0.944  -2.416  0.00  0.00    +0.022 C 
ATOM     21  C   UNL     1       7.602  -0.808  -3.165  0.00  0.00    +0.002 C 
ATOM     22  C   UNL     1       7.376   0.443  -4.051  0.00  0.00    +0.002 C 
ATOM     23  C   UNL     1       5.909   0.321  -4.511  0.00  0.00    +0.022 C 
ENDBRANCH   9  19
TORSDOF 3
