REMARK  Name = ZINC03646448
REMARK  5 active torsions:
REMARK  status: ('A' for Active; 'I' for Inactive)
REMARK    1  A    between atoms: C_1  and  C_2
REMARK    2  A    between atoms: C_2  and  N_3
REMARK    3  A    between atoms: C_12  and  C_25
REMARK    4  A    between atoms: C_28  and  O_31
REMARK    5  A    between atoms: O_31  and  C_32
REMARK                            x       y       z     vdW  Elec       q    Type
REMARK                         _______ _______ _______ _____ _____    ______ ____
ROOT
ATOM      1  N   UNL     1       6.137  -3.075   0.559  0.00  0.00    -0.282 N 
ATOM      2  C   UNL     1       5.663  -1.816   0.261  0.00  0.00    +0.116 A 
ATOM      3  C   UNL     1       6.521  -0.760   0.270  0.00  0.00    +0.067 A 
ATOM      4  C   UNL     1       7.875  -0.985   0.593  0.00  0.00    +0.260 A 
ATOM      5  O   UNL     1       8.662  -0.055   0.610  0.00  0.00    -0.267 OA
ATOM      6  N   UNL     1       8.295  -2.231   0.882  0.00  0.00    -0.275 N 
ATOM      7  H   UNL     1       9.255  -2.390   1.113  0.00  0.00    +0.173 HD
ATOM      8  C   UNL     1       7.433  -3.264   0.863  0.00  0.00    +0.331 A 
ATOM      9  O   UNL     1       7.831  -4.383   1.124  0.00  0.00    -0.246 OA
ATOM     10  C   UNL     1       6.080   0.645  -0.053  0.00  0.00    +0.093 C 
ATOM     11  C   UNL     1       4.575   0.714  -0.036  0.00  0.00    +0.034 C 
ATOM     12  C   UNL     1       3.783  -0.406  -0.030  0.00  0.00    +0.048 C 
ATOM     13  N   UNL     1       4.324  -1.672  -0.033  0.00  0.00    -0.299 N 
ATOM     14  C   UNL     1       2.375   0.004  -0.019  0.00  0.00    +0.007 A 
ATOM     15  C   UNL     1       1.198  -0.728  -0.012  0.00  0.00    +0.010 A 
ATOM     16  C   UNL     1       0.002  -0.004   0.002  0.00  0.00    +0.001 A 
ATOM     17  C   UNL     1      -0.017   1.371   0.010  0.00  0.00    +0.001 A 
ATOM     18  C   UNL     1       1.162   2.124   0.002  0.00  0.00    +0.012 A 
ATOM     19  C   UNL     1       2.352   1.422  -0.012  0.00  0.00    +0.031 A 
ATOM     20  C   UNL     1       3.762   1.870  -0.024  0.00  0.00    +0.193 C 
ATOM     21  O   UNL     1       4.150   3.022  -0.024  0.00  0.00    -0.287 OA
ATOM     22  H   UNL     1       3.774  -2.446  -0.236  0.00  0.00    +0.154 HD
ENDROOT
BRANCH  10  23
ATOM     23  C   UNL     1       6.585   1.028  -1.420  0.00  0.00    -0.035 A 
ATOM     24  C   UNL     1       6.207   0.290  -2.527  0.00  0.00    +0.008 A 
ATOM     25  C   UNL     1       6.664   0.643  -3.782  0.00  0.00    +0.046 A 
ATOM     26  C   UNL     1       7.512   1.732  -3.930  0.00  0.00    +0.120 A 
ATOM     27  C   UNL     1       7.893   2.466  -2.817  0.00  0.00    +0.046 A 
ATOM     28  C   UNL     1       7.429   2.113  -1.565  0.00  0.00    +0.008 A 
BRANCH  26  29
ATOM     29  O   UNL     1       7.968   2.077  -5.163  0.00  0.00    -0.495 OA
ATOM     30  C   UNL     1       7.534   1.275  -6.263  0.00  0.00    +0.277 C 
ENDBRANCH  26  29
ENDBRANCH  10  23
BRANCH   1  32
ATOM     31  C   UNL     1       5.196  -4.835  -0.854  0.00  0.00    +0.027 C 
ATOM     32  C   UNL     1       5.221  -4.218   0.546  0.00  0.00    +0.125 C 
ENDBRANCH   1  32
TORSDOF 3
