REMARK  Name = ZINC40114155
REMARK  7 active torsions:
REMARK  status: ('A' for Active; 'I' for Inactive)
REMARK    1  A    between atoms: C_1  and  C_2
REMARK    2  A    between atoms: N_10  and  C_30
REMARK    3  A    between atoms: C_13  and  C_16
REMARK    4  A    between atoms: C_16  and  S_17
REMARK    5  A    between atoms: S_17  and  C_18
REMARK    6  A    between atoms: N_22  and  C_23
REMARK    7  A    between atoms: C_28  and  C_29
REMARK                            x       y       z     vdW  Elec       q    Type
REMARK                         _______ _______ _______ _____ _____    ______ ____
ROOT
ATOM      1  C   UNL     1       0.213   1.502   0.008  0.00  0.00    +0.044 C 
ATOM      2  C   UNL     1       0.182  -0.005   0.001  0.00  0.00    -0.050 A 
ATOM      3  C   UNL     1       0.155  -0.687  -1.206  0.00  0.00    +0.005 A 
ATOM      4  C   UNL     1       0.126  -2.067  -1.231  0.00  0.00    +0.027 A 
ATOM      5  C   UNL     1       0.125  -2.781  -0.042  0.00  0.00    +0.063 A 
ATOM      6  C   UNL     1       0.152  -2.090   1.181  0.00  0.00    +0.064 A 
ATOM      7  C   UNL     1       0.186  -0.697   1.193  0.00  0.00    +0.018 A 
ATOM      8  C   UNL     1       0.149  -2.868   2.433  0.00  0.00    +0.263 A 
ATOM      9  O   UNL     1       0.172  -2.305   3.511  0.00  0.00    -0.267 OA
ATOM     10  N   UNL     1       0.120  -4.215   2.362  0.00  0.00    -0.280 N 
ATOM     11  C   UNL     1       0.094  -4.864   1.142  0.00  0.00    +0.239 A 
ATOM     12  N   UNL     1       0.096  -4.169  -0.033  0.00  0.00    -0.264 N 
ATOM     13  C   UNL     1       0.066  -5.106  -1.026  0.00  0.00    +0.150 A 
ATOM     14  N   UNL     1       0.047  -6.277  -0.450  0.00  0.00    -0.131 NA
ATOM     15  N   UNL     1       0.064  -6.140   0.828  0.00  0.00    -0.110 NA
ATOM     16  C   UNL     1       0.118  -5.003   3.598  0.00  0.00    +0.155 C 
ENDROOT
BRANCH  13  17
ATOM     17  C   UNL     1       0.054  -4.839  -2.509  0.00  0.00    +0.154 C 
BRANCH  17  18
ATOM     18  S   UNL     1       1.752  -4.562  -3.086  0.00  0.00    -0.078 S 
BRANCH  18  19
ATOM     19  C   UNL     1       1.572  -4.268  -4.814  0.00  0.00    +0.196 A 
ATOM     20  N   UNL     1       0.447  -4.253  -5.491  0.00  0.00    -0.122 NA
ATOM     21  N   UNL     1       0.684  -4.007  -6.729  0.00  0.00    -0.137 NA
ATOM     22  C   UNL     1       1.964  -3.850  -6.919  0.00  0.00    +0.230 A 
ATOM     23  N   UNL     1       2.577  -4.004  -5.704  0.00  0.00    -0.277 N 
BRANCH  23  24
ATOM     24  C   UNL     1       3.949  -3.914  -5.429  0.00  0.00    +0.053 A 
ATOM     25  C   UNL     1       4.612  -2.704  -5.585  0.00  0.00    +0.026 A 
ATOM     26  C   UNL     1       5.963  -2.619  -5.314  0.00  0.00    +0.002 A 
ATOM     27  C   UNL     1       6.657  -3.737  -4.889  0.00  0.00    +0.000 A 
ATOM     28  C   UNL     1       6.000  -4.943  -4.733  0.00  0.00    +0.005 A 
ATOM     29  C   UNL     1       4.647  -5.034  -4.997  0.00  0.00    -0.027 A 
ATOM     30  C   UNL     1       3.930  -6.348  -4.821  0.00  0.00    +0.046 C 
ENDBRANCH  23  24
ENDBRANCH  18  19
ENDBRANCH  17  18
ENDBRANCH  13  17
TORSDOF 4
