REMARK  Name = ZINC22748005
REMARK  11 active torsions:
REMARK  status: ('A' for Active; 'I' for Inactive)
REMARK    1  A    between atoms: C_1  and  C_2
REMARK    2  A    between atoms: C_2  and  C_3
REMARK    3  A    between atoms: C_3  and  C_4
REMARK    4  A    between atoms: C_11  and  N_36
REMARK    5  A    between atoms: C_12  and  C_34
REMARK    6  A    between atoms: C_13  and  C_15
REMARK    7  A    between atoms: C_18  and  O_32
REMARK    8  A    between atoms: C_19  and  C_21
REMARK    9  A    between atoms: C_21  and  S_22
REMARK   10  A    between atoms: S_22  and  C_23
REMARK   11  A    between atoms: O_32  and  C_33
REMARK                            x       y       z     vdW  Elec       q    Type
REMARK                         _______ _______ _______ _____ _____    ______ ____
ROOT
ATOM      1  C   UNL     1      -1.003   5.630   1.677  0.00  0.00    -0.034 A 
ATOM      2  C   UNL     1      -0.367   5.117   0.561  0.00  0.00    +0.008 A 
ATOM      3  C   UNL     1      -0.258   3.751   0.393  0.00  0.00    +0.046 A 
ATOM      4  C   UNL     1      -0.787   2.892   1.346  0.00  0.00    +0.124 A 
ATOM      5  C   UNL     1      -1.429   3.408   2.462  0.00  0.00    +0.005 A 
ATOM      6  C   UNL     1      -1.531   4.776   2.628  0.00  0.00    +0.012 A 
ENDROOT
BRANCH   1  16
ATOM      7  C   UNL     1       1.203   7.681   2.921  0.00  0.00    +0.071 A 
ATOM      8  C   UNL     1       0.254   7.737   1.910  0.00  0.00    +0.049 A 
ATOM      9  C   UNL     1       0.768   8.483   0.887  0.00  0.00    +0.222 A 
ATOM     10  N   UNL     1       1.999   8.877   1.250  0.00  0.00    -0.246 N 
ATOM     11  H   UNL     1       2.603   9.494   0.569  0.00  0.00    +0.192 HD
ATOM     12  N   UNL     1       2.254   8.363   2.531  0.00  0.00    -0.176 NA
ATOM     13  O   UNL     1       0.081   8.732  -0.256  0.00  0.00    -0.423 OA
ATOM     14  C   UNL     1      -1.240   8.456  -0.263  0.00  0.00    +0.200 C 
ATOM     15  C   UNL     1      -1.859   7.719   0.685  0.00  0.00    +0.098 C 
ATOM     16  C   UNL     1      -1.121   7.122   1.857  0.00  0.00    +0.101 C 
BRANCH  14  17
ATOM     17  N   UNL     1      -1.998   8.953  -1.294  0.00  0.00    -0.328 N 
ATOM     18  H   UNL     1      -3.078   8.748  -1.331  0.00  0.00    +0.145 HD
ATOM     19  H   UNL     1      -1.526   9.557  -2.083  0.00  0.00    +0.145 HD
ENDBRANCH  14  17
BRANCH  15  20
ATOM     20  C   UNL     1      -3.269   7.496   0.573  0.00  0.00    +0.101 C 
ATOM     21  N   UNL     1      -4.388   7.320   0.483  0.00  0.00    -0.191 NA
ENDBRANCH  15  20
BRANCH   7  22
ATOM     22  C   UNL     1       1.053   6.962   4.237  0.00  0.00    +0.057 C 
BRANCH  22  24
ATOM     23  C   UNL     1       1.406   4.795   5.430  0.00  0.00    +0.004 C 
ATOM     24  C   UNL     1       1.559   5.525   4.094  0.00  0.00    +0.003 C 
ENDBRANCH  22  24
ENDBRANCH   7  22
ENDBRANCH   1  16
BRANCH   4  25
ATOM     25  O   UNL     1      -0.682   1.547   1.184  0.00  0.00    -0.495 OA
ATOM     26  C   UNL     1      -0.013   1.086   0.008  0.00  0.00    +0.277 C 
ENDBRANCH   4  25
BRANCH   5  27
ATOM     27  C   UNL     1      -2.011   2.478   3.495  0.00  0.00    +0.115 C 
BRANCH  27  28
ATOM     28  S   UNL     1      -0.762   2.120   4.756  0.00  0.00    -0.094 S 
BRANCH  28  29
ATOM     29  C   UNL     1      -1.684   1.046   5.804  0.00  0.00    +0.136 A 
ATOM     30  N   UNL     1      -2.929   0.643   5.681  0.00  0.00    -0.233 NA
ATOM     31  C   UNL     1      -3.510  -0.195   6.567  0.00  0.00    +0.079 A 
ATOM     32  C   UNL     1      -4.829  -0.705   6.550  0.00  0.00    +0.029 A 
ATOM     33  C   UNL     1      -5.267  -1.548   7.538  0.00  0.00    +0.002 A 
ATOM     34  C   UNL     1      -4.440  -1.929   8.585  0.00  0.00    +0.001 A 
ATOM     35  C   UNL     1      -3.144  -1.448   8.633  0.00  0.00    +0.017 A 
ATOM     36  C   UNL     1      -2.697  -0.604   7.648  0.00  0.00    +0.040 A 
ATOM     37  S   UNL     1      -1.167   0.232   7.309  0.00  0.00    -0.061 S 
ENDBRANCH  28  29
ENDBRANCH  27  28
ENDBRANCH   5  27
TORSDOF 9
