REMARK  Name = ZINC31975625
REMARK  6 active torsions:
REMARK  status: ('A' for Active; 'I' for Inactive)
REMARK    1  A    between atoms: C_1  and  C_2
REMARK    2  A    between atoms: C_8  and  C_25
REMARK    3  A    between atoms: C_9  and  C_11
REMARK    4  A    between atoms: N_17  and  C_24
REMARK    5  A    between atoms: C_20  and  C_23
REMARK    6  A    between atoms: C_25  and  N_26
REMARK                            x       y       z     vdW  Elec       q    Type
REMARK                         _______ _______ _______ _____ _____    ______ ____
ROOT
ATOM      1  C   UNL     1       4.199  -2.528  -1.715  0.00  0.00    +0.064 C 
ATOM      2  C   UNL     1       4.794  -1.455  -0.840  0.00  0.00    +0.022 A 
ATOM      3  C   UNL     1       6.093  -1.528  -0.482  0.00  0.00    +0.021 A 
ATOM      4  C   UNL     1       6.660  -0.535   0.334  0.00  0.00    +0.005 A 
ATOM      5  C   UNL     1       5.894   0.504   0.763  0.00  0.00    +0.047 A 
ATOM      6  C   UNL     1       4.538   0.566   0.381  0.00  0.00    +0.139 A 
ATOM      7  N   UNL     1       4.013  -0.418  -0.416  0.00  0.00    -0.302 N 
ATOM      8  C   UNL     1       2.696  -0.113  -0.621  0.00  0.00    +0.034 A 
ATOM      9  C   UNL     1       2.447   1.050   0.043  0.00  0.00    +0.091 A 
ATOM     10  N   UNL     1       3.580   1.442   0.647  0.00  0.00    -0.228 NA
ENDROOT
BRANCH   9  11
ATOM     11  C   UNL     1       1.145   1.760   0.094  0.00  0.00    +0.004 A 
ATOM     12  C   UNL     1      -0.033   1.042   0.295  0.00  0.00    +0.014 A 
ATOM     13  C   UNL     1      -1.247   1.699   0.337  0.00  0.00    +0.048 A 
ATOM     14  C   UNL     1      -1.295   3.076   0.192  0.00  0.00    +0.143 A 
ATOM     15  C   UNL     1      -0.119   3.799  -0.009  0.00  0.00    +0.079 A 
ATOM     16  C   UNL     1       1.098   3.144  -0.058  0.00  0.00    +0.037 A 
ATOM     17  N   UNL     1      -0.189   5.192  -0.162  0.00  0.00    -0.268 N 
ATOM     18  C   UNL     1      -1.321   5.834   0.198  0.00  0.00    +0.260 C 
ATOM     19  O   UNL     1      -1.414   7.034   0.048  0.00  0.00    -0.271 OA
ATOM     20  C   UNL     1      -2.468   5.054   0.788  0.00  0.00    +0.256 C 
ATOM     21  O   UNL     1      -2.485   3.734   0.238  0.00  0.00    -0.478 OA
ATOM     22  C   UNL     1      -2.301   4.971   2.306  0.00  0.00    +0.062 C 
ATOM     23  C   UNL     1       0.950   5.938  -0.703  0.00  0.00    +0.138 C 
ENDBRANCH   9  11
BRANCH   8  24
ATOM     24  C   UNL     1       1.708  -0.911  -1.432  0.00  0.00    -0.029 C 
BRANCH  24  25
ATOM     25  N   UNL     1       1.825  -0.541  -2.849  0.00  0.00    +0.382 N 
ATOM     26  H   UNL     1       1.104  -1.123  -3.441  0.00  0.00    -0.090 HD
ATOM     27  H   UNL     1       2.845  -0.755  -3.200  0.00  0.00    -0.090 HD
ATOM     28  H   UNL     1       1.615   0.532  -2.967  0.00  0.00    -0.090 HD
ENDBRANCH  24  25
ENDBRANCH   8  24
TORSDOF 3
