REMARK  Name = ZINC40548896
REMARK  12 active torsions:
REMARK  status: ('A' for Active; 'I' for Inactive)
REMARK    1  A    between atoms: C_1  and  C_2
REMARK    2  A    between atoms: C_2  and  C_3
REMARK    3  A    between atoms: C_3  and  C_4
REMARK    4  A    between atoms: C_4  and  C_5
REMARK    5  A    between atoms: C_5  and  O_6
REMARK    6  A    between atoms: O_6  and  C_7
REMARK    7  A    between atoms: C_10  and  C_13
REMARK    8  A    between atoms: C_16  and  C_32
REMARK    9  A    between atoms: N_23  and  C_24
REMARK   10  A    between atoms: C_34  and  C_40
REMARK   11  A    between atoms: C_35  and  C_39
REMARK   12  A    between atoms: C_37  and  O_38
REMARK                            x       y       z     vdW  Elec       q    Type
REMARK                         _______ _______ _______ _____ _____    ______ ____
ROOT
ATOM      1  C   UNL     1      -7.982  -6.631   0.022  0.00  0.00    +0.142 C 
ATOM      2  C   UNL     1      -8.137  -7.255   1.382  0.00  0.00    +0.035 A 
ATOM      3  C   UNL     1      -8.230  -7.063   2.765  0.00  0.00    +0.102 A 
ATOM      4  N   UNL     1      -8.366  -8.251   3.320  0.00  0.00    -0.173 NA
ATOM      5  N   UNL     1      -8.369  -9.174   2.426  0.00  0.00    -0.272 N 
ATOM      6  H   UNL     1      -8.458 -10.123   2.605  0.00  0.00    +0.189 HD
ATOM      7  C   UNL     1      -8.229  -8.620   1.185  0.00  0.00    +0.126 A 
ATOM      8  C   UNL     1      -8.138  -8.891  -0.254  0.00  0.00    +0.266 C 
ATOM      9  O   UNL     1      -8.185  -9.997  -0.757  0.00  0.00    -0.268 OA
ATOM     10  N   UNL     1      -7.995  -7.741  -0.940  0.00  0.00    -0.280 N 
ENDROOT
BRANCH   3  11
ATOM     11  C   UNL     1      -8.182  -5.761   3.475  0.00  0.00    +0.044 A 
ATOM     12  C   UNL     1      -8.941  -4.687   3.018  0.00  0.00    +0.017 A 
ATOM     13  C   UNL     1      -8.894  -3.478   3.683  0.00  0.00    -0.047 A 
ATOM     14  C   UNL     1      -8.095  -3.329   4.802  0.00  0.00    -0.044 A 
ATOM     15  C   UNL     1      -7.338  -4.388   5.264  0.00  0.00    +0.049 A 
ATOM     16  C   UNL     1      -7.380  -5.609   4.610  0.00  0.00    +0.126 A 
ATOM     17  C   UNL     1      -8.050  -2.005   5.521  0.00  0.00    +0.044 C 
ATOM     18  C   UNL     1      -9.716  -2.316   3.187  0.00  0.00    +0.044 C 
BRANCH  16  19
ATOM     19  O   UNL     1      -6.641  -6.654   5.067  0.00  0.00    -0.506 OA
ATOM     20  H   UNL     1      -5.729  -6.659   4.747  0.00  0.00    +0.292 HD
ENDBRANCH  16  19
ENDBRANCH   3  11
BRANCH  10  21
ATOM     21  C   UNL     1      -7.873  -7.616  -2.395  0.00  0.00    +0.100 C 
ATOM     22  C   UNL     1      -6.641  -8.402  -2.872  0.00  0.00    +0.047 C 
ATOM     23  C   UNL     1      -6.710  -8.517  -4.422  0.00  0.00    +0.168 C 
ATOM     24  S   UNL     1      -8.508  -8.848  -4.655  0.00  0.00    -0.029 S 
ATOM     25  O   UNL     1      -8.720 -10.253  -4.682  0.00  0.00    -0.174 OA
ATOM     26  O   UNL     1      -8.991  -8.047  -5.725  0.00  0.00    -0.174 OA
ATOM     27  C   UNL     1      -9.149  -8.178  -3.067  0.00  0.00    +0.188 C 
ENDBRANCH  10  21
BRANCH   1  31
ATOM     28  C   UNL     1      -4.273  -4.522  -0.213  0.00  0.00    +0.121 A 
ATOM     29  C   UNL     1      -5.469  -3.821  -0.169  0.00  0.00    +0.046 A 
ATOM     30  C   UNL     1      -6.667  -4.505  -0.093  0.00  0.00    +0.009 A 
ATOM     31  C   UNL     1      -6.674  -5.887  -0.061  0.00  0.00    -0.022 A 
ATOM     32  C   UNL     1      -5.483  -6.588  -0.104  0.00  0.00    +0.009 A 
ATOM     33  C   UNL     1      -4.283  -5.909  -0.187  0.00  0.00    +0.046 A 
BRANCH  28  34
ATOM     34  O   UNL     1      -3.093  -3.851  -0.289  0.00  0.00    -0.492 OA
BRANCH  34  35
ATOM     35  C   UNL     1      -3.159  -2.424  -0.312  0.00  0.00    +0.229 C 
BRANCH  35  36
ATOM     36  C   UNL     1      -1.744  -1.850  -0.398  0.00  0.00    +0.041 C 
BRANCH  36  37
ATOM     37  C   UNL     1      -1.814  -0.322  -0.423  0.00  0.00    +0.003 C 
BRANCH  37  39
ATOM     38  C   UNL     1      -0.469   1.781  -0.534  0.00  0.00    +0.004 C 
ATOM     39  C   UNL     1      -0.398   0.253  -0.509  0.00  0.00    -0.003 C 
ENDBRANCH  37  39
ENDBRANCH  36  37
ENDBRANCH  35  36
ENDBRANCH  34  35
ENDBRANCH  28  34
ENDBRANCH   1  31
TORSDOF 9
