REMARK  Name = ZINC64606097
REMARK  7 active torsions:
REMARK  status: ('A' for Active; 'I' for Inactive)
REMARK    1  A    between atoms: C_1  and  C_2
REMARK    2  A    between atoms: N_5  and  C_8
REMARK    3  A    between atoms: C_11  and  C_14
REMARK    4  A    between atoms: C_16  and  C_19
REMARK    5  A    between atoms: N_21  and  C_22
REMARK    6  A    between atoms: C_22  and  C_23
REMARK    7  A    between atoms: C_23  and  N_24
REMARK                            x       y       z     vdW  Elec       q    Type
REMARK                         _______ _______ _______ _____ _____    ______ ____
ROOT
ATOM      1  C   UNL     1       5.562  -6.214  -0.088  0.00  0.00    +0.203 A 
ATOM      2  N   UNL     1       6.220  -6.665   0.991  0.00  0.00    -0.183 NA
ATOM      3  C   UNL     1       7.153  -7.508   0.626  0.00  0.00    +0.314 A 
ATOM      4  O   UNL     1       7.119  -7.622  -0.713  0.00  0.00    -0.328 OA
ATOM      5  N   UNL     1       6.071  -6.774  -1.159  0.00  0.00    -0.055 NA
ENDROOT
BRANCH   1   9
ATOM      6  C   UNL     1       2.341  -3.436  -0.040  0.00  0.00    +0.030 A 
ATOM      7  C   UNL     1       2.789  -3.958  -1.248  0.00  0.00    +0.024 A 
ATOM      8  C   UNL     1       3.833  -4.858  -1.266  0.00  0.00    +0.013 A 
ATOM      9  C   UNL     1       4.439  -5.245  -0.071  0.00  0.00    +0.023 A 
ATOM     10  C   UNL     1       3.988  -4.720   1.139  0.00  0.00    +0.013 A 
ATOM     11  C   UNL     1       2.947  -3.816   1.152  0.00  0.00    +0.024 A 
BRANCH   6  16
ATOM     12  C   UNL     1      -2.913  -1.828  -0.009  0.00  0.00    +0.007 C 
ATOM     13  C   UNL     1      -1.396  -1.625  -0.007  0.00  0.00    -0.011 C 
ATOM     14  C   UNL     1      -0.794  -2.291   1.232  0.00  0.00    +0.022 C 
ATOM     15  C   UNL     1       0.720  -2.056   1.248  0.00  0.00    +0.105 C 
ATOM     16  N   UNL     1       1.285  -2.525  -0.025  0.00  0.00    -0.330 N 
ATOM     17  C   UNL     1       0.717  -2.015  -1.280  0.00  0.00    +0.105 C 
ATOM     18  C   UNL     1      -0.796  -2.251  -1.268  0.00  0.00    +0.022 C 
ENDBRANCH   6  16
ENDBRANCH   1   9
BRANCH   3  19
ATOM     19  C   UNL     1       8.088  -8.215   1.534  0.00  0.00    +0.302 C 
ATOM     20  O   UNL     1       8.024  -8.032   2.734  0.00  0.00    -0.265 OA
ATOM     21  N   UNL     1       9.007  -9.061   1.030  0.00  0.00    -0.309 N 
ATOM     22  H   UNL     1       9.058  -9.207   0.072  0.00  0.00    +0.149 HD
BRANCH  21  23
ATOM     23  C   UNL     1       9.931  -9.760   1.927  0.00  0.00    +0.086 C 
BRANCH  23  24
ATOM     24  C   UNL     1      10.864 -10.651   1.105  0.00  0.00    -0.059 C 
BRANCH  24  25
ATOM     25  N   UNL     1      11.790 -11.352   2.005  0.00  0.00    +0.384 N 
ATOM     26  C   UNL     1      12.757 -12.125   1.212  0.00  0.00    -0.074 C 
ATOM     27  C   UNL     1      13.883 -12.591   2.135  0.00  0.00    +0.017 C 
ATOM     28  C   UNL     1      13.301 -13.265   3.350  0.00  0.00    -0.048 A 
ATOM     29  C   UNL     1      14.128 -14.055   4.133  0.00  0.00    +0.004 A 
ATOM     30  C   UNL     1      13.631 -14.686   5.256  0.00  0.00    +0.000 A 
ATOM     31  C   UNL     1      12.301 -14.528   5.601  0.00  0.00    +0.000 A 
ATOM     32  C   UNL     1      11.476 -13.743   4.822  0.00  0.00    +0.002 A 
ATOM     33  C   UNL     1      11.974 -13.110   3.692  0.00  0.00    -0.061 A 
ATOM     34  C   UNL     1      11.037 -12.269   2.866  0.00  0.00    -0.043 C 
ATOM     35  H   UNL     1      12.280 -10.680   2.576  0.00  0.00    -0.081 HD
ENDBRANCH  24  25
ENDBRANCH  23  24
ENDBRANCH  21  23
ENDBRANCH   3  19
TORSDOF 6
