REMARK  Name = ZINC36704261
REMARK  11 active torsions:
REMARK  status: ('A' for Active; 'I' for Inactive)
REMARK    1  A    between atoms: C_1  and  C_2
REMARK    2  A    between atoms: C_2  and  C_34
REMARK    3  A    between atoms: C_5  and  C_30
REMARK    4  A    between atoms: C_6  and  N_13
REMARK    5  A    between atoms: C_9  and  C_11
REMARK    6  A    between atoms: C_9  and  C_12
REMARK    7  A    between atoms: C_14  and  C_16
REMARK    8  A    between atoms: N_19  and  S_22
REMARK    9  A    between atoms: S_22  and  C_25
REMARK   10  A    between atoms: C_30  and  O_32
REMARK   11  A    between atoms: O_32  and  C_33
REMARK                            x       y       z     vdW  Elec       q    Type
REMARK                         _______ _______ _______ _____ _____    ______ ____
ROOT
ATOM      1  C   UNL     1      -0.019   1.536   0.011  0.00  0.00    -0.010 C 
ATOM      2  C   UNL     1       0.002  -0.004   0.002  0.00  0.00    -0.069 C 
ATOM      3  C   UNL     1       0.693  -0.456  -1.291  0.00  0.00    +0.024 C 
ATOM      4  C   UNL     1       0.777  -1.974  -1.244  0.00  0.00    -0.024 A 
ATOM      5  C   UNL     1       0.751  -2.881  -2.370  0.00  0.00    +0.091 A 
ATOM      6  C   UNL     1       0.838  -4.239  -2.086  0.00  0.00    +0.086 A 
ATOM      7  S   UNL     1       0.951  -4.303  -0.412  0.00  0.00    -0.079 S 
ATOM      8  C   UNL     1       0.895  -2.576  -0.038  0.00  0.00    -0.016 A 
ATOM      9  C   UNL     1       0.969  -1.895   1.288  0.00  0.00    -0.041 C 
ATOM     10  N   UNL     1       0.711  -0.460   1.190  0.00  0.00    +0.389 N 
ATOM     11  C   UNL     1      -0.027  -2.550   2.255  0.00  0.00    -0.005 C 
ATOM     12  C   UNL     1       2.386  -2.102   1.859  0.00  0.00    -0.005 C 
ATOM     13  C   UNL     1      -1.448  -0.493   0.002  0.00  0.00    -0.010 C 
ATOM     14  H   UNL     1       1.603   0.035   1.244  0.00  0.00    -0.084 HD
ATOM     15  H   UNL     1       0.184  -0.167   2.015  0.00  0.00    -0.084 HD
ENDROOT
BRANCH   6  16
ATOM     16  N   UNL     1       0.832  -5.296  -2.982  0.00  0.00    -0.279 N 
ATOM     17  C   UNL     1       0.925  -6.562  -2.530  0.00  0.00    +0.221 C 
ATOM     18  O   UNL     1       1.014  -6.777  -1.340  0.00  0.00    -0.275 OA
ATOM     19  H   UNL     1       0.761  -5.125  -3.934  0.00  0.00    +0.155 HD
BRANCH  17  20
ATOM     20  C   UNL     1       0.919  -7.712  -3.504  0.00  0.00    +0.078 C 
ATOM     21  C   UNL     1       2.102  -7.573  -4.465  0.00  0.00    +0.030 C 
ATOM     22  C   UNL     1       2.073  -8.725  -5.475  0.00  0.00    +0.110 C 
ATOM     23  N   UNL     1       2.038  -9.997  -4.741  0.00  0.00    -0.176 NA
ATOM     24  C   UNL     1       0.994 -10.199  -3.727  0.00  0.00    +0.110 C 
ATOM     25  C   UNL     1       1.036  -9.031  -2.737  0.00  0.00    +0.030 C 
BRANCH  23  26
ATOM     26  S   UNL     1       3.154 -11.180  -5.051  0.00  0.00    +0.067 S 
ATOM     27  O   UNL     1       2.564 -12.410  -4.651  0.00  0.00    -0.152 OA
ATOM     28  O   UNL     1       3.627 -10.957  -6.372  0.00  0.00    -0.152 OA
BRANCH  26  29
ATOM     29  C   UNL     1       4.521 -10.903  -3.974  0.00  0.00    +0.143 A 
ATOM     30  C   UNL     1       4.736 -11.387  -2.726  0.00  0.00    +0.036 A 
ATOM     31  C   UNL     1       5.894 -11.032  -2.060  0.00  0.00    +0.010 A 
ATOM     32  C   UNL     1       6.780 -10.210  -2.675  0.00  0.00    +0.047 A 
ATOM     33  S   UNL     1       5.984  -9.918  -4.246  0.00  0.00    -0.077 S 
ENDBRANCH  26  29
ENDBRANCH  23  26
ENDBRANCH  17  20
ENDBRANCH   6  16
BRANCH   5  34
ATOM     34  C   UNL     1       0.642  -2.403  -3.750  0.00  0.00    +0.342 C 
ATOM     35  O   UNL     1       1.647  -2.153  -4.388  0.00  0.00    -0.245 OA
BRANCH  34  36
ATOM     36  O   UNL     1      -0.572  -2.239  -4.313  0.00  0.00    -0.464 OA
ATOM     37  C   UNL     1      -0.604  -1.770  -5.662  0.00  0.00    +0.280 C 
ENDBRANCH  34  36
ENDBRANCH   5  34
TORSDOF 6
