REMARK  Name = ZINC38686872
REMARK  9 active torsions:
REMARK  status: ('A' for Active; 'I' for Inactive)
REMARK    1  A    between atoms: C_3  and  C_16
REMARK    2  A    between atoms: C_5  and  O_7
REMARK    3  A    between atoms: O_7  and  C_8
REMARK    4  A    between atoms: C_8  and  C_9
REMARK    5  A    between atoms: C_21  and  O_30
REMARK    6  A    between atoms: C_25  and  N_29
REMARK    7  A    between atoms: C_26  and  C_27
REMARK    8  A    between atoms: O_30  and  C_31
REMARK    9  A    between atoms: C_31  and  C_33
REMARK                            x       y       z     vdW  Elec       q    Type
REMARK                         _______ _______ _______ _____ _____    ______ ____
ROOT
ATOM      1  C   UNL     1       3.633   2.234   0.007  0.00  0.00    +0.098 C 
ATOM      2  C   UNL     1       3.696   3.089  -1.231  0.00  0.00    +0.008 A 
ATOM      3  C   UNL     1       4.085   2.521  -2.432  0.00  0.00    +0.012 A 
ATOM      4  C   UNL     1       4.149   3.289  -3.577  0.00  0.00    +0.047 A 
ATOM      5  C   UNL     1       3.822   4.637  -3.527  0.00  0.00    +0.135 A 
ATOM      6  C   UNL     1       3.432   5.209  -2.327  0.00  0.00    +0.093 A 
ATOM      7  C   UNL     1       3.368   4.434  -1.175  0.00  0.00    +0.138 A 
ATOM      8  O   UNL     1       2.984   5.009  -0.009  0.00  0.00    -0.441 OA
ATOM      9  C   UNL     1       3.278   4.414   1.159  0.00  0.00    +0.199 C 
ATOM     10  C   UNL     1       3.593   3.102   1.233  0.00  0.00    +0.098 C 
ENDROOT
BRANCH   1  13
ATOM     11  C   UNL     1       0.007   1.189  -0.139  0.00  0.00    +0.004 A 
ATOM     12  C   UNL     1       1.146   1.972  -0.096  0.00  0.00    +0.005 A 
ATOM     13  C   UNL     1       2.393   1.378  -0.040  0.00  0.00    -0.031 A 
ATOM     14  C   UNL     1       2.505   0.001  -0.027  0.00  0.00    +0.050 A 
ATOM     15  C   UNL     1       1.363  -0.786  -0.070  0.00  0.00    +0.121 A 
ATOM     16  C   UNL     1       0.112  -0.188  -0.126  0.00  0.00    +0.045 A 
BRANCH  15  17
ATOM     17  O   UNL     1       1.470  -2.141  -0.058  0.00  0.00    -0.487 OA
BRANCH  17  18
ATOM     18  C   UNL     1       0.252  -2.888  -0.104  0.00  0.00    +0.264 C 
BRANCH  18  19
ATOM     19  C   UNL     1       0.566  -4.362  -0.083  0.00  0.00    -0.010 A 
ATOM     20  C   UNL     1       0.766  -5.043  -1.269  0.00  0.00    +0.010 A 
ATOM     21  C   UNL     1       1.054  -6.394  -1.250  0.00  0.00    +0.039 A 
ATOM     22  C   UNL     1       1.143  -7.066  -0.043  0.00  0.00    +0.123 A 
ATOM     23  C   UNL     1       0.943  -6.383   1.145  0.00  0.00    +0.039 A 
ATOM     24  C   UNL     1       0.660  -5.030   1.124  0.00  0.00    +0.010 A 
ATOM     25  F   UNL     1       1.424  -8.387  -0.023  0.00  0.00    -0.205 F 
ENDBRANCH  18  19
ENDBRANCH  17  18
ENDBRANCH  15  17
ENDBRANCH   1  13
BRANCH   9  26
ATOM     26  N   UNL     1       3.256   5.161   2.311  0.00  0.00    -0.328 N 
ATOM     27  H   UNL     1       3.032   6.103   2.273  0.00  0.00    +0.145 HD
ATOM     28  H   UNL     1       3.466   4.745   3.162  0.00  0.00    +0.145 HD
ENDBRANCH   9  26
BRANCH  10  29
ATOM     29  C   UNL     1       3.895   2.528   2.509  0.00  0.00    +0.101 C 
ATOM     30  N   UNL     1       4.134   2.073   3.522  0.00  0.00    -0.191 NA
ENDBRANCH  10  29
BRANCH   5  31
ATOM     31  O   UNL     1       3.884   5.395  -4.653  0.00  0.00    -0.422 OA
BRANCH  31  32
ATOM     32  C   UNL     1       4.849   6.334  -4.733  0.00  0.00    +0.351 C 
ATOM     33  O   UNL     1       5.694   6.412  -3.861  0.00  0.00    -0.244 OA
BRANCH  32  34
ATOM     34  C   UNL     1       4.880   7.258  -5.867  0.00  0.00    +0.097 A 
ATOM     35  C   UNL     1       5.779   8.279  -6.139  0.00  0.00    +0.022 A 
ATOM     36  C   UNL     1       5.548   8.984  -7.296  0.00  0.00    +0.008 A 
ATOM     37  C   UNL     1       4.489   8.648  -8.073  0.00  0.00    +0.046 A 
ATOM     38  S   UNL     1       3.777   7.359  -7.264  0.00  0.00    -0.090 S 
ENDBRANCH  32  34
ENDBRANCH  31  32
ENDBRANCH   5  31
TORSDOF 9
