REMARK  Name = ZINC63141512
REMARK  8 active torsions:
REMARK  status: ('A' for Active; 'I' for Inactive)
REMARK    1  A    between atoms: C_1  and  C_2
REMARK    2  A    between atoms: C_2  and  C_3
REMARK    3  A    between atoms: C_2  and  O_4
REMARK    4  A    between atoms: O_4  and  C_5
REMARK    5  A    between atoms: C_5  and  C_6
REMARK    6  A    between atoms: C_6  and  C_7
REMARK    7  A    between atoms: C_7  and  N_8
REMARK    8  A    between atoms: C_28  and  C_30
REMARK                            x       y       z     vdW  Elec       q    Type
REMARK                         _______ _______ _______ _____ _____    ______ ____
ROOT
ATOM      1  N   UNL     1       0.595  -1.901   5.807  0.00  0.00    -0.291 N 
ATOM      2  C   UNL     1       0.829  -3.339   6.031  0.00  0.00    +0.203 C 
ATOM      3  C   UNL     1       2.300  -3.547   6.326  0.00  0.00    +0.234 C 
ATOM      4  O   UNL     1       2.927  -4.453   5.820  0.00  0.00    -0.274 OA
ATOM      5  N   UNL     1       2.890  -2.660   7.194  0.00  0.00    -0.279 N 
ATOM      6  C   UNL     1       2.002  -1.680   7.781  0.00  0.00    +0.167 C 
ATOM      7  C   UNL     1       1.172  -1.040   6.697  0.00  0.00    +0.237 C 
ATOM      8  O   UNL     1       1.023   0.162   6.623  0.00  0.00    -0.274 OA
ATOM      9  C   UNL     1       2.584  -0.665   8.731  0.00  0.00    +0.065 C 
ATOM     10  C   UNL     1       4.086  -0.745   8.707  0.00  0.00    -0.034 C 
ATOM     11  C   UNL     1       5.026   0.190   8.722  0.00  0.00    -0.001 A 
ATOM     12  C   UNL     1       4.949   1.657   8.812  0.00  0.00    +0.010 A 
ATOM     13  C   UNL     1       6.134   2.322   8.791  0.00  0.00    +0.001 A 
ATOM     14  C   UNL     1       7.374   1.683   8.689  0.00  0.00    +0.002 A 
ATOM     15  C   UNL     1       7.539   0.339   8.606  0.00  0.00    +0.026 A 
ATOM     16  C   UNL     1       6.364  -0.469   8.623  0.00  0.00    +0.043 A 
ATOM     17  N   UNL     1       6.232  -1.760   8.569  0.00  0.00    -0.375 N 
ATOM     18  C   UNL     1       4.804  -2.091   8.652  0.00  0.00    +0.131 C 
ATOM     19  C   UNL     1       4.329  -2.777   7.380  0.00  0.00    +0.133 C 
ATOM     20  H   UNL     1       6.957  -2.399   8.486  0.00  0.00    +0.160 HD
ENDROOT
BRANCH  19  21
ATOM     21  C   UNL     1       5.029  -2.114   6.221  0.00  0.00    -0.024 A 
ATOM     22  C   UNL     1       4.546  -0.923   5.711  0.00  0.00    +0.005 A 
ATOM     23  C   UNL     1       5.187  -0.315   4.648  0.00  0.00    +0.001 A 
ATOM     24  C   UNL     1       6.313  -0.897   4.095  0.00  0.00    +0.015 A 
ATOM     25  C   UNL     1       6.797  -2.088   4.606  0.00  0.00    +0.018 A 
ATOM     26  C   UNL     1       6.158  -2.693   5.673  0.00  0.00    +0.020 A 
ATOM     27 BR   UNL     1       8.336  -2.885   3.849  0.00  0.00    -0.050 Br
ENDBRANCH  19  21
BRANCH   1  28
ATOM     28  C   UNL     1      -0.211  -1.419   4.683  0.00  0.00    +0.110 C 
BRANCH  28  29
ATOM     29  C   UNL     1       0.692  -1.192   3.468  0.00  0.00    +0.047 C 
BRANCH  29  30
ATOM     30  C   UNL     1      -0.150  -0.689   2.294  0.00  0.00    +0.161 C 
BRANCH  30  31
ATOM     31  O   UNL     1       0.693  -0.477   1.160  0.00  0.00    -0.377 OA
BRANCH  31  33
ATOM     32  C   UNL     1      -0.019   1.526   0.010  0.00  0.00    +0.037 C 
ATOM     33  C   UNL     1       0.002  -0.004   0.002  0.00  0.00    +0.112 C 
ATOM     34  C   UNL     1       0.718  -0.497  -1.257  0.00  0.00    +0.037 C 
ENDBRANCH  31  33
ENDBRANCH  30  31
ENDBRANCH  29  30
ENDBRANCH  28  29
ENDBRANCH   1  28
TORSDOF 6
