REMARK  Name = ZINC60199720
REMARK  11 active torsions:
REMARK  status: ('A' for Active; 'I' for Inactive)
REMARK    1  A    between atoms: C_1  and  C_2
REMARK    2  A    between atoms: C_6  and  C_8
REMARK    3  A    between atoms: N_10  and  C_11
REMARK    4  A    between atoms: C_11  and  C_13
REMARK    5  A    between atoms: C_11  and  C_16
REMARK    6  A    between atoms: C_13  and  C_14
REMARK    7  A    between atoms: C_13  and  C_15
REMARK    8  A    between atoms: N_18  and  C_19
REMARK    9  A    between atoms: C_19  and  C_21
REMARK   10  A    between atoms: C_19  and  C_22
REMARK   11  A    between atoms: C_26  and  C_28
REMARK                            x       y       z     vdW  Elec       q    Type
REMARK                         _______ _______ _______ _____ _____    ______ ____
ROOT
ATOM      1  C   UNL     1       1.032  -6.174   3.572  0.00  0.00    +0.234 C 
ATOM      2  O   UNL     1       1.544  -6.502   2.522  0.00  0.00    -0.274 OA
ATOM      3  N   UNL     1       0.997  -7.039   4.604  0.00  0.00    -0.304 N 
ATOM      4  H   UNL     1       0.653  -6.753   5.465  0.00  0.00    +0.149 HD
ENDROOT
BRANCH   3   5
ATOM      5  C   UNL     1       1.478  -8.412   4.427  0.00  0.00    +0.134 C 
ATOM      6  C   UNL     1       2.993  -8.452   4.636  0.00  0.00    +0.036 C 
BRANCH   5   7
ATOM      7  C   UNL     1       0.808  -9.313   5.432  0.00  0.00    +0.105 A 
ATOM      8  N   UNL     1       0.380  -8.939   6.658  0.00  0.00    -0.348 N 
ATOM      9  H   UNL     1       0.447  -8.052   7.044  0.00  0.00    +0.167 HD
ATOM     10  C   UNL     1      -0.167 -10.041   7.254  0.00  0.00    +0.110 A 
ATOM     11  C   UNL     1      -0.054 -11.062   6.365  0.00  0.00    +0.064 A 
ATOM     12  N   UNL     1       0.544 -10.577   5.258  0.00  0.00    -0.342 N 
ATOM     13  H   UNL     1       0.747 -11.089   4.459  0.00  0.00    +0.167 HD
BRANCH  11  14
ATOM     14  C   UNL     1      -0.511 -12.458   6.573  0.00  0.00    -0.000 A 
ATOM     15  C   UNL     1      -0.325 -13.411   5.573  0.00  0.00    +0.010 A 
ATOM     16  C   UNL     1      -0.752 -14.708   5.772  0.00  0.00    +0.001 A 
ATOM     17  C   UNL     1      -1.364 -15.063   6.960  0.00  0.00    +0.000 A 
ATOM     18  C   UNL     1      -1.552 -14.121   7.956  0.00  0.00    +0.001 A 
ATOM     19  C   UNL     1      -1.123 -12.823   7.771  0.00  0.00    +0.010 A 
ENDBRANCH  11  14
ENDBRANCH   5   7
ENDBRANCH   3   5
BRANCH   1  20
ATOM     20  C   UNL     1       0.435  -4.798   3.721  0.00  0.00    +0.162 C 
BRANCH  20  23
ATOM     21  C   UNL     1       1.008  -2.585   2.877  0.00  0.00    +0.245 C 
ATOM     22  O   UNL     1       0.596  -2.113   3.919  0.00  0.00    -0.270 OA
ATOM     23  N   UNL     1       0.972  -3.918   2.680  0.00  0.00    -0.300 N 
ATOM     24  H   UNL     1       1.301  -4.294   1.849  0.00  0.00    +0.150 HD
BRANCH  21  30
ATOM     25  C   UNL     1       2.136   1.998   1.258  0.00  0.00    +0.044 C 
ATOM     26  C   UNL     1       2.093   0.507   1.043  0.00  0.00    -0.050 A 
ATOM     27  C   UNL     1       2.562  -0.033  -0.142  0.00  0.00    +0.003 A 
ATOM     28  C   UNL     1       2.527  -1.400  -0.347  0.00  0.00    +0.001 A 
ATOM     29  C   UNL     1       2.023  -2.235   0.629  0.00  0.00    +0.013 A 
ATOM     30  C   UNL     1       1.549  -1.697   1.827  0.00  0.00    +0.037 A 
ATOM     31  C   UNL     1       1.593  -0.316   2.030  0.00  0.00    +0.016 A 
ENDBRANCH  21  30
ENDBRANCH  20  23
BRANCH  20  32
ATOM     32  C   UNL     1      -1.086  -4.884   3.582  0.00  0.00    +0.012 C 
ATOM     33  C   UNL     1      -1.701  -3.508   3.848  0.00  0.00    +0.009 C 
ATOM     34  C   UNL     1      -1.444  -5.337   2.166  0.00  0.00    +0.009 C 
ENDBRANCH  20  32
ENDBRANCH   1  20
TORSDOF 7
