REMARK  Name = ZINC08781470
REMARK  6 active torsions:
REMARK  status: ('A' for Active; 'I' for Inactive)
REMARK    1  A    between atoms: C_1  and  O_2
REMARK    2  A    between atoms: O_2  and  C_3
REMARK    3  A    between atoms: C_3  and  C_5
REMARK    4  A    between atoms: C_5  and  C_31
REMARK    5  A    between atoms: C_10  and  C_12
REMARK    6  A    between atoms: N_21  and  C_24
REMARK                            x       y       z     vdW  Elec       q    Type
REMARK                         _______ _______ _______ _____ _____    ______ ____
ROOT
ATOM      1  C   UNL     1      -1.728   0.679   1.547  0.00  0.00    +0.070 C 
ATOM      2  C   UNL     1      -0.415   1.457   1.493  0.00  0.00    +0.090 C 
ATOM      3  C   UNL     1      -0.011   1.087   0.011  0.00  0.00    +0.078 C 
ATOM      4  C   UNL     1      -1.257   1.393  -0.712  0.00  0.00    -0.026 C 
ATOM      5  C   UNL     1       1.392   1.419   0.001  0.00  0.00    +0.229 C 
ATOM      6  O   UNL     1       2.038   1.878  -0.917  0.00  0.00    -0.275 OA
ATOM      7  N   UNL     1       1.836   1.101   1.261  0.00  0.00    -0.210 N 
ATOM      8  C   UNL     1       0.815   0.877   2.140  0.00  0.00    +0.229 C 
ATOM      9  O   UNL     1       0.884   0.325   3.217  0.00  0.00    -0.275 OA
ATOM     10  N   UNL     1      -2.285   0.770   0.172  0.00  0.00    +0.398 N 
ATOM     11  H   UNL     1      -3.134   1.348   0.179  0.00  0.00    -0.083 HD
ATOM     12  H   UNL     1      -2.515  -0.170  -0.171  0.00  0.00    -0.083 HD
ENDROOT
BRANCH   4  13
ATOM     13  C   UNL     1      -1.455   2.882  -0.835  0.00  0.00    -0.061 A 
ATOM     14  C   UNL     1      -1.964   3.602   0.230  0.00  0.00    +0.003 A 
ATOM     15  C   UNL     1      -2.140   4.968   0.119  0.00  0.00    +0.020 A 
ATOM     16  C   UNL     1      -1.818   5.614  -1.062  0.00  0.00    +0.041 A 
ATOM     17  C   UNL     1      -1.315   4.892  -2.129  0.00  0.00    +0.020 A 
ATOM     18  C   UNL     1      -1.133   3.526  -2.015  0.00  0.00    +0.003 A 
ATOM     19 CL   UNL     1      -2.047   7.329  -1.204  0.00  0.00    -0.084 Cl
ENDBRANCH   4  13
BRANCH   7  20
ATOM     20  C   UNL     1       3.192   1.016   1.608  0.00  0.00    +0.044 A 
ATOM     21  C   UNL     1       3.558   0.694   2.908  0.00  0.00    +0.025 A 
ATOM     22  C   UNL     1       4.894   0.604   3.246  0.00  0.00    +0.022 A 
ATOM     23  C   UNL     1       5.868   0.846   2.293  0.00  0.00    +0.041 A 
ATOM     24  C   UNL     1       5.506   1.173   0.998  0.00  0.00    +0.022 A 
ATOM     25  C   UNL     1       4.171   1.258   0.654  0.00  0.00    +0.025 A 
ATOM     26 CL   UNL     1       7.547   0.740   2.723  0.00  0.00    -0.084 Cl
ENDBRANCH   7  20
BRANCH   1  27
ATOM     27  C   UNL     1      -1.469  -0.759   1.915  0.00  0.00    -0.047 A 
ATOM     28  C   UNL     1      -1.344  -1.714   0.924  0.00  0.00    +0.003 A 
ATOM     29  C   UNL     1      -1.102  -3.033   1.261  0.00  0.00    +0.000 A 
ATOM     30  C   UNL     1      -0.994  -3.397   2.590  0.00  0.00    +0.000 A 
ATOM     31  C   UNL     1      -1.123  -2.443   3.581  0.00  0.00    +0.000 A 
ATOM     32  C   UNL     1      -1.361  -1.123   3.244  0.00  0.00    +0.003 A 
ENDBRANCH   1  27
BRANCH   1  33
ATOM     33  C   UNL     1      -2.669   1.312   2.540  0.00  0.00    +0.301 C 
ATOM     34  O   UNL     1      -2.230   1.970   3.453  0.00  0.00    -0.252 OA
BRANCH  33  36
ATOM     35  C   UNL     1      -4.840   1.782   3.404  0.00  0.00    +0.280 C 
ATOM     36  O   UNL     1      -3.994   1.144   2.410  0.00  0.00    -0.469 OA
ENDBRANCH  33  36
ENDBRANCH   1  33
TORSDOF 5
