REMARK  Name = ZINC09124692
REMARK  13 active torsions:
REMARK  status: ('A' for Active; 'I' for Inactive)
REMARK    1  A    between atoms: C_1  and  C_2
REMARK    2  A    between atoms: C_2  and  O_3
REMARK    3  A    between atoms: O_3  and  C_4
REMARK    4  A    between atoms: C_7  and  C_13
REMARK    5  A    between atoms: C_9  and  O_10
REMARK    6  A    between atoms: O_10  and  C_11
REMARK    7  A    between atoms: C_11  and  C_12
REMARK    8  A    between atoms: C_16  and  C_27
REMARK    9  A    between atoms: N_23  and  C_24
REMARK   10  A    between atoms: C_24  and  C_25
REMARK   11  A    between atoms: C_25  and  O_26
REMARK   12  A    between atoms: C_30  and  C_34
REMARK   13  A    between atoms: C_32  and  O_33
REMARK                            x       y       z     vdW  Elec       q    Type
REMARK                         _______ _______ _______ _____ _____    ______ ____
ROOT
ATOM      1  C   UNL     1       1.107  -5.743  -1.765  0.00  0.00    +0.141 C 
ATOM      2  C   UNL     1      -0.173  -6.314  -2.311  0.00  0.00    +0.035 A 
ATOM      3  C   UNL     1      -1.167  -6.228  -3.233  0.00  0.00    +0.075 A 
ATOM      4  N   UNL     1      -2.023  -7.262  -2.984  0.00  0.00    -0.276 N 
ATOM      5  H   UNL     1      -2.829  -7.451  -3.488  0.00  0.00    +0.189 HD
ATOM      6  N   UNL     1      -1.601  -7.948  -1.982  0.00  0.00    -0.168 NA
ATOM      7  C   UNL     1      -0.479  -7.439  -1.512  0.00  0.00    +0.153 A 
ATOM      8  C   UNL     1       0.577  -7.571  -0.493  0.00  0.00    +0.268 C 
ATOM      9  O   UNL     1       0.616  -8.440   0.357  0.00  0.00    -0.268 OA
ATOM     10  N   UNL     1       1.493  -6.597  -0.636  0.00  0.00    -0.283 N 
ENDROOT
BRANCH   3  11
ATOM     11  C   UNL     1      -1.297  -5.210  -4.299  0.00  0.00    +0.043 A 
ATOM     12  C   UNL     1      -2.360  -4.308  -4.281  0.00  0.00    +0.034 A 
ATOM     13  C   UNL     1      -2.477  -3.361  -5.279  0.00  0.00    +0.045 A 
ATOM     14  C   UNL     1      -1.541  -3.304  -6.298  0.00  0.00    -0.029 A 
ATOM     15  C   UNL     1      -0.483  -4.193  -6.325  0.00  0.00    +0.050 A 
ATOM     16  C   UNL     1      -0.351  -5.145  -5.328  0.00  0.00    +0.126 A 
ATOM     17  C   UNL     1      -1.677  -2.267  -7.383  0.00  0.00    +0.045 C 
ATOM     18 CL   UNL     1      -3.800  -2.238  -5.255  0.00  0.00    -0.083 Cl
BRANCH  16  19
ATOM     19  O   UNL     1       0.692  -6.016  -5.351  0.00  0.00    -0.506 OA
ATOM     20  H   UNL     1       0.512  -6.832  -5.838  0.00  0.00    +0.292 HD
ENDBRANCH  16  19
ENDBRANCH   3  11
BRANCH   1  24
ATOM     21  C   UNL     1       0.469  -1.735  -0.417  0.00  0.00    +0.162 A 
ATOM     22  C   UNL     1      -0.052  -2.801   0.298  0.00  0.00    +0.050 A 
ATOM     23  C   UNL     1       0.155  -4.095  -0.140  0.00  0.00    +0.009 A 
ATOM     24  C   UNL     1       0.883  -4.330  -1.292  0.00  0.00    -0.019 A 
ATOM     25  C   UNL     1       1.406  -3.271  -2.010  0.00  0.00    +0.055 A 
ATOM     26  C   UNL     1       1.196  -1.970  -1.580  0.00  0.00    +0.162 A 
BRANCH  21  27
ATOM     27  O   UNL     1       0.264  -0.461   0.012  0.00  0.00    -0.489 OA
BRANCH  27  29
ATOM     28  C   UNL     1      -0.616   1.196   1.536  0.00  0.00    +0.048 C 
ATOM     29  C   UNL     1      -0.492  -0.294   1.213  0.00  0.00    +0.226 C 
ENDBRANCH  27  29
ENDBRANCH  21  27
BRANCH  26  30
ATOM     30  O   UNL     1       1.705  -0.927  -2.289  0.00  0.00    -0.489 OA
BRANCH  30  31
ATOM     31  C   UNL     1       2.441  -1.244  -3.472  0.00  0.00    +0.226 C 
ATOM     32  C   UNL     1       2.931   0.047  -4.130  0.00  0.00    +0.048 C 
ENDBRANCH  30  31
ENDBRANCH  26  30
ENDBRANCH   1  24
BRANCH  10  33
ATOM     33  C   UNL     1       2.683  -6.417   0.200  0.00  0.00    +0.137 C 
BRANCH  33  34
ATOM     34  C   UNL     1       3.817  -7.298  -0.330  0.00  0.00    +0.175 C 
BRANCH  34  35
ATOM     35  O   UNL     1       4.205  -6.844  -1.628  0.00  0.00    -0.393 OA
ATOM     36  H   UNL     1       4.921  -7.357  -2.026  0.00  0.00    +0.209 HD
ENDBRANCH  34  35
ENDBRANCH  33  34
ENDBRANCH  10  33
TORSDOF 10
