REMARK  Name = ZINC09058094
REMARK  7 active torsions:
REMARK  status: ('A' for Active; 'I' for Inactive)
REMARK    1  A    between atoms: C_1  and  C_2
REMARK    2  A    between atoms: C_2  and  C_4
REMARK    3  A    between atoms: C_2  and  N_14
REMARK    4  A    between atoms: C_15  and  C_17
REMARK    5  A    between atoms: C_17  and  N_18
REMARK    6  A    between atoms: C_21  and  C_25
REMARK    7  A    between atoms: C_21  and  C_26
REMARK                            x       y       z     vdW  Elec       q    Type
REMARK                         _______ _______ _______ _____ _____    ______ ____
ROOT
ATOM      1  C   UNL     1      -0.779  -4.415  -2.388  0.00  0.00    +0.213 C 
ENDROOT
BRANCH   1   2
ATOM      2  N   UNL     1      -0.414  -5.747  -2.876  0.00  0.00    -0.215 N 
ATOM      3  C   UNL     1      -0.740  -6.897  -2.253  0.00  0.00    +0.251 C 
ATOM      4  O   UNL     1      -1.365  -7.019  -1.221  0.00  0.00    -0.272 OA
ATOM      5  C   UNL     1      -0.161  -8.005  -3.110  0.00  0.00    +0.135 C 
ATOM      6  N   UNL     1       0.483  -7.283  -4.220  0.00  0.00    -0.281 N 
ATOM      7  C   UNL     1       0.278  -5.973  -3.998  0.00  0.00    +0.310 C 
ATOM      8  O   UNL     1       0.679  -5.092  -4.733  0.00  0.00    -0.252 OA
ATOM      9  C   UNL     1       0.872  -8.812  -2.320  0.00  0.00    +0.047 C 
ATOM     10  H   UNL     1       0.960  -7.677  -4.968  0.00  0.00    +0.152 HD
BRANCH   5  11
ATOM     11  C   UNL     1      -1.256  -8.903  -3.625  0.00  0.00    -0.015 A 
ATOM     12  C   UNL     1      -2.406  -9.087  -2.881  0.00  0.00    +0.009 A 
ATOM     13  C   UNL     1      -3.413  -9.906  -3.356  0.00  0.00    +0.039 A 
ATOM     14  C   UNL     1      -3.265 -10.551  -4.572  0.00  0.00    +0.123 A 
ATOM     15  C   UNL     1      -2.110 -10.370  -5.314  0.00  0.00    +0.039 A 
ATOM     16  C   UNL     1      -1.107  -9.546  -4.840  0.00  0.00    +0.009 A 
ATOM     17  F   UNL     1      -4.246 -11.357  -5.034  0.00  0.00    -0.205 F 
ENDBRANCH   5  11
ENDBRANCH   1   2
BRANCH   1  19
ATOM     18  N   UNL     1       0.186  -2.683  -0.908  0.00  0.00    -0.307 N 
ATOM     19  C   UNL     1       0.306  -3.898  -1.478  0.00  0.00    +0.231 C 
ATOM     20  O   UNL     1       1.287  -4.576  -1.260  0.00  0.00    -0.274 OA
ATOM     21  H   UNL     1      -0.599  -2.140  -1.083  0.00  0.00    +0.149 HD
BRANCH  18  23
ATOM     22  C   UNL     1       1.011  -2.707   1.394  0.00  0.00    +0.033 C 
ATOM     23  C   UNL     1       1.241  -2.181  -0.024  0.00  0.00    +0.100 C 
BRANCH  23  24
ATOM     24  C   UNL     1       1.211  -0.674  -0.012  0.00  0.00    -0.027 A 
ATOM     25  C   UNL     1       0.002  -0.004   0.002  0.00  0.00    +0.006 A 
ATOM     26  C   UNL     1      -0.017   1.375   0.010  0.00  0.00    +0.004 A 
ATOM     27  C   UNL     1       1.170   2.097   0.002  0.00  0.00    -0.044 A 
ATOM     28  C   UNL     1       2.374   1.430  -0.007  0.00  0.00    -0.044 A 
ATOM     29  C   UNL     1       2.391   0.041  -0.016  0.00  0.00    +0.009 A 
ATOM     30  C   UNL     1       3.699   2.147  -0.003  0.00  0.00    +0.035 C 
ATOM     31  C   UNL     1       3.522   3.604  -0.427  0.00  0.00    +0.005 C 
ATOM     32  C   UNL     1       2.405   4.223   0.422  0.00  0.00    +0.005 C 
ATOM     33  C   UNL     1       1.076   3.601  -0.002  0.00  0.00    +0.035 C 
ENDBRANCH  23  24
ENDBRANCH  18  23
ENDBRANCH   1  19
TORSDOF 5
