REMARK  Name = ZINC12465556
REMARK  9 active torsions:
REMARK  status: ('A' for Active; 'I' for Inactive)
REMARK    1  A    between atoms: C_1  and  C_2
REMARK    2  A    between atoms: C_2  and  O_3
REMARK    3  A    between atoms: O_3  and  C_4
REMARK    4  A    between atoms: C_7  and  C_9
REMARK    5  A    between atoms: C_13  and  N_14
REMARK    6  A    between atoms: C_15  and  C_17
REMARK    7  A    between atoms: N_22  and  S_23
REMARK    8  A    between atoms: S_23  and  C_26
REMARK    9  A    between atoms: C_32  and  C_36
REMARK                            x       y       z     vdW  Elec       q    Type
REMARK                         _______ _______ _______ _____ _____    ______ ____
ROOT
ATOM      1  C   UNL     1      -1.183   4.321   3.151  0.00  0.00    +0.069 A 
ATOM      2  C   UNL     1      -1.119   3.270   2.149  0.00  0.00    -0.023 A 
ATOM      3  C   UNL     1      -1.465   3.646   0.899  0.00  0.00    -0.004 A 
ATOM      4  S   UNL     1      -1.870   5.363   1.037  0.00  0.00    -0.077 S 
ATOM      5  C   UNL     1      -1.585   5.582   2.732  0.00  0.00    +0.084 A 
ATOM      6  C   UNL     1      -1.494   2.785  -0.327  0.00  0.00    +0.046 C 
ATOM      7  C   UNL     1      -1.433   1.315   0.113  0.00  0.00    -0.009 C 
ATOM      8  C   UNL     1      -0.307   1.154   1.138  0.00  0.00    +0.008 C 
ATOM      9  C   UNL     1      -0.698   1.837   2.450  0.00  0.00    +0.037 C 
ATOM     10  C   UNL     1      -1.151   0.428  -1.102  0.00  0.00    +0.008 C 
ENDROOT
BRANCH   1  14
ATOM     11  C   UNL     1       0.752   3.978   6.259  0.00  0.00    +0.407 C 
ATOM     12  O   UNL     1      -0.105   3.618   7.039  0.00  0.00    -0.226 OA
ATOM     13  N   UNL     1       0.434   4.219   4.971  0.00  0.00    -0.217 N 
ATOM     14  C   UNL     1      -0.837   4.059   4.550  0.00  0.00    +0.255 C 
ATOM     15  O   UNL     1      -1.696   3.698   5.332  0.00  0.00    -0.270 OA
ATOM     16  H   UNL     1       1.119   4.507   4.348  0.00  0.00    +0.161 HD
BRANCH  11  17
ATOM     17  O   UNL     1       2.021   4.138   6.679  0.00  0.00    -0.450 OA
BRANCH  17  19
ATOM     18  C   UNL     1       3.775   4.095   8.367  0.00  0.00    +0.048 C 
ATOM     19  C   UNL     1       2.291   3.861   8.079  0.00  0.00    +0.230 C 
ENDBRANCH  17  19
ENDBRANCH  11  17
ENDBRANCH   1  14
BRANCH   5  20
ATOM     20  N   UNL     1      -1.725   6.737   3.487  0.00  0.00    -0.278 N 
ATOM     21  C   UNL     1      -2.132   7.880   2.901  0.00  0.00    +0.236 C 
ATOM     22  O   UNL     1      -2.376   7.899   1.713  0.00  0.00    -0.274 OA
ATOM     23  H   UNL     1      -1.530   6.721   4.437  0.00  0.00    +0.155 HD
BRANCH  21  24
ATOM     24  C   UNL     1      -2.284   9.135   3.721  0.00  0.00    +0.166 C 
ATOM     25  C   UNL     1      -3.742   9.277   4.224  0.00  0.00    +0.031 C 
ATOM     26  C   UNL     1      -3.846  10.809   4.450  0.00  0.00    +0.019 C 
ATOM     27  C   UNL     1      -2.983  11.386   3.308  0.00  0.00    +0.110 C 
ATOM     28  N   UNL     1      -2.053  10.326   2.884  0.00  0.00    -0.164 NA
BRANCH  28  29
ATOM     29  S   UNL     1      -0.934  10.450   1.670  0.00  0.00    +0.068 S 
ATOM     30  O   UNL     1      -0.511  11.807   1.644  0.00  0.00    -0.152 OA
ATOM     31  O   UNL     1      -0.025   9.372   1.843  0.00  0.00    -0.152 OA
BRANCH  29  32
ATOM     32  C   UNL     1      -1.778  10.158   0.151  0.00  0.00    +0.143 A 
ATOM     33  C   UNL     1      -2.506  11.020  -0.601  0.00  0.00    +0.036 A 
ATOM     34  C   UNL     1      -3.085  10.564  -1.770  0.00  0.00    +0.010 A 
ATOM     35  C   UNL     1      -2.909   9.270  -2.131  0.00  0.00    +0.047 A 
ATOM     36  S   UNL     1      -1.892   8.651  -0.800  0.00  0.00    -0.077 S 
ENDBRANCH  29  32
ENDBRANCH  28  29
ENDBRANCH  21  24
ENDBRANCH   5  20
TORSDOF 7
