REMARK  Name = ZINC49115918
REMARK  10 active torsions:
REMARK  status: ('A' for Active; 'I' for Inactive)
REMARK    1  A    between atoms: C_1  and  C_2
REMARK    2  A    between atoms: C_2  and  C_3
REMARK    3  A    between atoms: C_6  and  N_18
REMARK    4  A    between atoms: C_14  and  C_17
REMARK    5  A    between atoms: C_21  and  C_25
REMARK    6  A    between atoms: N_26  and  C_28
REMARK    7  A    between atoms: C_28  and  C_29
REMARK    8  A    between atoms: C_29  and  O_30
REMARK    9  A    between atoms: O_30  and  C_31
REMARK   10  A    between atoms: C_31  and  C_32
REMARK                            x       y       z     vdW  Elec       q    Type
REMARK                         _______ _______ _______ _____ _____    ______ ____
ROOT
ATOM      1  C   UNL     1       0.833  -0.054   1.327  0.00  0.00    +0.089 A 
ATOM      2  C   UNL     1       2.241  -0.071   1.423  0.00  0.00    +0.119 A 
ATOM      3  C   UNL     1       2.561  -0.759   2.607  0.00  0.00    +0.128 A 
ATOM      4  C   UNL     1       3.912  -0.920   2.943  0.00  0.00    +0.155 A 
ATOM      5  N   UNL     1       4.834  -0.416   2.131  0.00  0.00    -0.197 NA
ATOM      6  C   UNL     1       4.494   0.228   1.020  0.00  0.00    +0.220 A 
ATOM      7  N   UNL     1       3.236   0.404   0.663  0.00  0.00    -0.211 NA
ATOM      8  N   UNL     1       5.497   0.735   0.208  0.00  0.00    -0.303 N 
ATOM      9  C   UNL     1       5.175   1.567  -0.961  0.00  0.00    +0.089 C 
ATOM     10  C   UNL     1       5.918   1.004  -2.177  0.00  0.00    -0.063 C 
ATOM     11  N   UNL     1       7.352   0.913  -1.874  0.00  0.00    +0.383 N 
ATOM     12  C   UNL     1       7.574  -0.055  -0.793  0.00  0.00    -0.057 C 
ATOM     13  C   UNL     1       6.914   0.460   0.495  0.00  0.00    +0.092 C 
ATOM     14  C   UNL     1       9.077  -0.224  -0.560  0.00  0.00    -0.012 C 
ATOM     15  N   UNL     1       1.373  -1.131   3.181  0.00  0.00    -0.256 N 
ATOM     16  N   UNL     1       0.334  -0.671   2.361  0.00  0.00    -0.173 NA
ATOM     17  H   UNL     1       7.851   0.615  -2.699  0.00  0.00    -0.085 HD
ATOM     18  H   UNL     1       7.692   1.819  -1.588  0.00  0.00    -0.085 HD
ENDROOT
BRANCH   4  19
ATOM     19  N   UNL     1       4.278  -1.590   4.099  0.00  0.00    -0.283 N 
ATOM     20  C   UNL     1       5.620  -1.860   4.351  0.00  0.00    +0.124 A 
ATOM     21  C   UNL     1       6.535  -1.844   3.304  0.00  0.00    +0.047 A 
ATOM     22  C   UNL     1       7.866  -2.115   3.569  0.00  0.00    -0.046 A 
ATOM     23  C   UNL     1       8.237  -2.394   4.877  0.00  0.00    +0.023 A 
ATOM     24  C   UNL     1       7.276  -2.392   5.868  0.00  0.00    +0.113 A 
ATOM     25  N   UNL     1       6.015  -2.125   5.587  0.00  0.00    -0.240 NA
ATOM     26  C   UNL     1       8.888  -2.108   2.462  0.00  0.00    +0.044 C 
ATOM     27  H   UNL     1       3.600  -1.870   4.733  0.00  0.00    +0.155 HD
ENDBRANCH   4  19
BRANCH   1  29
ATOM     28  C   UNL     1      -0.261   2.037   0.566  0.00  0.00    +0.010 C 
ATOM     29  C   UNL     1       0.037   0.578   0.214  0.00  0.00    +0.056 C 
ENDBRANCH   1  29
BRANCH  15  30
ATOM     30  C   UNL     1       1.218  -1.873   4.434  0.00  0.00    +0.172 C 
BRANCH  30  31
ATOM     31  C   UNL     1       1.086  -0.888   5.598  0.00  0.00    +0.183 C 
BRANCH  31  32
ATOM     32  O   UNL     1       0.935  -1.613   6.820  0.00  0.00    -0.378 OA
BRANCH  32  33
ATOM     33  C   UNL     1       0.803  -0.782   7.975  0.00  0.00    +0.156 C 
ATOM     34  C   UNL     1       0.648  -1.659   9.219  0.00  0.00    +0.034 C 
ENDBRANCH  32  33
ENDBRANCH  31  32
ENDBRANCH  30  31
ENDBRANCH  15  30
TORSDOF 6
