REMARK  Name = ZINC67225626
REMARK  8 active torsions:
REMARK  status: ('A' for Active; 'I' for Inactive)
REMARK    1  A    between atoms: C_4  and  N_11
REMARK    2  A    between atoms: C_6  and  C_7
REMARK    3  A    between atoms: C_12  and  C_14
REMARK    4  A    between atoms: C_14  and  S_15
REMARK    5  A    between atoms: S_15  and  C_16
REMARK    6  A    between atoms: C_18  and  N_22
REMARK    7  A    between atoms: C_25  and  C_27
REMARK    8  A    between atoms: N_29  and  C_30
REMARK                            x       y       z     vdW  Elec       q    Type
REMARK                         _______ _______ _______ _____ _____    ______ ____
ROOT
ATOM      1  C   UNL     1       6.273  -5.208   0.371  0.00  0.00    +0.103 A 
ATOM      2  C   UNL     1       6.442  -6.590   0.468  0.00  0.00    +0.083 A 
ATOM      3  C   UNL     1       7.734  -7.090   0.547  0.00  0.00    +0.158 A 
ATOM      4  N   UNL     1       8.759  -6.241   0.530  0.00  0.00    -0.217 NA
ATOM      5  C   UNL     1       8.560  -4.942   0.438  0.00  0.00    +0.224 A 
ATOM      6  N   UNL     1       7.351  -4.427   0.354  0.00  0.00    -0.229 NA
ENDROOT
BRANCH   3   7
ATOM      7  N   UNL     1       7.956  -8.466   0.646  0.00  0.00    -0.221 N 
ATOM      8  C   UNL     1       9.178  -9.054   0.734  0.00  0.00    +0.117 A 
ATOM      9  C   UNL     1       8.973 -10.389   0.812  0.00  0.00    +0.054 A 
ATOM     10  C   UNL     1       7.569 -10.561   0.765  0.00  0.00    +0.147 A 
ATOM     11  N   UNL     1       7.034  -9.360   0.671  0.00  0.00    -0.160 NA
BRANCH  10  12
ATOM     12  C   UNL     1       6.840 -11.845   0.818  0.00  0.00    +0.264 C 
ATOM     13  O   UNL     1       7.455 -12.889   0.911  0.00  0.00    -0.268 OA
ATOM     14  N   UNL     1       5.493 -11.857   0.764  0.00  0.00    -0.307 N 
ATOM     15  H   UNL     1       5.003 -11.024   0.690  0.00  0.00    +0.149 HD
BRANCH  14  16
ATOM     16  C   UNL     1       4.770 -13.131   0.816  0.00  0.00    +0.073 C 
ATOM     17  C   UNL     1       3.607 -13.323  -0.158  0.00  0.00    +0.024 C 
ATOM     18  C   UNL     1       3.330 -13.104   1.331  0.00  0.00    +0.024 C 
ENDBRANCH  14  16
ENDBRANCH  10  12
ENDBRANCH   3   7
BRANCH   1  19
ATOM     19  S   UNL     1       4.659  -4.509   0.267  0.00  0.00    -0.096 S 
BRANCH  19  20
ATOM     20  C   UNL     1       4.961  -2.724   0.153  0.00  0.00    +0.171 C 
BRANCH  20  22
ATOM     21  N   UNL     1       3.622  -0.653  -0.037  0.00  0.00    -0.284 N 
ATOM     22  C   UNL     1       3.644  -1.998   0.057  0.00  0.00    +0.227 C 
ATOM     23  O   UNL     1       2.605  -2.622   0.065  0.00  0.00    -0.275 OA
ATOM     24  H   UNL     1       4.452  -0.159  -0.124  0.00  0.00    +0.155 HD
BRANCH  21  28
ATOM     25  C   UNL     1      -0.015   1.380   0.043  0.00  0.00    +0.014 A 
ATOM     26  C   UNL     1       1.083   1.955  -0.572  0.00  0.00    +0.022 A 
ATOM     27  C   UNL     1       2.290   1.284  -0.600  0.00  0.00    +0.062 A 
ATOM     28  C   UNL     1       2.400   0.030  -0.010  0.00  0.00    +0.052 A 
ATOM     29  C   UNL     1       1.296  -0.543   0.606  0.00  0.00    +0.037 A 
ATOM     30  C   UNL     1       0.092   0.133   0.631  0.00  0.00    +0.057 A 
ATOM     31 CL   UNL     1       3.667   2.005  -1.373  0.00  0.00    -0.082 Cl
BRANCH  30  32
ATOM     32  C   UNL     1      -1.107  -0.489   1.299  0.00  0.00    +0.417 C 
ATOM     33  F   UNL     1      -2.200   0.378   1.196  0.00  0.00    -0.166 F 
ATOM     34  F   UNL     1      -1.413  -1.702   0.673  0.00  0.00    -0.166 F 
ATOM     35  F   UNL     1      -0.820  -0.720   2.649  0.00  0.00    -0.166 F 
ENDBRANCH  30  32
ENDBRANCH  21  28
ENDBRANCH  20  22
ENDBRANCH  19  20
ENDBRANCH   1  19
TORSDOF 8
