REMARK  Name = ZINC34875455
REMARK  7 active torsions:
REMARK  status: ('A' for Active; 'I' for Inactive)
REMARK    1  A    between atoms: C_4  and  C_7
REMARK    2  A    between atoms: C_7  and  N_8
REMARK    3  A    between atoms: C_17  and  C_19
REMARK    4  A    between atoms: N_21  and  C_22
REMARK    5  A    between atoms: C_22  and  C_23
REMARK    6  A    between atoms: C_25  and  N_30
REMARK    7  A    between atoms: C_28  and  O_29
REMARK                            x       y       z     vdW  Elec       q    Type
REMARK                         _______ _______ _______ _____ _____    ______ ____
ROOT
ATOM      1  N   UNL     1       4.152  -0.952   1.338  0.00  0.00    -0.224 N 
ATOM      2  C   UNL     1       3.768  -2.099   1.936  0.00  0.00    +0.275 A 
ATOM      3  O   UNL     1       3.074  -2.907   1.347  0.00  0.00    -0.266 OA
ATOM      4  C   UNL     1       4.208  -2.350   3.316  0.00  0.00    +0.050 A 
ATOM      5  C   UNL     1       3.867  -3.500   4.020  0.00  0.00    +0.014 A 
ATOM      6  C   UNL     1       4.320  -3.660   5.313  0.00  0.00    +0.001 A 
ATOM      7  C   UNL     1       5.109  -2.688   5.913  0.00  0.00    +0.001 A 
ATOM      8  C   UNL     1       5.458  -1.541   5.232  0.00  0.00    +0.011 A 
ATOM      9  C   UNL     1       5.012  -1.360   3.927  0.00  0.00    +0.020 A 
ATOM     10  C   UNL     1       5.339  -0.166   3.131  0.00  0.00    +0.154 A 
ATOM     11  N   UNL     1       4.884  -0.070   1.905  0.00  0.00    -0.163 NA
ENDROOT
BRANCH  10  12
ATOM     12  C   UNL     1       6.174   0.908   3.704  0.00  0.00    +0.265 C 
ATOM     13  O   UNL     1       6.596   0.809   4.840  0.00  0.00    -0.268 OA
ATOM     14  N   UNL     1       6.469   1.998   2.968  0.00  0.00    -0.306 N 
ATOM     15  H   UNL     1       6.132   2.077   2.062  0.00  0.00    +0.149 HD
BRANCH  14  16
ATOM     16  C   UNL     1       7.297   3.064   3.537  0.00  0.00    +0.143 C 
BRANCH  16  17
ATOM     17  C   UNL     1       7.476   4.159   2.517  0.00  0.00    +0.013 A 
ATOM     18  C   UNL     1       6.786   5.349   2.652  0.00  0.00    +0.041 A 
ATOM     19  C   UNL     1       6.949   6.354   1.718  0.00  0.00    +0.127 A 
ATOM     20  C   UNL     1       7.803   6.172   0.645  0.00  0.00    +0.036 A 
ATOM     21  C   UNL     1       8.495   4.985   0.506  0.00  0.00    +0.048 A 
ATOM     22  C   UNL     1       8.338   3.977   1.446  0.00  0.00    +0.122 A 
BRANCH  19  23
ATOM     23  N   UNL     1       6.209   7.627   1.864  0.00  0.00    +0.056 N 
ATOM     24  O   UNL     1       5.462   7.787   2.801  0.00  0.00    -0.126 OA
ATOM     25  O   UNL     1       6.351   8.507   1.048  0.00  0.00    -0.126 OA
ENDBRANCH  19  23
BRANCH  22  26
ATOM     26  O   UNL     1       9.021   2.809   1.314  0.00  0.00    -0.506 OA
ATOM     27  H   UNL     1       8.555   2.137   0.799  0.00  0.00    +0.292 HD
ENDBRANCH  22  26
ENDBRANCH  16  17
ENDBRANCH  14  16
ENDBRANCH  10  12
BRANCH   1  28
ATOM     28  C   UNL     1       3.711  -0.707  -0.038  0.00  0.00    +0.182 C 
BRANCH  28  32
ATOM     29  C   UNL     1      -0.017   1.378   0.010  0.00  0.00    +0.000 A 
ATOM     30  C   UNL     1       1.171   2.086   0.002  0.00  0.00    +0.000 A 
ATOM     31  C   UNL     1       2.377   1.411  -0.013  0.00  0.00    +0.005 A 
ATOM     32  C   UNL     1       2.396   0.029  -0.020  0.00  0.00    -0.026 A 
ATOM     33  C   UNL     1       1.208  -0.679  -0.012  0.00  0.00    +0.005 A 
ATOM     34  C   UNL     1       0.002  -0.004   0.002  0.00  0.00    +0.000 A 
ENDBRANCH  28  32
ENDBRANCH   1  28
TORSDOF 7
