REMARK  Name = ZINC28467102
REMARK  8 active torsions:
REMARK  status: ('A' for Active; 'I' for Inactive)
REMARK    1  A    between atoms: C_1  and  O_2
REMARK    2  A    between atoms: O_2  and  C_3
REMARK    3  A    between atoms: C_6  and  C_9
REMARK    4  A    between atoms: C_9  and  C_11
REMARK    5  A    between atoms: C_13  and  C_25
REMARK    6  A    between atoms: C_19  and  C_20
REMARK    7  A    between atoms: C_19  and  O_24
REMARK    8  A    between atoms: C_28  and  C_31
REMARK                            x       y       z     vdW  Elec       q    Type
REMARK                         _______ _______ _______ _____ _____    ______ ____
ROOT
ATOM      1  C   UNL     1       1.323  -2.777   1.482  0.00  0.00    +0.144 C 
ATOM      2  C   UNL     1       0.695  -2.167   0.224  0.00  0.00    +0.117 C 
ATOM      3  N   UNL     1       1.665  -2.222  -0.871  0.00  0.00    -0.319 N 
ATOM      4  C   UNL     1       2.598  -3.184  -0.929  0.00  0.00    +0.133 C 
ATOM      5  S   UNL     1       3.689  -3.192  -2.248  0.00  0.00    -0.019 S 
ATOM      6  N   UNL     1       2.711  -4.139   0.006  0.00  0.00    -0.291 N 
ATOM      7  C   UNL     1       1.801  -4.194   1.151  0.00  0.00    +0.241 C 
ATOM      8  H   UNL     1       1.637  -1.465  -1.669  0.00  0.00    +0.148 HD
ATOM      9  H   UNL     1       3.507  -4.891  -0.101  0.00  0.00    +0.151 HD
ENDROOT
BRANCH   2  10
ATOM     10  C   UNL     1       0.320  -0.733   0.493  0.00  0.00    -0.026 A 
ATOM     11  C   UNL     1      -0.967  -0.421   0.895  0.00  0.00    +0.007 A 
ATOM     12  C   UNL     1      -1.317   0.889   1.143  0.00  0.00    +0.019 A 
ATOM     13  C   UNL     1      -0.370   1.903   0.987  0.00  0.00    +0.052 A 
ATOM     14  C   UNL     1       0.926   1.582   0.580  0.00  0.00    +0.019 A 
ATOM     15  C   UNL     1       1.263   0.267   0.336  0.00  0.00    +0.007 A 
BRANCH  13  16
ATOM     16  C   UNL     1      -0.727   3.267   1.243  0.00  0.00    +0.099 C 
ATOM     17  N   UNL     1      -1.010   4.348   1.446  0.00  0.00    -0.191 NA
ENDBRANCH  13  16
ENDBRANCH   2  10
BRANCH   7  18
ATOM     18  C   UNL     1       2.535  -4.781   2.359  0.00  0.00    +0.436 C 
ATOM     19  F   UNL     1       3.706  -4.052   2.593  0.00  0.00    -0.166 F 
ATOM     20  F   UNL     1       1.708  -4.710   3.486  0.00  0.00    -0.166 F 
ATOM     21  F   UNL     1       2.860  -6.117   2.103  0.00  0.00    -0.166 F 
ENDBRANCH   7  18
BRANCH   1  22
ATOM     22  C   UNL     1       2.495  -1.937   1.921  0.00  0.00    +0.173 C 
ATOM     23  O   UNL     1       3.457  -1.812   1.193  0.00  0.00    -0.292 OA
BRANCH  22  27
ATOM     24  C   UNL     1       2.429  -0.015   5.694  0.00  0.00    +0.120 A 
ATOM     25  C   UNL     1       3.579   0.030   4.914  0.00  0.00    +0.046 A 
ATOM     26  C   UNL     1       3.606  -0.591   3.691  0.00  0.00    +0.015 A 
ATOM     27  C   UNL     1       2.472  -1.271   3.229  0.00  0.00    +0.018 A 
ATOM     28  C   UNL     1       1.315  -1.309   4.017  0.00  0.00    +0.015 A 
ATOM     29  C   UNL     1       1.300  -0.690   5.240  0.00  0.00    +0.046 A 
BRANCH  24  31
ATOM     30  C   UNL     1       1.194   0.516   7.653  0.00  0.00    +0.277 C 
ATOM     31  O   UNL     1       2.407   0.601   6.903  0.00  0.00    -0.495 OA
ENDBRANCH  24  31
ENDBRANCH  22  27
ENDBRANCH   1  22
BRANCH   7  32
ATOM     32  O   UNL     1       0.677  -5.015   0.829  0.00  0.00    -0.364 OA
ATOM     33  H   UNL     1       0.826  -6.072   0.562  0.00  0.00    +0.212 HD
ENDBRANCH   7  32
TORSDOF 7
