REMARK  Name = ZINC39918806
REMARK  8 active torsions:
REMARK  status: ('A' for Active; 'I' for Inactive)
REMARK    1  A    between atoms: C_1  and  C_2
REMARK    2  A    between atoms: C_2  and  O_3
REMARK    3  A    between atoms: O_3  and  C_4
REMARK    4  A    between atoms: C_4  and  C_6
REMARK    5  A    between atoms: C_7  and  N_36
REMARK    6  A    between atoms: C_11  and  C_35
REMARK    7  A    between atoms: N_24  and  C_27
REMARK    8  A    between atoms: C_27  and  C_28
REMARK                            x       y       z     vdW  Elec       q    Type
REMARK                         _______ _______ _______ _____ _____    ______ ____
ROOT
ATOM      1  C   UNL     1       1.464  -2.349   2.422  0.00  0.00    +0.114 C 
ATOM      2  C   UNL     1       1.477  -3.694   2.589  0.00  0.00    +0.195 C 
ATOM      3  O   UNL     1       2.116  -4.289   3.619  0.00  0.00    -0.445 OA
ATOM      4  C   UNL     1       2.551  -3.486   4.616  0.00  0.00    +0.122 C 
ATOM      5  C   UNL     1       2.440  -3.856   5.904  0.00  0.00    +0.063 C 
ATOM      6  C   UNL     1       2.860  -3.009   6.934  0.00  0.00    +0.034 C 
ATOM      7  N   UNL     1       3.365  -1.823   6.676  0.00  0.00    -0.185 NA
ATOM      8  C   UNL     1       3.519  -1.363   5.442  0.00  0.00    +0.248 C 
ATOM      9  O   UNL     1       3.968  -0.244   5.291  0.00  0.00    -0.273 OA
ATOM     10  C   UNL     1       3.163  -2.162   4.226  0.00  0.00    +0.167 C 
ATOM     11  C   UNL     1       2.143  -1.409   3.374  0.00  0.00    +0.128 C 
ATOM     12  C   UNL     1       2.791  -0.275   2.644  0.00  0.00    -0.005 A 
ATOM     13  C   UNL     1       3.792  -0.252   1.696  0.00  0.00    +0.007 A 
ATOM     14  C   UNL     1       4.171   0.994   1.210  0.00  0.00    +0.000 A 
ATOM     15  C   UNL     1       3.570   2.153   1.656  0.00  0.00    +0.002 A 
ATOM     16  C   UNL     1       2.563   2.138   2.608  0.00  0.00    +0.024 A 
ATOM     17  C   UNL     1       2.173   0.894   3.106  0.00  0.00    +0.041 A 
ATOM     18  N   UNL     1       1.208   0.587   4.049  0.00  0.00    -0.266 N 
ATOM     19  C   UNL     1       1.121  -0.742   4.270  0.00  0.00    +0.237 C 
ATOM     20  O   UNL     1       0.366  -1.296   5.040  0.00  0.00    -0.274 OA
ATOM     21  C   UNL     1       2.730  -3.462   8.366  0.00  0.00    +0.063 C 
ENDROOT
BRANCH   2  22
ATOM     22  N   UNL     1       0.817  -4.478   1.681  0.00  0.00    -0.329 N 
ATOM     23  H   UNL     1       0.416  -4.076   0.894  0.00  0.00    +0.145 HD
ATOM     24  H   UNL     1       0.750  -5.435   1.825  0.00  0.00    +0.145 HD
ENDBRANCH   2  22
BRANCH   1  25
ATOM     25  C   UNL     1       0.793  -1.815   1.310  0.00  0.00    +0.341 C 
ATOM     26  O   UNL     1      -0.318  -1.333   1.443  0.00  0.00    -0.245 OA
BRANCH  25  27
ATOM     27  O   UNL     1       1.379  -1.836   0.094  0.00  0.00    -0.462 OA
BRANCH  27  29
ATOM     28  C   UNL     1       1.459  -1.389  -2.280  0.00  0.00    +0.048 C 
ATOM     29  C   UNL     1       0.639  -1.275  -0.993  0.00  0.00    +0.229 C 
ENDBRANCH  27  29
ENDBRANCH  25  27
ENDBRANCH   1  25
BRANCH  18  30
ATOM     30  C   UNL     1       0.380   1.586   4.728  0.00  0.00    +0.149 C 
BRANCH  30  31
ATOM     31  C   UNL     1      -0.878   1.821   3.930  0.00  0.00    -0.027 A 
ATOM     32  C   UNL     1      -0.902   2.796   2.950  0.00  0.00    +0.005 A 
ATOM     33  C   UNL     1      -2.055   3.013   2.219  0.00  0.00    +0.003 A 
ATOM     34  C   UNL     1      -3.184   2.256   2.466  0.00  0.00    +0.038 A 
ATOM     35  C   UNL     1      -3.160   1.279   3.447  0.00  0.00    +0.124 A 
ATOM     36  C   UNL     1      -2.003   1.059   4.176  0.00  0.00    +0.043 A 
ATOM     37  F   UNL     1      -4.264   0.538   3.690  0.00  0.00    -0.205 F 
ENDBRANCH  30  31
ENDBRANCH  18  30
TORSDOF 6
