REMARK  Name = ZINC20532574
REMARK  9 active torsions:
REMARK  status: ('A' for Active; 'I' for Inactive)
REMARK    1  A    between atoms: C_1  and  C_2
REMARK    2  A    between atoms: C_5  and  S_8
REMARK    3  A    between atoms: S_8  and  N_11
REMARK    4  A    between atoms: N_15  and  C_27
REMARK    5  A    between atoms: C_16  and  C_18
REMARK    6  A    between atoms: C_16  and  C_19
REMARK    7  A    between atoms: N_21  and  C_22
REMARK    8  A    between atoms: C_30  and  C_33
REMARK    9  A    between atoms: C_33  and  C_35
REMARK                            x       y       z     vdW  Elec       q    Type
REMARK                         _______ _______ _______ _____ _____    ______ ____
ROOT
ATOM      1  N   UNL     1      -1.616  -5.489  -0.375  0.00  0.00    -0.165 NA
ATOM      2  C   UNL     1      -2.407  -5.226  -1.586  0.00  0.00    +0.205 C 
ATOM      3  C   UNL     1      -3.635  -4.446  -1.206  0.00  0.00    +0.236 C 
ATOM      4  O   UNL     1      -4.291  -3.933  -2.087  0.00  0.00    -0.274 OA
ATOM      5  N   UNL     1      -4.036  -4.291   0.057  0.00  0.00    -0.255 N 
ATOM      6  C   UNL     1      -3.304  -4.770   1.222  0.00  0.00    +0.129 C 
ATOM      7  C   UNL     1      -2.348  -5.906   0.833  0.00  0.00    +0.145 C 
ATOM      8  C   UNL     1      -2.499  -3.615   1.821  0.00  0.00    +0.043 C 
ENDROOT
BRANCH   5   9
ATOM      9  C   UNL     1      -5.240  -3.625   0.278  0.00  0.00    +0.037 A 
ATOM     10  C   UNL     1      -6.435  -4.190  -0.157  0.00  0.00    +0.024 A 
ATOM     11  C   UNL     1      -7.623  -3.541   0.062  0.00  0.00    +0.013 A 
ATOM     12  C   UNL     1      -7.630  -2.302   0.716  0.00  0.00    +0.017 A 
ATOM     13  C   UNL     1      -6.425  -1.735   1.147  0.00  0.00    +0.013 A 
ATOM     14  C   UNL     1      -5.243  -2.394   0.928  0.00  0.00    +0.024 A 
BRANCH  12  15
ATOM     15  C   UNL     1      -8.899  -1.600   0.948  0.00  0.00    +0.160 C 
ATOM     16  O   UNL     1      -8.896  -0.482   1.419  0.00  0.00    -0.292 OA
ATOM     17  C   UNL     1     -10.205  -2.268   0.601  0.00  0.00    +0.091 C 
ENDBRANCH  12  15
ENDBRANCH   5   9
BRANCH   6  18
ATOM     18  C   UNL     1      -4.283  -5.278   2.249  0.00  0.00    +0.238 C 
ATOM     19  O   UNL     1      -4.088  -5.069   3.427  0.00  0.00    -0.273 OA
ATOM     20  N   UNL     1      -5.374  -5.965   1.858  0.00  0.00    -0.311 N 
ATOM     21  H   UNL     1      -5.511  -6.223   0.797  0.00  0.00    +0.149 HD
BRANCH  20  22
ATOM     22  C   UNL     1      -6.380  -6.366   2.845  0.00  0.00    +0.073 C 
ATOM     23  C   UNL     1      -5.944  -7.672   3.541  0.00  0.00    +0.022 C 
ATOM     24  C   UNL     1      -7.266  -8.456   3.739  0.00  0.00    +0.002 C 
ATOM     25  C   UNL     1      -8.046  -8.144   2.438  0.00  0.00    +0.002 C 
ATOM     26  C   UNL     1      -7.716  -6.666   2.144  0.00  0.00    +0.022 C 
ENDBRANCH  20  22
ENDBRANCH   6  18
BRANCH   1  27
ATOM     27  S   UNL     1       0.033  -5.329  -0.371  0.00  0.00    +0.061 S 
ATOM     28  O   UNL     1       0.459  -5.484  -1.718  0.00  0.00    -0.153 OA
ATOM     29  O   UNL     1       0.518  -6.152   0.681  0.00  0.00    -0.153 OA
BRANCH  27  34
ATOM     30  C   UNL     1       1.270   0.368   1.184  0.00  0.00    +0.044 C 
ATOM     31  C   UNL     1       0.961  -1.055   0.795  0.00  0.00    -0.050 A 
ATOM     32  C   UNL     1       0.786  -1.386  -0.535  0.00  0.00    +0.005 A 
ATOM     33  C   UNL     1       0.507  -2.692  -0.892  0.00  0.00    +0.029 A 
ATOM     34  C   UNL     1       0.394  -3.665   0.083  0.00  0.00    +0.106 A 
ATOM     35  C   UNL     1       0.564  -3.333   1.414  0.00  0.00    +0.029 A 
ATOM     36  C   UNL     1       0.847  -2.028   1.770  0.00  0.00    +0.005 A 
ENDBRANCH  27  34
ENDBRANCH   1  27
TORSDOF 6
