REMARK  Name = ZINC23562628
REMARK  12 active torsions:
REMARK  status: ('A' for Active; 'I' for Inactive)
REMARK    1  A    between atoms: C_1  and  C_2
REMARK    2  A    between atoms: C_6  and  C_36
REMARK    3  A    between atoms: C_7  and  N_8
REMARK    4  A    between atoms: C_9  and  C_11
REMARK    5  A    between atoms: C_11  and  N_12
REMARK    6  A    between atoms: C_13  and  C_15
REMARK    7  A    between atoms: C_15  and  C_17
REMARK    8  A    between atoms: C_15  and  S_18
REMARK    9  A    between atoms: S_18  and  C_19
REMARK   10  A    between atoms: C_22  and  C_31
REMARK   11  A    between atoms: N_23  and  C_24
REMARK   12  A    between atoms: C_24  and  C_25
REMARK                            x       y       z     vdW  Elec       q    Type
REMARK                         _______ _______ _______ _____ _____    ______ ____
ROOT
ATOM      1  C   UNL     1      -3.331  -2.932  -2.689  0.00  0.00    +0.137 C 
ATOM      2  C   UNL     1      -1.900  -2.665  -3.162  0.00  0.00    +0.029 C 
ENDROOT
BRANCH   1   4
ATOM      3  N   UNL     1      -4.663  -3.090  -4.767  0.00  0.00    -0.306 N 
ATOM      4  C   UNL     1      -4.304  -2.365  -3.689  0.00  0.00    +0.227 C 
ATOM      5  O   UNL     1      -4.766  -1.255  -3.524  0.00  0.00    -0.275 OA
ATOM      6  H   UNL     1      -4.244  -4.096  -4.917  0.00  0.00    +0.149 HD
BRANCH   3   7
ATOM      7  C   UNL     1      -5.609  -2.538  -5.740  0.00  0.00    +0.200 C 
BRANCH   7   9
ATOM      8  N   UNL     1      -6.680  -3.248  -7.854  0.00  0.00    -0.284 N 
ATOM      9  C   UNL     1      -5.840  -3.541  -6.841  0.00  0.00    +0.234 C 
ATOM     10  O   UNL     1      -5.270  -4.611  -6.816  0.00  0.00    -0.274 OA
ATOM     11  H   UNL     1      -7.258  -2.313  -7.836  0.00  0.00    +0.155 HD
BRANCH   8  18
ATOM     12  C   UNL     1      -9.302  -4.075  -8.588  0.00  0.00    +0.045 C 
ATOM     13  C   UNL     1      -8.078  -4.564  -9.319  0.00  0.00    -0.029 A 
ATOM     14  C   UNL     1      -8.211  -5.435 -10.382  0.00  0.00    +0.005 A 
ATOM     15  C   UNL     1      -7.088  -5.888 -11.050  0.00  0.00    +0.001 A 
ATOM     16  C   UNL     1      -5.830  -5.468 -10.659  0.00  0.00    +0.005 A 
ATOM     17  C   UNL     1      -5.691  -4.593  -9.600  0.00  0.00    -0.029 A 
ATOM     18  C   UNL     1      -6.817  -4.135  -8.927  0.00  0.00    +0.039 A 
ATOM     19  C   UNL     1      -4.320  -4.134  -9.175  0.00  0.00    +0.045 C 
ENDBRANCH   8  18
ENDBRANCH   7   9
ENDBRANCH   3   7
ENDBRANCH   1   4
BRANCH   1  20
ATOM     20  S   UNL     1      -3.591  -2.146  -1.080  0.00  0.00    -0.074 S 
BRANCH  20  21
ATOM     21  C   UNL     1      -2.463  -3.077  -0.098  0.00  0.00    +0.193 A 
ATOM     22  N   UNL     1      -1.687  -4.051  -0.515  0.00  0.00    -0.122 NA
ATOM     23  N   UNL     1      -0.995  -4.516   0.462  0.00  0.00    -0.128 NA
ATOM     24  C   UNL     1      -1.282  -3.861   1.566  0.00  0.00    +0.172 A 
ATOM     25  N   UNL     1      -2.229  -2.916   1.240  0.00  0.00    -0.299 N 
BRANCH  24  26
ATOM     26  C   UNL     1      -0.701  -4.095   2.898  0.00  0.00    +0.056 A 
ATOM     27  C   UNL     1       0.016  -5.173   3.352  0.00  0.00    +0.019 A 
ATOM     28  C   UNL     1       0.467  -5.167   4.653  0.00  0.00    +0.008 A 
ATOM     29  C   UNL     1       0.181  -4.103   5.448  0.00  0.00    +0.046 A 
ATOM     30  S   UNL     1      -0.751  -3.052   4.346  0.00  0.00    -0.094 S 
ENDBRANCH  24  26
BRANCH  25  31
ATOM     31  C   UNL     1      -2.859  -1.946   2.139  0.00  0.00    +0.157 C 
BRANCH  31  32
ATOM     32  C   UNL     1      -2.031  -0.660   2.162  0.00  0.00    +0.138 C 
ATOM     33  C   UNL     1      -2.709   0.400   3.066  0.00  0.00    +0.035 C 
ATOM     34  C   UNL     1      -1.489   1.275   3.461  0.00  0.00    +0.031 C 
ATOM     35  C   UNL     1      -0.351   0.235   3.540  0.00  0.00    +0.160 C 
ATOM     36  O   UNL     1      -0.750  -0.902   2.764  0.00  0.00    -0.375 OA
ENDBRANCH  31  32
ENDBRANCH  25  31
ENDBRANCH  20  21
ENDBRANCH   1  20
TORSDOF 9
