REMARK  Name = ZINC09058776
REMARK  7 active torsions:
REMARK  status: ('A' for Active; 'I' for Inactive)
REMARK    1  A    between atoms: C_1  and  C_2
REMARK    2  A    between atoms: C_2  and  N_55
REMARK    3  A    between atoms: C_15  and  C_17
REMARK    4  A    between atoms: C_18  and  O_32
REMARK    5  A    between atoms: C_20  and  O_31
REMARK    6  A    between atoms: N_21  and  C_24
REMARK    7  A    between atoms: C_27  and  C_30
REMARK                            x       y       z     vdW  Elec       q    Type
REMARK                         _______ _______ _______ _____ _____    ______ ____
ROOT
ATOM      1  C   UNL     1       3.524   2.754  -0.496  0.00  0.00    +0.071 A 
ATOM      2  C   UNL     1       3.493   1.467   0.013  0.00  0.00    +0.224 A 
ATOM      3  N   UNL     1       2.350   0.972   0.499  0.00  0.00    -0.161 NA
ATOM      4  C   UNL     1       1.244   1.682   0.495  0.00  0.00    +0.306 A 
ATOM      5  N   UNL     1       1.219   2.952   0.006  0.00  0.00    -0.231 N 
ATOM      6  C   UNL     1       2.343   3.507  -0.493  0.00  0.00    +0.267 A 
ATOM      7  O   UNL     1       2.331   4.645  -0.934  0.00  0.00    -0.267 OA
ENDROOT
BRANCH   1  20
ATOM      8  C   UNL     1       5.735   4.579  -2.910  0.00  0.00    -0.073 C 
ATOM      9  C   UNL     1       5.817   5.926  -2.179  0.00  0.00    +0.019 C 
ATOM     10  C   UNL     1       5.695   5.662  -0.700  0.00  0.00    -0.022 A 
ATOM     11  C   UNL     1       6.013   6.526   0.415  0.00  0.00    +0.003 A 
ATOM     12  C   UNL     1       6.512   7.830   0.496  0.00  0.00    +0.010 A 
ATOM     13  C   UNL     1       6.699   8.347   1.754  0.00  0.00    +0.001 A 
ATOM     14  C   UNL     1       6.410   7.622   2.898  0.00  0.00    +0.002 A 
ATOM     15  C   UNL     1       5.915   6.330   2.848  0.00  0.00    +0.026 A 
ATOM     16  C   UNL     1       5.715   5.779   1.585  0.00  0.00    +0.047 A 
ATOM     17  N   UNL     1       5.251   4.559   1.182  0.00  0.00    -0.359 N 
ATOM     18  H   UNL     1       4.970   3.845   1.775  0.00  0.00    +0.166 HD
ATOM     19  C   UNL     1       5.241   4.497  -0.185  0.00  0.00    +0.011 A 
ATOM     20  C   UNL     1       4.803   3.333  -1.043  0.00  0.00    +0.021 C 
ATOM     21  N   UNL     1       4.553   3.841  -2.414  0.00  0.00    +0.388 N 
ATOM     22  H   UNL     1       3.748   4.479  -2.390  0.00  0.00    -0.080 HD
BRANCH  21  24
ATOM     23  C   UNL     1       3.777   3.279  -4.663  0.00  0.00    -0.017 C 
ATOM     24  C   UNL     1       4.245   2.715  -3.319  0.00  0.00    -0.081 C 
ENDBRANCH  21  24
ENDBRANCH   1  20
BRANCH   5  25
ATOM     25  C   UNL     1       0.024   3.683   0.021  0.00  0.00    +0.054 A 
ATOM     26  C   UNL     1      -0.297   4.470   1.120  0.00  0.00    +0.026 A 
ATOM     27  C   UNL     1      -1.472   5.195   1.129  0.00  0.00    +0.005 A 
ATOM     28  C   UNL     1      -2.335   5.129   0.050  0.00  0.00    -0.050 A 
ATOM     29  C   UNL     1      -2.021   4.342  -1.043  0.00  0.00    +0.005 A 
ATOM     30  C   UNL     1      -0.844   3.620  -1.060  0.00  0.00    +0.026 A 
ATOM     31  C   UNL     1      -3.619   5.917   0.066  0.00  0.00    +0.044 C 
ENDBRANCH   5  25
BRANCH   4  32
ATOM     32  O   UNL     1       0.111   1.142   0.990  0.00  0.00    -0.479 OA
ATOM     33  H   UNL     1       0.167   0.238   1.328  0.00  0.00    +0.295 HD
ENDBRANCH   4  32
BRANCH   2  34
ATOM     34  O   UNL     1       4.618   0.714   0.023  0.00  0.00    -0.492 OA
ATOM     35  H   UNL     1       4.496  -0.169   0.397  0.00  0.00    +0.294 HD
ENDBRANCH   2  34
TORSDOF 5
