REMARK  Name = ZINC39946524
REMARK  8 active torsions:
REMARK  status: ('A' for Active; 'I' for Inactive)
REMARK    1  A    between atoms: C_4  and  C_7
REMARK    2  A    between atoms: C_7  and  C_9
REMARK    3  A    between atoms: C_7  and  O_20
REMARK    4  A    between atoms: C_9  and  C_11
REMARK    5  A    between atoms: O_20  and  C_21
REMARK    6  A    between atoms: C_21  and  C_23
REMARK    7  A    between atoms: C_28  and  C_29
REMARK    8  A    between atoms: C_29  and  C_31
REMARK                            x       y       z     vdW  Elec       q    Type
REMARK                         _______ _______ _______ _____ _____    ______ ____
ROOT
ATOM      1  C   UNL     1       4.296  -0.747   0.015  0.00  0.00    +0.277 C 
ENDROOT
BRANCH   1   5
ATOM      2  C   UNL     1       0.702   1.516   0.466  0.00  0.00    +0.000 A 
ATOM      3  C   UNL     1       1.916   2.165   0.341  0.00  0.00    +0.000 A 
ATOM      4  C   UNL     1       3.079   1.432   0.195  0.00  0.00    +0.008 A 
ATOM      5  C   UNL     1       3.028   0.051   0.175  0.00  0.00    +0.000 A 
ATOM      6  C   UNL     1       1.814  -0.598   0.301  0.00  0.00    +0.008 A 
ATOM      7  C   UNL     1       0.651   0.135   0.446  0.00  0.00    +0.000 A 
ENDBRANCH   1   5
BRANCH   1   8
ATOM      8  C   UNL     1       4.748  -1.249   1.362  0.00  0.00    +0.206 C 
ATOM      9  O   UNL     1       4.595  -2.417   1.658  0.00  0.00    -0.288 OA
BRANCH   8  10
ATOM     10  C   UNL     1       5.348  -0.361   2.280  0.00  0.00    +0.027 C 
ATOM     11  C   UNL     1       5.819  -0.659   3.546  0.00  0.00    +0.006 A 
ATOM     12  C   UNL     1       5.861  -1.855   4.300  0.00  0.00    +0.010 A 
ATOM     13  C   UNL     1       6.392  -1.859   5.544  0.00  0.00    +0.001 A 
ATOM     14  C   UNL     1       6.918  -0.703   6.142  0.00  0.00    +0.002 A 
ATOM     15  C   UNL     1       6.926   0.490   5.508  0.00  0.00    +0.026 A 
ATOM     16  C   UNL     1       6.367   0.581   4.149  0.00  0.00    +0.043 A 
ATOM     17  N   UNL     1       6.248   1.581   3.322  0.00  0.00    -0.380 N 
ATOM     18  C   UNL     1       5.616   1.115   2.084  0.00  0.00    +0.152 C 
ATOM     19  H   UNL     1       6.536   2.491   3.498  0.00  0.00    +0.160 HD
ENDBRANCH   8  10
ENDBRANCH   1   8
BRANCH   1  20
ATOM     20  O   UNL     1       4.053  -1.859  -0.850  0.00  0.00    -0.445 OA
BRANCH  20  21
ATOM     21  C   UNL     1       4.253  -1.663  -2.168  0.00  0.00    +0.341 C 
ATOM     22  O   UNL     1       4.622  -0.579  -2.572  0.00  0.00    -0.245 OA
BRANCH  21  23
ATOM     23  C   UNL     1       4.021  -2.768  -3.122  0.00  0.00    +0.070 A 
ATOM     24  C   UNL     1       3.712  -4.043  -2.656  0.00  0.00    +0.016 A 
ATOM     25  C   UNL     1       3.497  -5.074  -3.553  0.00  0.00    +0.001 A 
ATOM     26  C   UNL     1       3.586  -4.847  -4.915  0.00  0.00    +0.001 A 
ATOM     27  C   UNL     1       3.892  -3.588  -5.396  0.00  0.00    +0.012 A 
ATOM     28  C   UNL     1       4.106  -2.536  -4.509  0.00  0.00    +0.036 A 
BRANCH  28  29
ATOM     29  C   UNL     1       4.426  -1.186  -5.019  0.00  0.00    +0.194 C 
ATOM     30  O   UNL     1       5.543  -0.941  -5.432  0.00  0.00    -0.287 OA
BRANCH  29  31
ATOM     31  C   UNL     1       3.389  -0.135  -5.027  0.00  0.00    +0.022 A 
ATOM     32  C   UNL     1       2.132  -0.385  -4.472  0.00  0.00    +0.013 A 
ATOM     33  C   UNL     1       1.168   0.601  -4.482  0.00  0.00    +0.021 A 
ATOM     34  C   UNL     1       1.445   1.838  -5.041  0.00  0.00    +0.041 A 
ATOM     35  C   UNL     1       2.690   2.093  -5.593  0.00  0.00    +0.021 A 
ATOM     36  C   UNL     1       3.664   1.117  -5.584  0.00  0.00    +0.013 A 
ATOM     37 CL   UNL     1       0.226   3.074  -5.050  0.00  0.00    -0.084 Cl
ENDBRANCH  29  31
ENDBRANCH  28  29
ENDBRANCH  21  23
ENDBRANCH  20  21
ENDBRANCH   1  20
TORSDOF 8
