REMARK  Name = ZINC13405650
REMARK  17 active torsions:
REMARK  status: ('A' for Active; 'I' for Inactive)
REMARK    1  A    between atoms: C_1  and  C_2
REMARK    2  A    between atoms: C_6  and  C_46
REMARK    3  A    between atoms: C_8  and  O_11
REMARK    4  A    between atoms: O_11  and  C_12
REMARK    5  A    between atoms: C_12  and  C_14
REMARK    6  A    between atoms: C_16  and  C_45
REMARK    7  A    between atoms: C_18  and  C_29
REMARK    8  A    between atoms: N_21  and  N_22
REMARK    9  A    between atoms: C_27  and  C_28
REMARK   10  A    between atoms: C_29  and  O_31
REMARK   11  A    between atoms: O_31  and  C_32
REMARK   12  A    between atoms: C_35  and  C_44
REMARK   13  A    between atoms: C_39  and  C_41
REMARK   14  A    between atoms: C_41  and  C_42
REMARK   15  A    between atoms: C_41  and  C_43
REMARK   16  A    between atoms: C_46  and  C_47
REMARK   17  A    between atoms: C_46  and  C_48
REMARK                            x       y       z     vdW  Elec       q    Type
REMARK                         _______ _______ _______ _____ _____    ______ ____
ROOT
ATOM      1  C   UNL     1       1.565   1.437   7.087  0.00  0.00    +0.127 C 
ATOM      2  C   UNL     1       2.631   2.491   7.381  0.00  0.00    +0.023 C 
ATOM      3  C   UNL     1       3.389   2.095   8.656  0.00  0.00    +0.152 C 
ATOM      4  C   UNL     1       4.066   0.768   8.383  0.00  0.00    +0.073 C 
ATOM      5  N   UNL     1       5.281   0.538   8.782  0.00  0.00    -0.183 NA
ATOM      6  C   UNL     1       3.300  -0.252   7.649  0.00  0.00    +0.025 C 
ATOM      7  C   UNL     1       2.159   0.060   7.055  0.00  0.00    -0.057 C 
ATOM      8  C   UNL     1       1.420  -1.021   6.309  0.00  0.00    +0.040 C 
ATOM      9  C   UNL     1       1.963   3.852   7.584  0.00  0.00    +0.010 C 
ENDROOT
BRANCH   5  10
ATOM     10  N   UNL     1       5.883  -0.699   8.516  0.00  0.00    -0.191 N 
ATOM     11  C   UNL     1       7.143  -0.938   8.931  0.00  0.00    +0.317 C 
ATOM     12  O   UNL     1       7.666  -2.011   8.700  0.00  0.00    -0.251 OA
ATOM     13  N   UNL     1       7.824   0.013   9.600  0.00  0.00    -0.312 N 
ATOM     14  H   UNL     1       5.393  -1.384   8.034  0.00  0.00    +0.179 HD
ATOM     15  H   UNL     1       7.407   0.870   9.784  0.00  0.00    +0.147 HD
ATOM     16  H   UNL     1       8.731  -0.158   9.899  0.00  0.00    +0.147 HD
ENDBRANCH   5  10
BRANCH   1  17
ATOM     17  C   UNL     1       0.932   1.733   5.752  0.00  0.00    +0.315 C 
ATOM     18  O   UNL     1       1.299   2.688   5.108  0.00  0.00    -0.250 OA
BRANCH  17  19
ATOM     19  O   UNL     1      -0.039   0.937   5.278  0.00  0.00    -0.461 OA
BRANCH  19  25
ATOM     20  C   UNL     1       0.389   0.249   0.411  0.00  0.00    +0.007 C 
ATOM     21  C   UNL     1      -0.404   0.948   1.517  0.00  0.00    -0.011 C 
ATOM     22  C   UNL     1      -1.865   0.496   1.461  0.00  0.00    +0.004 C 
ATOM     23  C   UNL     1      -2.658   1.195   2.567  0.00  0.00    +0.007 C 
ATOM     24  C   UNL     1      -2.063   0.831   3.929  0.00  0.00    +0.032 C 
ATOM     25  C   UNL     1      -0.603   1.283   3.985  0.00  0.00    +0.180 C 
ATOM     26  C   UNL     1       0.190   0.584   2.879  0.00  0.00    +0.048 C 
BRANCH  24  27
ATOM     27  C   UNL     1      -2.857   1.530   5.035  0.00  0.00    -0.011 C 
ATOM     28  C   UNL     1      -2.871   3.038   4.777  0.00  0.00    +0.007 C 
ATOM     29  C   UNL     1      -4.292   1.000   5.046  0.00  0.00    +0.007 C 
ENDBRANCH  24  27
ENDBRANCH  19  25
ENDBRANCH  17  19
ENDBRANCH   1  17
BRANCH   3  30
ATOM     30  C   UNL     1       2.423   1.952   9.803  0.00  0.00    +0.317 C 
ATOM     31  O   UNL     1       1.243   2.146   9.627  0.00  0.00    -0.250 OA
BRANCH  30  32
ATOM     32  O   UNL     1       2.872   1.609  11.021  0.00  0.00    -0.461 OA
BRANCH  32  33
ATOM     33  C   UNL     1       1.885   1.490  12.078  0.00  0.00    +0.180 C 
ATOM     34  C   UNL     1       1.718   2.841  12.776  0.00  0.00    +0.048 C 
ATOM     35  C   UNL     1       3.057   3.275  13.375  0.00  0.00    -0.011 C 
ATOM     36  C   UNL     1       3.523   2.230  14.392  0.00  0.00    +0.004 C 
ATOM     37  C   UNL     1       3.690   0.879  13.694  0.00  0.00    +0.007 C 
ATOM     38  C   UNL     1       2.350   0.445  13.095  0.00  0.00    +0.032 C 
ATOM     39  C   UNL     1       2.891   4.626  14.072  0.00  0.00    +0.007 C 
BRANCH  38  40
ATOM     40  C   UNL     1       2.517  -0.906  12.398  0.00  0.00    -0.011 C 
ATOM     41  C   UNL     1       2.982  -1.951  13.414  0.00  0.00    +0.007 C 
ATOM     42  C   UNL     1       1.178  -1.340  11.798  0.00  0.00    +0.007 C 
ENDBRANCH  38  40
ENDBRANCH  32  33
ENDBRANCH  30  32
ENDBRANCH   3  30
TORSDOF 9
