REMARK  Name = ZINC49541731
REMARK  3 active torsions:
REMARK  status: ('A' for Active; 'I' for Inactive)
REMARK    1  A    between atoms: C_5  and  S_8
REMARK    2  A    between atoms: C_6  and  N_7
REMARK    3  A    between atoms: S_8  and  N_11
REMARK                            x       y       z     vdW  Elec       q    Type
REMARK                         _______ _______ _______ _____ _____    ______ ____
ROOT
ATOM      1  S   UNL     1       1.466  -2.268  -0.998  0.00  0.00    +0.104 S 
ATOM      2  O   UNL     1       0.304  -2.549  -1.766  0.00  0.00    -0.146 OA
ATOM      3  O   UNL     1       2.779  -2.402  -1.526  0.00  0.00    -0.146 OA
ENDROOT
BRANCH   1   4
ATOM      4  N   UNL     1       1.394  -3.240   0.341  0.00  0.00    -0.103 NA
ATOM      5  C   UNL     1       1.484  -4.541   0.213  0.00  0.00    +0.192 A 
ATOM      6  N   UNL     1       1.644  -5.294  -0.922  0.00  0.00    -0.336 N 
ATOM      7  C   UNL     1       1.716  -6.677  -0.826  0.00  0.00    +0.028 A 
ATOM      8  C   UNL     1       1.621  -7.213   0.390  0.00  0.00    +0.012 A 
ATOM      9  S   UNL     1       1.438  -5.809   1.468  0.00  0.00    -0.053 S 
ATOM     10  C   UNL     1       1.705  -8.713   0.369  0.00  0.00    +0.044 C 
ATOM     11  C   UNL     1       1.442  -9.094  -1.105  0.00  0.00    +0.011 C 
ATOM     12  C   UNL     1       1.892  -7.815  -1.838  0.00  0.00    +0.054 C 
ATOM     13  H   UNL     1       1.707  -4.862  -1.788  0.00  0.00    +0.168 HD
ENDBRANCH   1   4
BRANCH   1  18
ATOM     14  C   UNL     1       2.306   1.391   0.462  0.00  0.00    +0.044 A 
ATOM     15  C   UNL     1       1.073   2.015   0.432  0.00  0.00    +0.044 A 
ATOM     16  C   UNL     1      -0.038   1.333  -0.033  0.00  0.00    +0.042 A 
ATOM     17  C   UNL     1       0.083   0.025  -0.470  0.00  0.00    +0.071 A 
ATOM     18  C   UNL     1       1.314  -0.603  -0.442  0.00  0.00    +0.151 A 
ATOM     19  C   UNL     1       2.430   0.079   0.024  0.00  0.00    +0.055 A 
ATOM     20 CL   UNL     1      -1.313  -0.827  -1.053  0.00  0.00    -0.081 Cl
ATOM     21 CL   UNL     1       0.916   3.655   0.980  0.00  0.00    -0.083 Cl
BRANCH  19  22
ATOM     22  N   UNL     1       3.675  -0.553   0.052  0.00  0.00    -0.356 N 
ATOM     23  H   UNL     1       4.485  -0.026   0.142  0.00  0.00    +0.142 HD
ATOM     24  H   UNL     1       3.731  -1.519  -0.018  0.00  0.00    +0.142 HD
ENDBRANCH  19  22
ENDBRANCH   1  18
TORSDOF 3
