REMARK  Name = ZINC00622920
REMARK  11 active torsions:
REMARK  status: ('A' for Active; 'I' for Inactive)
REMARK    1  A    between atoms: C_1  and  C_2
REMARK    2  A    between atoms: C_2  and  C_3
REMARK    3  A    between atoms: C_3  and  C_4
REMARK    4  A    between atoms: C_11  and  N_35
REMARK    5  A    between atoms: C_12  and  C_33
REMARK    6  A    between atoms: C_13  and  C_15
REMARK    7  A    between atoms: C_19  and  O_31
REMARK    8  A    between atoms: C_20  and  O_21
REMARK    9  A    between atoms: O_21  and  C_22
REMARK   10  A    between atoms: C_22  and  C_23
REMARK   11  A    between atoms: O_31  and  C_32
REMARK                            x       y       z     vdW  Elec       q    Type
REMARK                         _______ _______ _______ _____ _____    ______ ____
ROOT
ATOM      1  C   UNL     1       1.905   4.636   0.637  0.00  0.00    +0.071 A 
ATOM      2  C   UNL     1       1.016   3.620   0.314  0.00  0.00    +0.050 A 
ATOM      3  C   UNL     1      -0.246   4.145   0.315  0.00  0.00    +0.222 A 
ATOM      4  N   UNL     1      -0.143   5.446   0.628  0.00  0.00    -0.246 N 
ATOM      5  H   UNL     1      -0.901   6.095   0.706  0.00  0.00    +0.192 HD
ATOM      6  N   UNL     1       1.216   5.735   0.828  0.00  0.00    -0.176 NA
ATOM      7  O   UNL     1      -1.347   3.404   0.038  0.00  0.00    -0.423 OA
ATOM      8  C   UNL     1      -1.211   2.062   0.019  0.00  0.00    +0.200 C 
ATOM      9  C   UNL     1      -0.017   1.428   0.010  0.00  0.00    +0.098 C 
ATOM     10  C   UNL     1       1.295   2.172   0.001  0.00  0.00    +0.105 C 
ENDROOT
BRANCH  10  11
ATOM     11  C   UNL     1       1.934   2.059  -1.359  0.00  0.00    +0.011 A 
ATOM     12  C   UNL     1       1.275   2.540  -2.475  0.00  0.00    +0.008 A 
ATOM     13  C   UNL     1       1.859   2.439  -3.723  0.00  0.00    +0.004 A 
ATOM     14  C   UNL     1       3.106   1.856  -3.862  0.00  0.00    +0.049 A 
ATOM     15  C   UNL     1       3.772   1.373  -2.748  0.00  0.00    +0.162 A 
ATOM     16  C   UNL     1       3.186   1.479  -1.489  0.00  0.00    +0.166 A 
BRANCH  15  17
ATOM     17  O   UNL     1       4.998   0.800  -2.882  0.00  0.00    -0.491 OA
ATOM     18  C   UNL     1       5.540   0.730  -4.202  0.00  0.00    +0.277 C 
ENDBRANCH  15  17
BRANCH  16  19
ATOM     19  O   UNL     1       3.838   1.011  -0.392  0.00  0.00    -0.483 OA
BRANCH  19  20
ATOM     20  C   UNL     1       3.604  -0.352  -0.030  0.00  0.00    +0.269 C 
BRANCH  20  21
ATOM     21  C   UNL     1       4.405  -0.690   1.200  0.00  0.00    +0.043 A 
ATOM     22  C   UNL     1       5.690  -1.191   1.075  0.00  0.00    +0.131 A 
ATOM     23  C   UNL     1       6.427  -1.495   2.207  0.00  0.00    +0.039 A 
ATOM     24  C   UNL     1       5.876  -1.309   3.461  0.00  0.00    +0.004 A 
ATOM     25  C   UNL     1       4.592  -0.815   3.586  0.00  0.00    +0.020 A 
ATOM     26  C   UNL     1       3.856  -0.504   2.456  0.00  0.00    +0.050 A 
ATOM     27 CL   UNL     1       2.242   0.117   2.614  0.00  0.00    -0.083 Cl
ATOM     28  F   UNL     1       6.226  -1.377  -0.151  0.00  0.00    -0.205 F 
ENDBRANCH  20  21
ENDBRANCH  19  20
ENDBRANCH  16  19
ENDBRANCH  10  11
BRANCH   8  29
ATOM     29  N   UNL     1      -2.350   1.296   0.015  0.00  0.00    -0.328 N 
ATOM     30  H   UNL     1      -2.284   0.329   0.006  0.00  0.00    +0.145 HD
ATOM     31  H   UNL     1      -3.221   1.723   0.022  0.00  0.00    +0.145 HD
ENDBRANCH   8  29
BRANCH   9  32
ATOM     32  C   UNL     1       0.002  -0.004   0.002  0.00  0.00    +0.101 C 
ATOM     33  N   UNL     1       0.018  -1.140  -0.004  0.00  0.00    -0.191 NA
ENDBRANCH   9  32
BRANCH   1  34
ATOM     34  C   UNL     1       3.402   4.499   0.751  0.00  0.00    +0.057 C 
BRANCH  34  36
ATOM     35  C   UNL     1       5.564   4.641  -0.493  0.00  0.00    +0.004 C 
ATOM     36  C   UNL     1       4.045   4.779  -0.609  0.00  0.00    +0.003 C 
ENDBRANCH  34  36
ENDBRANCH   1  34
TORSDOF 9
