REMARK  Name = ZINC38650470
REMARK  10 active torsions:
REMARK  status: ('A' for Active; 'I' for Inactive)
REMARK    1  A    between atoms: C_1  and  C_2
REMARK    2  A    between atoms: C_2  and  O_3
REMARK    3  A    between atoms: O_3  and  C_4
REMARK    4  A    between atoms: C_9  and  C_10
REMARK    5  A    between atoms: C_15  and  O_24
REMARK    6  A    between atoms: C_19  and  N_23
REMARK    7  A    between atoms: C_20  and  C_21
REMARK    8  A    between atoms: O_24  and  C_25
REMARK    9  A    between atoms: C_25  and  C_27
REMARK   10  A    between atoms: C_28  and  C_29
REMARK                            x       y       z     vdW  Elec       q    Type
REMARK                         _______ _______ _______ _____ _____    ______ ____
ROOT
ATOM      1  C   UNL     1      -3.958  -1.442   0.004  0.00  0.00    +0.101 C 
ATOM      2  C   UNL     1      -4.795  -1.718  -1.216  0.00  0.00    +0.008 A 
ATOM      3  C   UNL     1      -4.448  -1.141  -2.425  0.00  0.00    +0.012 A 
ATOM      4  C   UNL     1      -5.204  -1.382  -3.554  0.00  0.00    +0.047 A 
ATOM      5  C   UNL     1      -6.318  -2.207  -3.480  0.00  0.00    +0.135 A 
ATOM      6  C   UNL     1      -6.668  -2.787  -2.272  0.00  0.00    +0.093 A 
ATOM      7  C   UNL     1      -5.906  -2.543  -1.137  0.00  0.00    +0.138 A 
ATOM      8  O   UNL     1      -6.263  -3.118   0.039  0.00  0.00    -0.441 OA
ATOM      9  C   UNL     1      -5.805  -2.614   1.197  0.00  0.00    +0.199 C 
ATOM     10  C   UNL     1      -4.717  -1.815   1.247  0.00  0.00    +0.098 C 
ENDROOT
BRANCH   1  16
ATOM     11  C   UNL     1      -1.458  -1.614  -0.080  0.00  0.00    +0.125 A 
ATOM     12  C   UNL     1      -0.291  -2.363  -0.140  0.00  0.00    +0.046 A 
ATOM     13  C   UNL     1      -0.359  -3.741  -0.193  0.00  0.00    +0.004 A 
ATOM     14  C   UNL     1      -1.588  -4.375  -0.185  0.00  0.00    +0.001 A 
ATOM     15  C   UNL     1      -2.752  -3.631  -0.125  0.00  0.00    +0.008 A 
ATOM     16  C   UNL     1      -2.689  -2.252  -0.067  0.00  0.00    +0.007 A 
BRANCH  11  17
ATOM     17  O   UNL     1      -1.394  -0.257  -0.028  0.00  0.00    -0.492 OA
BRANCH  17  19
ATOM     18  C   UNL     1      -0.221   1.855   0.020  0.00  0.00    +0.048 C 
ATOM     19  C   UNL     1      -0.092   0.332  -0.045  0.00  0.00    +0.225 C 
ENDBRANCH  17  19
ENDBRANCH  11  17
ENDBRANCH   1  16
BRANCH   9  20
ATOM     20  N   UNL     1      -6.461  -2.922   2.363  0.00  0.00    -0.328 N 
ATOM     21  H   UNL     1      -7.243  -3.496   2.342  0.00  0.00    +0.145 HD
ATOM     22  H   UNL     1      -6.143  -2.567   3.207  0.00  0.00    +0.145 HD
ENDBRANCH   9  20
BRANCH  10  23
ATOM     23  C   UNL     1      -4.280  -1.312   2.514  0.00  0.00    +0.101 C 
ATOM     24  N   UNL     1      -3.933  -0.912   3.519  0.00  0.00    -0.191 NA
ENDBRANCH  10  23
BRANCH   5  25
ATOM     25  O   UNL     1      -7.064  -2.445  -4.591  0.00  0.00    -0.423 OA
BRANCH  25  26
ATOM     26  C   UNL     1      -6.518  -3.192  -5.573  0.00  0.00    +0.337 C 
ATOM     27  O   UNL     1      -5.433  -3.716  -5.406  0.00  0.00    -0.245 OA
BRANCH  26  28
ATOM     28  C   UNL     1      -7.229  -3.370  -6.837  0.00  0.00    +0.092 C 
ATOM     29  C   UNL     1      -6.682  -4.118  -7.819  0.00  0.00    +0.016 C 
BRANCH  29  30
ATOM     30  C   UNL     1      -7.398  -4.297  -9.091  0.00  0.00    -0.006 A 
ATOM     31  C   UNL     1      -8.644  -3.691  -9.289  0.00  0.00    +0.011 A 
ATOM     32  C   UNL     1      -9.308  -3.863 -10.483  0.00  0.00    +0.020 A 
ATOM     33  C   UNL     1      -8.747  -4.635 -11.489  0.00  0.00    +0.042 A 
ATOM     34  C   UNL     1      -7.516  -5.239 -11.301  0.00  0.00    +0.040 A 
ATOM     35  C   UNL     1      -6.835  -5.072 -10.113  0.00  0.00    +0.049 A 
ATOM     36 CL   UNL     1      -5.287  -5.824  -9.882  0.00  0.00    -0.083 Cl
ATOM     37 CL   UNL     1      -9.593  -4.846 -12.990  0.00  0.00    -0.083 Cl
ENDBRANCH  29  30
ENDBRANCH  26  28
ENDBRANCH  25  26
ENDBRANCH   5  25
TORSDOF 9
