REMARK  Name = ZINC06321921
REMARK  10 active torsions:
REMARK  status: ('A' for Active; 'I' for Inactive)
REMARK    1  A    between atoms: C_1  and  C_2
REMARK    2  A    between atoms: C_5  and  C_38
REMARK    3  A    between atoms: C_9  and  C_14
REMARK    4  A    between atoms: C_14  and  N_67
REMARK    5  A    between atoms: C_15  and  C_16
REMARK    6  A    between atoms: C_15  and  N_67
REMARK    7  A    between atoms: C_25  and  C_26
REMARK    8  A    between atoms: C_25  and  N_67
REMARK    9  A    between atoms: N_30  and  C_31
REMARK   10  A    between atoms: C_31  and  C_32
REMARK                            x       y       z     vdW  Elec       q    Type
REMARK                         _______ _______ _______ _____ _____    ______ ____
ROOT
ATOM      1  N   UNL     1      -1.549  -0.938   1.288  0.00  0.00    +0.390 N 
ATOM      2  H   UNL     1      -1.660  -0.079   1.841  0.00  0.00    -0.080 HD
ENDROOT
BRANCH   1   3
ATOM      3  C   UNL     1      -0.836  -0.614   0.035  0.00  0.00    -0.036 C 
BRANCH   3  12
ATOM      4  C   UNL     1       4.288  -1.115   0.818  0.00  0.00    +0.044 C 
ATOM      5  C   UNL     1       3.954   0.347   0.965  0.00  0.00    -0.041 A 
ATOM      6  C   UNL     1       4.938   1.250   1.253  0.00  0.00    +0.004 A 
ATOM      7  C   UNL     1       4.640   2.599   1.390  0.00  0.00    +0.005 A 
ATOM      8  C   UNL     1       3.348   3.053   1.237  0.00  0.00    -0.026 A 
ATOM      9  C   UNL     1       2.330   2.152   0.944  0.00  0.00    +0.052 A 
ATOM     10  C   UNL     1       2.635   0.785   0.806  0.00  0.00    +0.002 A 
ATOM     11  C   UNL     1       1.557  -0.155   0.497  0.00  0.00    +0.017 A 
ATOM     12  C   UNL     1       0.298   0.327   0.354  0.00  0.00    +0.001 A 
ATOM     13  C   UNL     1       0.045   1.708   0.502  0.00  0.00    +0.251 A 
ATOM     14  O   UNL     1      -1.094   2.121   0.364  0.00  0.00    -0.268 OA
ATOM     15  N   UNL     1       1.028   2.579   0.786  0.00  0.00    -0.322 N 
ATOM     16  H   UNL     1       0.820   3.522   0.881  0.00  0.00    +0.169 HD
ATOM     17  C   UNL     1       3.040   4.521   1.387  0.00  0.00    +0.046 C 
ENDBRANCH   3  12
ENDBRANCH   1   3
BRANCH   1  18
ATOM     18  C   UNL     1      -0.770  -1.917   2.075  0.00  0.00    -0.042 C 
BRANCH  18  19
ATOM     19  C   UNL     1      -0.694  -3.236   1.351  0.00  0.00    -0.060 A 
ATOM     20  C   UNL     1      -1.603  -4.236   1.642  0.00  0.00    +0.005 A 
ATOM     21  C   UNL     1      -1.541  -5.446   0.977  0.00  0.00    +0.050 A 
ATOM     22  C   UNL     1      -0.559  -5.663   0.023  0.00  0.00    +0.166 A 
ATOM     23  C   UNL     1       0.360  -4.658  -0.266  0.00  0.00    +0.166 A 
ATOM     24  C   UNL     1       0.288  -3.446   0.401  0.00  0.00    +0.051 A 
ATOM     25  O   UNL     1       1.215  -5.112  -1.228  0.00  0.00    -0.453 OA
ATOM     26  C   UNL     1       0.561  -6.253  -1.816  0.00  0.00    +0.466 C 
ATOM     27  O   UNL     1      -0.280  -6.748  -0.758  0.00  0.00    -0.453 OA
ENDBRANCH  18  19
ENDBRANCH   1  18
BRANCH   1  28
ATOM     28  C   UNL     1      -2.886  -1.487   0.981  0.00  0.00    +0.001 C 
BRANCH  28  29
ATOM     29  C   UNL     1      -3.728  -1.439   2.230  0.00  0.00    +0.135 A 
ATOM     30  N   UNL     1      -3.785  -2.350   3.171  0.00  0.00    -0.115 NA
ATOM     31  N   UNL     1      -4.614  -1.943   4.069  0.00  0.00    -0.023 NA
ATOM     32  N   UNL     1      -5.093  -0.799   3.722  0.00  0.00    -0.044 NA
ATOM     33  N   UNL     1      -4.571  -0.455   2.594  0.00  0.00    -0.229 N 
BRANCH  33  34
ATOM     34  C   UNL     1      -4.845   0.776   1.848  0.00  0.00    +0.178 C 
BRANCH  34  35
ATOM     35  C   UNL     1      -6.015   0.543   0.890  0.00  0.00    +0.140 C 
ATOM     36  C   UNL     1      -6.237   1.798   0.018  0.00  0.00    +0.035 C 
ATOM     37  C   UNL     1      -7.786   1.877  -0.057  0.00  0.00    +0.031 C 
ATOM     38  C   UNL     1      -8.176   1.345   1.345  0.00  0.00    +0.160 C 
ATOM     39  O   UNL     1      -7.216   0.316   1.636  0.00  0.00    -0.375 OA
ENDBRANCH  34  35
ENDBRANCH  33  34
ENDBRANCH  28  29
ENDBRANCH   1  28
TORSDOF 8
