REMARK  Name = ZINC34829691
REMARK  12 active torsions:
REMARK  status: ('A' for Active; 'I' for Inactive)
REMARK    1  A    between atoms: C_1  and  C_2
REMARK    2  A    between atoms: C_2  and  O_3
REMARK    3  A    between atoms: O_3  and  C_4
REMARK    4  A    between atoms: C_4  and  C_6
REMARK    5  A    between atoms: C_6  and  C_7
REMARK    6  A    between atoms: C_7  and  C_8
REMARK    7  A    between atoms: C_15  and  C_17
REMARK    8  A    between atoms: C_18  and  C_20
REMARK    9  A    between atoms: C_20  and  N_21
REMARK   10  A    between atoms: C_29  and  C_31
REMARK   11  A    between atoms: C_34  and  O_37
REMARK   12  A    between atoms: O_37  and  C_38
REMARK                            x       y       z     vdW  Elec       q    Type
REMARK                         _______ _______ _______ _____ _____    ______ ____
ROOT
ATOM      1  C   UNL     1      -3.569 -10.563  -1.208  0.00  0.00    +0.020 C 
ENDROOT
BRANCH   1  11
ATOM      2  C   UNL     1      -4.165  -4.548   0.017  0.00  0.00    +0.216 C 
ATOM      3  O   UNL     1      -5.136  -3.822   0.031  0.00  0.00    -0.276 OA
ATOM      4  N   UNL     1      -4.323  -5.886   0.012  0.00  0.00    -0.296 N 
ATOM      5  C   UNL     1      -3.155  -6.778   0.002  0.00  0.00    +0.127 C 
ATOM      6  C   UNL     1      -3.274  -7.729  -1.196  0.00  0.00    +0.126 C 
ATOM      7  N   UNL     1      -4.618  -8.323  -1.192  0.00  0.00    -0.300 N 
ATOM      8  C   UNL     1      -5.787  -7.431  -1.182  0.00  0.00    +0.130 C 
ATOM      9  C   UNL     1      -5.667  -6.481   0.021  0.00  0.00    +0.090 C 
ATOM     10  C   UNL     1      -5.874  -7.262   1.321  0.00  0.00    +0.029 C 
ATOM     11  C   UNL     1      -4.777  -9.661  -1.197  0.00  0.00    +0.199 C 
ATOM     12  O   UNL     1      -5.891 -10.140  -1.194  0.00  0.00    -0.278 OA
BRANCH   2  13
ATOM     13  C   UNL     1      -2.780  -3.953   0.007  0.00  0.00    +0.107 C 
BRANCH  13  14
ATOM     14  C   UNL     1      -2.881  -2.427   0.017  0.00  0.00    +0.130 C 
BRANCH  14  15
ATOM     15  C   UNL     1      -1.496  -1.832   0.006  0.00  0.00    +0.308 C 
ATOM     16  O   UNL     1      -0.528  -2.555  -0.007  0.00  0.00    -0.251 OA
BRANCH  15  17
ATOM     17  O   UNL     1      -1.339  -0.499   0.012  0.00  0.00    -0.465 OA
BRANCH  17  19
ATOM     18  C   UNL     1      -0.019   1.526   0.010  0.00  0.00    +0.048 C 
ATOM     19  C   UNL     1       0.002  -0.004   0.002  0.00  0.00    +0.229 C 
ENDBRANCH  17  19
ENDBRANCH  15  17
ENDBRANCH  14  15
ENDBRANCH  13  14
ENDBRANCH   2  13
ENDBRANCH   1  11
BRANCH   1  20
ATOM     20  N   UNL     1      -4.005 -11.966  -1.212  0.00  0.00    +0.393 N 
ATOM     21  C   UNL     1      -4.743 -12.238  -2.453  0.00  0.00    -0.072 C 
ATOM     22  C   UNL     1      -5.474 -13.585  -2.311  0.00  0.00    +0.024 C 
ATOM     23  C   UNL     1      -4.497 -14.573  -1.765  0.00  0.00    -0.010 A 
ATOM     24  C   UNL     1      -3.284 -14.290  -1.210  0.00  0.00    -0.047 A 
ATOM     25  C   UNL     1      -2.533 -15.377  -0.770  0.00  0.00    +0.010 A 
ATOM     26  C   UNL     1      -3.019 -16.633  -0.901  0.00  0.00    +0.045 A 
ATOM     27  S   UNL     1      -4.604 -16.337  -1.674  0.00  0.00    -0.101 S 
ATOM     28  C   UNL     1      -2.830 -12.838  -1.102  0.00  0.00    -0.005 C 
ATOM     29  H   UNL     1      -4.614 -12.127  -0.423  0.00  0.00    -0.080 HD
BRANCH  28  30
ATOM     30  C   UNL     1      -2.160 -12.616   0.230  0.00  0.00    -0.056 A 
ATOM     31  C   UNL     1      -2.926 -12.444   1.368  0.00  0.00    +0.006 A 
ATOM     32  C   UNL     1      -2.314 -12.241   2.590  0.00  0.00    +0.046 A 
ATOM     33  C   UNL     1      -0.930 -12.209   2.674  0.00  0.00    +0.120 A 
ATOM     34  C   UNL     1      -0.163 -12.381   1.531  0.00  0.00    +0.046 A 
ATOM     35  C   UNL     1      -0.780 -12.590   0.312  0.00  0.00    +0.006 A 
BRANCH  33  36
ATOM     36  O   UNL     1      -0.326 -12.008   3.875  0.00  0.00    -0.495 OA
ATOM     37  C   UNL     1       1.103 -11.987   3.887  0.00  0.00    +0.277 C 
ENDBRANCH  33  36
ENDBRANCH  28  30
ENDBRANCH   1  20
TORSDOF 9
