REMARK  Name = ZINC01451310
REMARK  6 active torsions:
REMARK  status: ('A' for Active; 'I' for Inactive)
REMARK    1  A    between atoms: C_1  and  O_2
REMARK    2  A    between atoms: O_2  and  C_3
REMARK    3  A    between atoms: C_3  and  C_5
REMARK    4  A    between atoms: C_8  and  C_11
REMARK    5  A    between atoms: C_21  and  C_23
REMARK    6  A    between atoms: C_23  and  C_24
REMARK                            x       y       z     vdW  Elec       q    Type
REMARK                         _______ _______ _______ _____ _____    ______ ____
ROOT
ATOM      1  C   UNL     1      -1.558  -2.769   1.124  0.00  0.00    +0.028 C 
ATOM      2  C   UNL     1      -0.690  -1.889   0.561  0.00  0.00    +0.082 A 
ATOM      3  C   UNL     1      -0.944  -0.553  -0.001  0.00  0.00    +0.287 A 
ATOM      4  O   UNL     1      -2.064  -0.079  -0.007  0.00  0.00    -0.265 OA
ATOM      5  N   UNL     1       0.098   0.128  -0.507  0.00  0.00    -0.170 N 
ATOM      6  C   UNL     1       1.337  -0.457  -0.472  0.00  0.00    +0.201 A 
ATOM      7  S   UNL     1       1.071  -2.039   0.300  0.00  0.00    -0.044 S 
ATOM      8  N   UNL     1       2.422   0.113  -0.935  0.00  0.00    -0.181 NA
ATOM      9  C   UNL     1       2.372   1.334  -1.483  0.00  0.00    +0.296 A 
ATOM     10  O   UNL     1       3.380   1.868  -1.917  0.00  0.00    -0.264 OA
ATOM     11  C   UNL     1       1.072   2.013  -1.549  0.00  0.00    +0.132 A 
ATOM     12  N   UNL     1       0.016   1.425  -1.083  0.00  0.00    -0.161 NA
ENDROOT
BRANCH   1  16
ATOM     13  C   UNL     1      -0.275  -6.688   2.084  0.00  0.00    +0.059 A 
ATOM     14  C   UNL     1      -1.439  -6.173   2.662  0.00  0.00    +0.015 A 
ATOM     15  C   UNL     1      -1.854  -4.909   2.353  0.00  0.00    +0.009 A 
ATOM     16  C   UNL     1      -1.113  -4.129   1.457  0.00  0.00    -0.024 A 
ATOM     17  C   UNL     1       0.050  -4.648   0.874  0.00  0.00    +0.009 A 
ATOM     18  C   UNL     1       0.467  -5.910   1.190  0.00  0.00    +0.015 A 
BRANCH  13  19
ATOM     19  C   UNL     1       0.173  -8.055   2.419  0.00  0.00    +0.339 C 
ATOM     20  O   UNL     1      -0.471  -8.731   3.196  0.00  0.00    -0.245 OA
BRANCH  19  22
ATOM     21  C   UNL     1       1.674  -9.902   2.238  0.00  0.00    +0.280 C 
ATOM     22  O   UNL     1       1.295  -8.552   1.863  0.00  0.00    -0.464 OA
ENDBRANCH  19  22
ENDBRANCH  13  19
ENDBRANCH   1  16
BRANCH  11  23
ATOM     23  C   UNL     1       0.967   3.387  -2.157  0.00  0.00    +0.099 C 
BRANCH  23  24
ATOM     24  C   UNL     1      -0.481   3.804  -2.209  0.00  0.00    -0.023 A 
ATOM     25  C   UNL     1      -1.187   3.705  -3.393  0.00  0.00    +0.005 A 
ATOM     26  C   UNL     1      -2.516   4.083  -3.439  0.00  0.00    +0.000 A 
ATOM     27  C   UNL     1      -3.136   4.570  -2.304  0.00  0.00    +0.001 A 
ATOM     28  C   UNL     1      -2.430   4.674  -1.121  0.00  0.00    +0.020 A 
ATOM     29  C   UNL     1      -1.101   4.291  -1.072  0.00  0.00    +0.045 A 
ATOM     30 CL   UNL     1      -0.213   4.421   0.414  0.00  0.00    -0.083 Cl
ENDBRANCH  23  24
ENDBRANCH  11  23
TORSDOF 5
