REMARK  Name = ZINC22781536
REMARK  13 active torsions:
REMARK  status: ('A' for Active; 'I' for Inactive)
REMARK    1  A    between atoms: C_1  and  N_2
REMARK    2  A    between atoms: N_2  and  C_3
REMARK    3  A    between atoms: C_9  and  O_36
REMARK    4  A    between atoms: C_10  and  O_34
REMARK    5  A    between atoms: C_11  and  O_32
REMARK    6  A    between atoms: N_18  and  C_19
REMARK    7  A    between atoms: C_19  and  C_20
REMARK    8  A    between atoms: C_20  and  C_21
REMARK    9  A    between atoms: C_21  and  N_22
REMARK   10  A    between atoms: N_25  and  C_28
REMARK   11  A    between atoms: O_32  and  C_33
REMARK   12  A    between atoms: O_34  and  C_35
REMARK   13  A    between atoms: O_36  and  C_37
REMARK                            x       y       z     vdW  Elec       q    Type
REMARK                         _______ _______ _______ _____ _____    ______ ____
ROOT
ATOM      1  C   UNL     1      -1.044   3.438   1.534  0.00  0.00    -0.040 C 
ATOM      2  C   UNL     1      -2.348   2.805   1.092  0.00  0.00    -0.007 C 
ATOM      3  C   UNL     1      -2.229   2.235  -0.319  0.00  0.00    +0.035 C 
ATOM      4  C   UNL     1      -0.925   1.490  -0.450  0.00  0.00    -0.033 A 
ATOM      5  C   UNL     1      -0.912   0.110  -0.445  0.00  0.00    +0.054 A 
ATOM      6  C   UNL     1       0.289  -0.573  -0.585  0.00  0.00    +0.165 A 
ATOM      7  C   UNL     1       1.482   0.126  -0.731  0.00  0.00    +0.204 A 
ATOM      8  C   UNL     1       1.476   1.515  -0.733  0.00  0.00    +0.173 A 
ATOM      9  C   UNL     1       0.264   2.196  -0.588  0.00  0.00    +0.031 A 
ATOM     10  C   UNL     1       0.253   3.690  -0.573  0.00  0.00    -0.012 A 
ATOM     11  C   UNL     1      -0.439   4.306   0.449  0.00  0.00    -0.050 A 
ATOM     12  C   UNL     1      -0.612   5.661   0.590  0.00  0.00    +0.055 A 
ATOM     13  C   UNL     1      -0.199   6.716  -0.118  0.00  0.00    +0.204 A 
ATOM     14  C   UNL     1       0.619   6.726  -1.308  0.00  0.00    +0.105 A 
ATOM     15  N   UNL     1       0.908   7.900  -1.851  0.00  0.00    -0.280 NA
ATOM     16  C   UNL     1       1.125   5.582  -1.925  0.00  0.00    +0.032 A 
ATOM     17  C   UNL     1       0.951   4.324  -1.591  0.00  0.00    +0.011 A 
ATOM     18  O   UNL     1      -0.597   7.929   0.338  0.00  0.00    -0.286 OA
ENDROOT
BRANCH   1  20
ATOM     19  C   UNL     1      -1.444   3.431   3.923  0.00  0.00    -0.100 C 
ATOM     20  N   UNL     1      -1.295   4.265   2.723  0.00  0.00    +0.382 N 
ATOM     21  H   UNL     1      -2.217   4.844   2.561  0.00  0.00    -0.085 HD
ATOM     22  H   UNL     1      -0.449   4.955   2.858  0.00  0.00    -0.085 HD
ENDBRANCH   1  20
BRANCH   8  23
ATOM     23  O   UNL     1       2.638   2.205  -0.875  0.00  0.00    -0.491 OA
ATOM     24  C   UNL     1       3.399   2.445   0.311  0.00  0.00    +0.277 C 
ENDBRANCH   8  23
BRANCH   7  25
ATOM     25  O   UNL     1       2.655  -0.550  -0.872  0.00  0.00    -0.488 OA
ATOM     26  C   UNL     1       3.039  -0.912  -2.200  0.00  0.00    +0.277 C 
ENDBRANCH   7  25
BRANCH   6  27
ATOM     27  O   UNL     1       0.298  -1.932  -0.580  0.00  0.00    -0.491 OA
ATOM     28  C   UNL     1      -0.962  -2.589  -0.426  0.00  0.00    +0.277 C 
ENDBRANCH   6  27
BRANCH  15  29
ATOM     29  C   UNL     1       1.628   7.961  -3.125  0.00  0.00    +0.140 C 
BRANCH  29  30
ATOM     30  C   UNL     1       1.727   9.417  -3.585  0.00  0.00    +0.005 C 
BRANCH  30  31
ATOM     31  C   UNL     1       2.479   9.481  -4.916  0.00  0.00    -0.077 C 
BRANCH  31  32
ATOM     32  N   UNL     1       2.575  10.878  -5.358  0.00  0.00    +0.381 N 
ATOM     33  C   UNL     1       1.248  11.420  -5.683  0.00  0.00    -0.063 C 
ATOM     34  C   UNL     1       1.381  12.897  -6.062  0.00  0.00    +0.065 C 
ATOM     35  N   UNL     1       2.294  13.026  -7.206  0.00  0.00    -0.309 NA
ATOM     36  C   UNL     1       3.621  12.485  -6.881  0.00  0.00    +0.065 C 
ATOM     37  C   UNL     1       3.488  11.008  -6.502  0.00  0.00    -0.063 C 
ATOM     38  C   UNL     1       2.390  14.424  -7.648  0.00  0.00    +0.104 C 
ATOM     39  H   UNL     1       2.987  11.467  -4.526  0.00  0.00    -0.082 HD
ENDBRANCH  31  32
ENDBRANCH  30  31
ENDBRANCH  29  30
ENDBRANCH  15  29
TORSDOF 8
