REMARK  Name = ZINC66091414
REMARK  12 active torsions:
REMARK  status: ('A' for Active; 'I' for Inactive)
REMARK    1  A    between atoms: C_1  and  C_2
REMARK    2  A    between atoms: C_2  and  C_3
REMARK    3  A    between atoms: C_2  and  C_4
REMARK    4  A    between atoms: C_2  and  N_5
REMARK    5  A    between atoms: C_10  and  C_28
REMARK    6  A    between atoms: N_19  and  C_20
REMARK    7  A    between atoms: C_24  and  O_26
REMARK    8  A    between atoms: O_26  and  C_27
REMARK    9  A    between atoms: C_30  and  O_39
REMARK   10  A    between atoms: C_33  and  O_34
REMARK   11  A    between atoms: O_34  and  C_35
REMARK   12  A    between atoms: O_39  and  C_40
REMARK                            x       y       z     vdW  Elec       q    Type
REMARK                         _______ _______ _______ _____ _____    ______ ____
ROOT
ATOM      1  N   UNL     1       0.778  -0.488  -1.155  0.00  0.00    -0.241 N 
ATOM      2  C   UNL     1       0.956  -1.777  -1.515  0.00  0.00    +0.157 A 
ATOM      3  C   UNL     1       1.636  -1.776  -2.726  0.00  0.00    +0.026 A 
ATOM      4  C   UNL     1       1.878  -0.459  -3.073  0.00  0.00    +0.141 A 
ATOM      5  N   UNL     1       1.365   0.316  -2.146  0.00  0.00    -0.177 NA
ATOM      6  C   UNL     1       1.981  -3.051  -3.464  0.00  0.00    +0.086 C 
ATOM      7  C   UNL     1       0.889  -4.061  -3.108  0.00  0.00    +0.158 C 
ATOM      8  C   UNL     1       0.624  -4.016  -1.617  0.00  0.00    +0.127 C 
ATOM      9  N   UNL     1       0.601  -2.940  -0.882  0.00  0.00    -0.215 NA
ATOM     10  N   UNL     1       0.554  -5.328  -1.231  0.00  0.00    -0.256 N 
ATOM     11  C   UNL     1       1.004  -6.127  -2.213  0.00  0.00    +0.312 C 
ATOM     12  O   UNL     1       1.131  -7.330  -2.098  0.00  0.00    -0.252 OA
ATOM     13  N   UNL     1       1.291  -5.445  -3.361  0.00  0.00    -0.244 N 
ATOM     14  H   UNL     1       0.228  -5.636  -0.371  0.00  0.00    +0.158 HD
ENDROOT
BRANCH   6  15
ATOM     15  C   UNL     1       3.326  -3.560  -3.015  0.00  0.00    +0.011 A 
ATOM     16  C   UNL     1       3.532  -3.891  -1.688  0.00  0.00    +0.057 A 
ATOM     17  C   UNL     1       4.767  -4.360  -1.272  0.00  0.00    +0.166 A 
ATOM     18  C   UNL     1       5.804  -4.498  -2.188  0.00  0.00    +0.211 A 
ATOM     19  C   UNL     1       5.598  -4.166  -3.521  0.00  0.00    +0.211 A 
ATOM     20  C   UNL     1       4.354  -3.702  -3.934  0.00  0.00    +0.169 A 
ATOM     21  O   UNL     1       6.755  -4.387  -4.212  0.00  0.00    -0.449 OA
ATOM     22  C   UNL     1       7.789  -4.470  -3.212  0.00  0.00    +0.467 C 
ATOM     23  O   UNL     1       7.092  -4.929  -2.039  0.00  0.00    -0.449 OA
BRANCH  20  24
ATOM     24  O   UNL     1       4.147  -3.380  -5.240  0.00  0.00    -0.491 OA
ATOM     25  C   UNL     1       4.422  -2.033  -5.628  0.00  0.00    +0.277 C 
ENDBRANCH  20  24
BRANCH  17  26
ATOM     26  O   UNL     1       4.967  -4.684   0.035  0.00  0.00    -0.491 OA
ATOM     27  C   UNL     1       3.858  -4.516   0.921  0.00  0.00    +0.277 C 
ENDBRANCH  17  26
ENDBRANCH   6  15
BRANCH  13  28
ATOM     28  C   UNL     1       1.858  -5.952  -4.536  0.00  0.00    +0.042 A 
ATOM     29  C   UNL     1       1.974  -5.140  -5.658  0.00  0.00    +0.024 A 
ATOM     30  C   UNL     1       2.534  -5.640  -6.818  0.00  0.00    +0.005 A 
ATOM     31  C   UNL     1       2.981  -6.947  -6.865  0.00  0.00    +0.046 A 
ATOM     32  C   UNL     1       2.869  -7.761  -5.747  0.00  0.00    +0.122 A 
ATOM     33  C   UNL     1       2.311  -7.262  -4.580  0.00  0.00    +0.069 A 
BRANCH  32  34
ATOM     34  O   UNL     1       3.308  -9.046  -5.795  0.00  0.00    -0.495 OA
ATOM     35  C   UNL     1       3.876  -9.492  -7.029  0.00  0.00    +0.277 C 
ENDBRANCH  32  34
ENDBRANCH  13  28
BRANCH   1  37
ATOM     36  C   UNL     1       0.105   1.517   0.074  0.00  0.00    +0.036 C 
ATOM     37  C   UNL     1       0.091  -0.013   0.049  0.00  0.00    +0.057 C 
ATOM     38  C   UNL     1       0.808  -0.549   1.290  0.00  0.00    +0.036 C 
ATOM     39  C   UNL     1      -1.356  -0.510   0.040  0.00  0.00    +0.036 C 
ENDBRANCH   1  37
TORSDOF 6
