REMARK  Name = ZINC09313125
REMARK  13 active torsions:
REMARK  status: ('A' for Active; 'I' for Inactive)
REMARK    1  A    between atoms: C_1  and  C_2
REMARK    2  A    between atoms: C_7  and  C_8
REMARK    3  A    between atoms: C_8  and  O_9
REMARK    4  A    between atoms: O_9  and  C_10
REMARK    5  A    between atoms: C_13  and  C_16
REMARK    6  A    between atoms: C_16  and  C_18
REMARK    7  A    between atoms: N_22  and  C_32
REMARK    8  A    between atoms: C_23  and  C_25
REMARK    9  A    between atoms: C_28  and  O_31
REMARK   10  A    between atoms: C_32  and  C_33
REMARK   11  A    between atoms: C_33  and  N_34
REMARK   12  A    between atoms: N_34  and  C_35
REMARK   13  A    between atoms: N_34  and  C_36
REMARK                            x       y       z     vdW  Elec       q    Type
REMARK                         _______ _______ _______ _____ _____    ______ ____
ROOT
ATOM      1  C   UNL     1       0.564  -0.303   6.494  0.00  0.00    +0.076 C 
ATOM      2  C   UNL     1       1.141   0.906   6.304  0.00  0.00    +0.249 C 
ATOM      3  C   UNL     1       0.592   1.519   5.076  0.00  0.00    +0.288 C 
ATOM      4  O   UNL     1       0.911   2.605   4.636  0.00  0.00    -0.266 OA
ATOM      5  N   UNL     1      -0.313   0.695   4.517  0.00  0.00    -0.285 N 
ATOM      6  C   UNL     1      -0.410  -0.505   5.357  0.00  0.00    +0.145 C 
ATOM      7  O   UNL     1       2.073   1.465   7.110  0.00  0.00    -0.282 OA
ENDROOT
BRANCH   6   8
ATOM      8  C   UNL     1      -0.027  -1.726   4.561  0.00  0.00    -0.022 A 
ATOM      9  C   UNL     1       1.134  -1.725   3.810  0.00  0.00    +0.009 A 
ATOM     10  C   UNL     1       1.490  -2.845   3.084  0.00  0.00    +0.046 A 
ATOM     11  C   UNL     1       0.675  -3.968   3.100  0.00  0.00    +0.117 A 
ATOM     12  C   UNL     1      -0.492  -3.965   3.850  0.00  0.00    +0.046 A 
ATOM     13  C   UNL     1      -0.841  -2.844   4.579  0.00  0.00    +0.009 A 
BRANCH  11  14
ATOM     14  O   UNL     1       1.021  -5.070   2.383  0.00  0.00    -0.507 OA
ATOM     15  H   UNL     1       0.374  -5.960   2.397  0.00  0.00    +0.292 HD
ENDBRANCH  11  14
ENDBRANCH   6   8
BRANCH   1  16
ATOM     16  C   UNL     1       0.828  -1.235   7.595  0.00  0.00    +0.195 C 
ATOM     17  O   UNL     1       1.921  -1.760   7.698  0.00  0.00    -0.287 OA
BRANCH  16  21
ATOM     18  C   UNL     1      -2.219  -2.100  10.423  0.00  0.00    +0.121 A 
ATOM     19  C   UNL     1      -0.956  -2.661  10.573  0.00  0.00    +0.046 A 
ATOM     20  C   UNL     1       0.035  -2.383   9.658  0.00  0.00    +0.015 A 
ATOM     21  C   UNL     1      -0.231  -1.536   8.578  0.00  0.00    +0.022 A 
ATOM     22  C   UNL     1      -1.502  -0.971   8.434  0.00  0.00    +0.015 A 
ATOM     23  C   UNL     1      -2.488  -1.258   9.350  0.00  0.00    +0.046 A 
BRANCH  18  24
ATOM     24  O   UNL     1      -3.193  -2.377  11.327  0.00  0.00    -0.487 OA
BRANCH  24  25
ATOM     25  C   UNL     1      -4.468  -1.768  11.113  0.00  0.00    +0.264 C 
BRANCH  25  32
ATOM     26  C   UNL     1      -7.185  -0.784  11.130  0.00  0.00    +0.044 C 
ATOM     27  C   UNL     1      -6.715  -1.717  12.216  0.00  0.00    -0.044 A 
ATOM     28  C   UNL     1      -7.584  -2.105  13.219  0.00  0.00    +0.004 A 
ATOM     29  C   UNL     1      -7.152  -2.957  14.217  0.00  0.00    +0.000 A 
ATOM     30  C   UNL     1      -5.850  -3.424  14.212  0.00  0.00    +0.000 A 
ATOM     31  C   UNL     1      -4.982  -3.039  13.208  0.00  0.00    +0.007 A 
ATOM     32  C   UNL     1      -5.415  -2.188  12.208  0.00  0.00    -0.007 A 
ENDBRANCH  25  32
ENDBRANCH  24  25
ENDBRANCH  18  24
ENDBRANCH  16  21
ENDBRANCH   1  16
BRANCH   5  33
ATOM     33  C   UNL     1      -1.072   0.953   3.292  0.00  0.00    +0.090 C 
BRANCH  33  34
ATOM     34  C   UNL     1      -0.293   0.422   2.087  0.00  0.00    -0.060 C 
BRANCH  34  35
ATOM     35  N   UNL     1      -1.054   0.681   0.858  0.00  0.00    +0.377 N 
ATOM     36  C   UNL     1      -0.458  -0.019  -0.288  0.00  0.00    -0.097 C 
ATOM     37  C   UNL     1      -1.159   2.123   0.598  0.00  0.00    -0.097 C 
ATOM     38  H   UNL     1      -2.071   0.288   1.001  0.00  0.00    -0.083 HD
ENDBRANCH  34  35
ENDBRANCH  33  34
ENDBRANCH   5  33
TORSDOF 10
