REMARK  Name = ZINC39578353
REMARK  7 active torsions:
REMARK  status: ('A' for Active; 'I' for Inactive)
REMARK    1  A    between atoms: C_1  and  C_2
REMARK    2  A    between atoms: C_2  and  C_4
REMARK    3  A    between atoms: C_2  and  S_17
REMARK    4  A    between atoms: N_6  and  C_7
REMARK    5  A    between atoms: S_17  and  C_18
REMARK    6  A    between atoms: C_21  and  C_24
REMARK    7  A    between atoms: N_22  and  N_23
REMARK                            x       y       z     vdW  Elec       q    Type
REMARK                         _______ _______ _______ _____ _____    ______ ____
ROOT
ATOM      1  C   UNL     1      -0.035   1.540   0.013  0.00  0.00    +0.029 C 
ATOM      2  C   UNL     1      -0.004   0.010   0.004  0.00  0.00    +0.137 C 
ENDROOT
BRANCH   2   3
ATOM      3  C   UNL     1      -1.414  -0.521   0.013  0.00  0.00    +0.230 C 
ATOM      4  O   UNL     1      -1.940  -0.827   1.063  0.00  0.00    -0.274 OA
ATOM      5  N   UNL     1      -2.090  -0.657  -1.144  0.00  0.00    -0.284 N 
ATOM      6  H   UNL     1      -1.695  -0.352  -1.976  0.00  0.00    +0.155 HD
BRANCH   5   7
ATOM      7  C   UNL     1      -3.360  -1.237  -1.147  0.00  0.00    +0.041 A 
ATOM      8  C   UNL     1      -4.219  -1.036  -0.088  0.00  0.00    +0.024 A 
ATOM      9  C   UNL     1      -5.487  -1.609  -0.080  0.00  0.00    +0.002 A 
ATOM     10  C   UNL     1      -5.914  -2.383  -1.116  0.00  0.00    +0.008 A 
ATOM     11  C   UNL     1      -5.069  -2.613  -2.215  0.00  0.00    -0.016 A 
ATOM     12  C   UNL     1      -3.778  -2.031  -2.236  0.00  0.00    +0.003 A 
ATOM     13  C   UNL     1      -2.937  -2.258  -3.337  0.00  0.00    +0.010 A 
ATOM     14  C   UNL     1      -3.374  -3.030  -4.370  0.00  0.00    +0.001 A 
ATOM     15  C   UNL     1      -4.646  -3.598  -4.353  0.00  0.00    +0.001 A 
ATOM     16  C   UNL     1      -5.484  -3.409  -3.298  0.00  0.00    +0.008 A 
ENDBRANCH   5   7
ENDBRANCH   2   3
BRANCH   2  17
ATOM     17  S   UNL     1       0.877  -0.585   1.474  0.00  0.00    -0.072 S 
BRANCH  17  18
ATOM     18  C   UNL     1       2.527  -0.011   1.245  0.00  0.00    +0.209 A 
ATOM     19  N   UNL     1       2.975   0.692   0.230  0.00  0.00    -0.121 NA
ATOM     20  N   UNL     1       4.226   0.938   0.388  0.00  0.00    -0.132 NA
ATOM     21  C   UNL     1       4.648   0.411   1.503  0.00  0.00    +0.154 A 
ATOM     22  N   UNL     1       3.580  -0.206   2.092  0.00  0.00    -0.228 N 
BRANCH  21  23
ATOM     23  C   UNL     1       6.052   0.477   2.046  0.00  0.00    +0.059 C 
ATOM     24  C   UNL     1       6.448   1.939   2.261  0.00  0.00    +0.011 C 
ATOM     25  C   UNL     1       7.874   2.006   2.813  0.00  0.00    +0.001 C 
ATOM     26  C   UNL     1       8.837   1.358   1.816  0.00  0.00    +0.000 C 
ATOM     27  C   UNL     1       8.441  -0.104   1.601  0.00  0.00    +0.001 C 
ATOM     28  C   UNL     1       7.016  -0.171   1.050  0.00  0.00    +0.011 C 
ENDBRANCH  21  23
BRANCH  22  29
ATOM     29  N   UNL     1       3.569  -0.882   3.279  0.00  0.00    -0.295 N 
ATOM     30  H   UNL     1       3.781  -1.859   3.141  0.00  0.00    +0.163 HD
ATOM     31  H   UNL     1       4.206  -0.463   3.939  0.00  0.00    +0.163 HD
ENDBRANCH  22  29
ENDBRANCH  17  18
ENDBRANCH   2  17
TORSDOF 6
