REMARK  Name = ZINC11616249
REMARK  4 active torsions:
REMARK  status: ('A' for Active; 'I' for Inactive)
REMARK    1  A    between atoms: N_9  and  C1*_10
REMARK    2  A    between atoms: C3*_13  and  O3*_20
REMARK    3  A    between atoms: C4*_15  and  C5*_18
REMARK    4  A    between atoms: C5*_18  and  O5*_19
REMARK                            x       y       z     vdW  Elec       q    Type
REMARK                         _______ _______ _______ _____ _____    ______ ____
ROOT
ATOM      1  C   UNL     1       0.578   3.265  -2.521  0.00  0.00    +0.203 A 
ATOM      2  N   UNL     1       1.364   3.249  -3.558  0.00  0.00    -0.231 NA
ATOM      3  C   UNL     1       1.431   1.990  -4.054  0.00  0.00    +0.147 A 
ATOM      4  C   UNL     1       2.099   1.388  -5.134  0.00  0.00    +0.149 A 
ATOM      5  N   UNL     1       1.934   0.085  -5.334  0.00  0.00    -0.201 NA
ATOM      6  C   UNL     1       1.160  -0.637  -4.541  0.00  0.00    +0.226 A 
ATOM      7  N   UNL     1       0.515  -0.115  -3.518  0.00  0.00    -0.198 NA
ATOM      8  C   UNL     1       0.620   1.181  -3.241  0.00  0.00    +0.169 A 
ATOM      9  N   UNL     1       0.099   2.011  -2.281  0.00  0.00    -0.288 N 
ATOM     10 CL   UNL     1       0.988  -2.335  -4.860  0.00  0.00    -0.041 Cl
ATOM     11  N   UNL     1       2.911   2.135  -5.969  0.00  0.00    -0.341 N 
ATOM     12  H   UNL     1       2.371   2.857  -6.401  0.00  0.00    +0.144 HD
ATOM     13  H   UNL     1       3.367   1.708  -6.711  0.00  0.00    +0.144 HD
ENDROOT
BRANCH   9  14
ATOM     14  C1* UNL     1      -0.811   1.623  -1.200  0.00  0.00    +0.225 C 
ATOM     15  C2* UNL     1      -0.013   1.086   0.008  0.00  0.00    +0.088 C 
ATOM     16  C3* UNL     1      -0.788   1.610   1.237  0.00  0.00    +0.150 C 
ATOM     17  C4* UNL     1      -1.968   2.402   0.623  0.00  0.00    +0.175 C 
ATOM     18  O4* UNL     1      -1.513   2.779  -0.694  0.00  0.00    -0.348 OA
BRANCH  16  19
ATOM     19  O3* UNL     1       0.040   2.470   2.022  0.00  0.00    -0.389 OA
ATOM     20  H3* UNL     1       0.828   2.038   2.380  0.00  0.00    +0.210 HD
ENDBRANCH  16  19
BRANCH  17  21
ATOM     21  C5* UNL     1      -2.265   3.647   1.461  0.00  0.00    +0.190 C 
BRANCH  21  22
ATOM     22  O5* UNL     1      -3.383   4.341   0.903  0.00  0.00    -0.392 OA
ATOM     23  H5* UNL     1      -3.628   5.143   1.385  0.00  0.00    +0.210 HD
ENDBRANCH  21  22
ENDBRANCH  17  21
ENDBRANCH   9  14
TORSDOF 4
