REMARK  Name = ZINC21227761
REMARK  7 active torsions:
REMARK  status: ('A' for Active; 'I' for Inactive)
REMARK    1  A    between atoms: C_1  and  C_2
REMARK    2  A    between atoms: C_2  and  C_4
REMARK    3  A    between atoms: C_2  and  S_16
REMARK    4  A    between atoms: N_6  and  C_7
REMARK    5  A    between atoms: C_10  and  C_13
REMARK    6  A    between atoms: S_16  and  C_17
REMARK    7  A    between atoms: N_30  and  C_31
REMARK                            x       y       z     vdW  Elec       q    Type
REMARK                         _______ _______ _______ _____ _____    ______ ____
ROOT
ATOM      1  C   UNL     1      -6.930   0.075   0.730  0.00  0.00    +0.174 A 
ATOM      2  N   UNL     1      -6.138   0.571   1.671  0.00  0.00    -0.216 NA
ATOM      3  C   UNL     1      -4.861   0.752   1.357  0.00  0.00    +0.117 A 
ATOM      4  C   UNL     1      -4.307   0.448   0.092  0.00  0.00    +0.076 A 
ATOM      5  C   UNL     1      -2.887   0.713  -0.065  0.00  0.00    -0.023 A 
ATOM      6  C   UNL     1      -2.242   1.221   1.010  0.00  0.00    -0.004 A 
ATOM      7  S   UNL     1      -3.483   1.369   2.271  0.00  0.00    -0.073 S 
ATOM      8  C   UNL     1      -0.787   1.579   1.115  0.00  0.00    +0.043 C 
ATOM      9  C   UNL     1      -0.048   0.940  -0.069  0.00  0.00    +0.005 C 
ATOM     10  C   UNL     1      -0.827   1.237  -1.355  0.00  0.00    +0.005 C 
ATOM     11  C   UNL     1      -2.133   0.443  -1.364  0.00  0.00    +0.037 C 
ATOM     12  C   UNL     1      -5.194  -0.087  -0.899  0.00  0.00    +0.263 A 
ATOM     13  O   UNL     1      -4.811  -0.379  -2.019  0.00  0.00    -0.267 OA
ATOM     14  N   UNL     1      -6.482  -0.246  -0.515  0.00  0.00    -0.284 N 
ENDROOT
BRANCH  14  15
ATOM     15  C   UNL     1      -7.438  -0.789  -1.484  0.00  0.00    +0.093 C 
ATOM     16  C   UNL     1      -6.966  -2.174  -1.972  0.00  0.00    +0.025 C 
ATOM     17  C   UNL     1      -7.355  -2.200  -3.472  0.00  0.00    +0.002 C 
ATOM     18  C   UNL     1      -7.067  -0.748  -3.926  0.00  0.00    +0.002 C 
ATOM     19  C   UNL     1      -7.503   0.118  -2.725  0.00  0.00    +0.025 C 
ENDBRANCH  14  15
BRANCH   1  20
ATOM     20  S   UNL     1      -8.633  -0.178   1.107  0.00  0.00    -0.075 S 
BRANCH  20  22
ATOM     21  C   UNL     1      -7.805  -0.529   3.686  0.00  0.00    +0.029 C 
ATOM     22  C   UNL     1      -8.664   0.396   2.823  0.00  0.00    +0.137 C 
BRANCH  22  23
ATOM     23  C   UNL     1     -10.082   0.384   3.331  0.00  0.00    +0.230 C 
ATOM     24  O   UNL     1     -10.899  -0.361   2.832  0.00  0.00    -0.274 OA
ATOM     25  N   UNL     1     -10.444   1.202   4.339  0.00  0.00    -0.285 N 
ATOM     26  H   UNL     1      -9.686   1.815   4.849  0.00  0.00    +0.155 HD
BRANCH  25  27
ATOM     27  C   UNL     1     -11.779   1.271   4.736  0.00  0.00    +0.033 A 
ATOM     28  C   UNL     1     -12.792   1.126   3.793  0.00  0.00    +0.024 A 
ATOM     29  C   UNL     1     -14.111   1.189   4.183  0.00  0.00    +0.015 A 
ATOM     30  C   UNL     1     -14.432   1.410   5.525  0.00  0.00    +0.037 A 
ATOM     31  C   UNL     1     -13.412   1.561   6.468  0.00  0.00    +0.015 A 
ATOM     32  C   UNL     1     -12.095   1.491   6.073  0.00  0.00    +0.024 A 
BRANCH  30  33
ATOM     33  C   UNL     1     -15.845   1.483   5.945  0.00  0.00    +0.242 C 
ATOM     34  O   UNL     1     -16.123   1.675   7.113  0.00  0.00    -0.270 OA
ATOM     35  N   UNL     1     -16.827   1.338   5.034  0.00  0.00    -0.325 N 
ATOM     36  H   UNL     1     -17.880   1.393   5.347  0.00  0.00    +0.145 HD
ATOM     37  H   UNL     1     -16.576   1.164   3.977  0.00  0.00    +0.145 HD
ENDBRANCH  30  33
ENDBRANCH  25  27
ENDBRANCH  22  23
ENDBRANCH  20  22
ENDBRANCH   1  20
TORSDOF 6
