REMARK  Name = ZINC07677493
REMARK  5 active torsions:
REMARK  status: ('A' for Active; 'I' for Inactive)
REMARK    1  A    between atoms: C_1  and  C_2
REMARK    2  A    between atoms: C_5  and  S_9
REMARK    3  A    between atoms: C_6  and  C_8
REMARK    4  A    between atoms: S_9  and  C_10
REMARK    5  A    between atoms: C_10  and  C_11
REMARK                            x       y       z     vdW  Elec       q    Type
REMARK                         _______ _______ _______ _____ _____    ______ ____
ROOT
ATOM      1  C   UNL     1      -3.438  -1.770   0.010  0.00  0.00    +0.146 A 
ATOM      2  N   UNL     1      -3.961  -2.168   1.156  0.00  0.00    -0.199 NA
ATOM      3  C   UNL     1      -5.039  -2.950   1.162  0.00  0.00    +0.217 A 
ATOM      4  N   UNL     1      -5.583  -3.336   0.013  0.00  0.00    -0.181 NA
ATOM      5  C   UNL     1      -5.051  -2.938  -1.137  0.00  0.00    +0.217 A 
ATOM      6  N   UNL     1      -3.976  -2.152  -1.135  0.00  0.00    -0.199 NA
ATOM      7  N   UNL     1      -5.612  -3.337  -2.333  0.00  0.00    -0.327 N 
ATOM      8  N   UNL     1      -5.588  -3.361   2.359  0.00  0.00    -0.327 N 
ATOM      9  H   UNL     1      -5.222  -3.046  -3.173  0.00  0.00    +0.145 HD
ATOM     10  H   UNL     1      -6.395  -3.909  -2.334  0.00  0.00    +0.145 HD
ATOM     11  H   UNL     1      -6.371  -3.933   2.362  0.00  0.00    +0.145 HD
ATOM     12  H   UNL     1      -5.191  -3.078   3.197  0.00  0.00    +0.145 HD
ENDROOT
BRANCH   1  13
ATOM     13  C   UNL     1      -2.221  -0.881   0.009  0.00  0.00    +0.150 C 
BRANCH  13  14
ATOM     14  S   UNL     1      -2.741   0.857   0.020  0.00  0.00    -0.117 S 
BRANCH  14  19
ATOM     15  C   UNL     1       2.452   3.935  -0.001  0.00  0.00    +0.044 C 
ATOM     16  C   UNL     1       1.155   3.166   0.008  0.00  0.00    -0.050 A 
ATOM     17  C   UNL     1       1.173   1.783   0.000  0.00  0.00    +0.004 A 
ATOM     18  C   UNL     1      -0.013   1.076   0.008  0.00  0.00    +0.015 A 
ATOM     19  C   UNL     1      -1.225   1.755   0.017  0.00  0.00    +0.011 A 
ATOM     20  C   UNL     1      -1.239   3.145   0.029  0.00  0.00    -0.037 A 
ATOM     21  C   UNL     1      -0.049   3.845   0.022  0.00  0.00    +0.007 A 
ATOM     22  C   UNL     1      -2.551   3.886   0.044  0.00  0.00    +0.045 C 
ENDBRANCH  14  19
ENDBRANCH  13  14
ENDBRANCH   1  13
TORSDOF 3
