REMARK  Name = ZINC65150488
REMARK  10 active torsions:
REMARK  status: ('A' for Active; 'I' for Inactive)
REMARK    1  A    between atoms: C_1  and  C_2
REMARK    2  A    between atoms: C_2  and  N_3
REMARK    3  A    between atoms: N_3  and  C_4
REMARK    4  A    between atoms: N_3  and  C_6
REMARK    5  A    between atoms: C_4  and  C_5
REMARK    6  A    between atoms: C_9  and  N_13
REMARK    7  A    between atoms: C_10  and  C_12
REMARK    8  A    between atoms: C_14  and  C_16
REMARK    9  A    between atoms: C_18  and  O_33
REMARK   10  A    between atoms: C_28  and  C_32
REMARK                            x       y       z     vdW  Elec       q    Type
REMARK                         _______ _______ _______ _____ _____    ______ ____
ROOT
ATOM      1  N   UNL     1      -1.303  -6.060   0.439  0.00  0.00    -0.284 N 
ATOM      2  C   UNL     1      -0.775  -6.805  -0.552  0.00  0.00    +0.237 C 
ATOM      3  O   UNL     1      -0.234  -6.266  -1.494  0.00  0.00    -0.274 OA
ATOM      4  H   UNL     1      -1.678  -6.491   1.223  0.00  0.00    +0.155 HD
ENDROOT
BRANCH   2   5
ATOM      5  C   UNL     1      -0.857  -8.309  -0.489  0.00  0.00    +0.228 C 
ATOM      6  C   UNL     1      -0.276  -8.855  -1.774  0.00  0.00    +0.125 C 
ATOM      7  C   UNL     1       0.802  -9.735  -1.679  0.00  0.00    +0.047 A 
ATOM      8  C   UNL     1       1.527 -10.391  -2.782  0.00  0.00    -0.025 A 
ATOM      9  C   UNL     1       2.541 -11.204  -2.456  0.00  0.00    -0.004 A 
ATOM     10  S   UNL     1       2.638 -11.185  -0.686  0.00  0.00    -0.076 S 
ATOM     11  C   UNL     1       1.297 -10.066  -0.343  0.00  0.00    +0.105 A 
ATOM     12  N   UNL     1       0.793  -9.591   0.780  0.00  0.00    -0.172 NA
ATOM     13  C   UNL     1      -0.230  -8.751   0.813  0.00  0.00    +0.257 C 
ATOM     14  O   UNL     1      -0.657  -8.341   1.876  0.00  0.00    -0.272 OA
ATOM     15  C   UNL     1       3.420 -11.978  -3.397  0.00  0.00    +0.046 C 
ATOM     16  C   UNL     1       2.754 -11.998  -4.779  0.00  0.00    -0.009 C 
ATOM     17  C   UNL     1       2.316 -10.574  -5.133  0.00  0.00    +0.008 C 
ATOM     18  C   UNL     1       1.144 -10.159  -4.243  0.00  0.00    +0.037 C 
ATOM     19  C   UNL     1       3.752 -12.506  -5.822  0.00  0.00    +0.008 C 
BRANCH   6  20
ATOM     20  O   UNL     1      -0.783  -8.506  -2.967  0.00  0.00    -0.509 OA
ATOM     21  H   UNL     1      -1.529  -7.892  -2.914  0.00  0.00    +0.292 HD
ENDBRANCH   6  20
ENDBRANCH   2   5
BRANCH   1  25
ATOM     22  C   UNL     1      -1.326  -1.905   0.135  0.00  0.00    +0.014 A 
ATOM     23  C   UNL     1      -0.269  -2.629  -0.386  0.00  0.00    +0.023 A 
ATOM     24  C   UNL     1      -0.258  -4.006  -0.287  0.00  0.00    +0.025 A 
ATOM     25  C   UNL     1      -1.310  -4.664   0.337  0.00  0.00    +0.036 A 
ATOM     26  C   UNL     1      -2.370  -3.934   0.860  0.00  0.00    -0.028 A 
ATOM     27  C   UNL     1      -2.372  -2.556   0.761  0.00  0.00    +0.026 A 
ATOM     28  C   UNL     1      -3.513  -4.644   1.538  0.00  0.00    +0.046 C 
BRANCH  22  29
ATOM     29  N   UNL     1      -1.333  -0.511   0.033  0.00  0.00    -0.394 NA
ATOM     30  H   UNL     1      -2.168  -0.146   0.466  0.00  0.00    +0.126 HD
BRANCH  29  32
ATOM     31  C   UNL     1      -0.223   1.565   0.709  0.00  0.00    +0.022 C 
ATOM     32  C   UNL     1      -0.151   0.036   0.712  0.00  0.00    +0.081 C 
ENDBRANCH  29  32
BRANCH  29  33
ATOM     33  C   UNL     1      -1.307  -0.123  -1.384  0.00  0.00    +0.081 C 
ATOM     34  C   UNL     1      -2.597  -0.586  -2.063  0.00  0.00    +0.022 C 
ENDBRANCH  29  33
ENDBRANCH  22  29
ENDBRANCH   1  25
TORSDOF 6
