REMARK  Name = ZINC63121461
REMARK  7 active torsions:
REMARK  status: ('A' for Active; 'I' for Inactive)
REMARK    1  A    between atoms: C_1  and  O_2
REMARK    2  A    between atoms: O_2  and  C_3
REMARK    3  A    between atoms: C_8  and  S_13
REMARK    4  A    between atoms: S_13  and  C_14
REMARK    5  A    between atoms: C_14  and  C_15
REMARK    6  A    between atoms: N_17  and  C_18
REMARK    7  A    between atoms: C_20  and  C_29
REMARK                            x       y       z     vdW  Elec       q    Type
REMARK                         _______ _______ _______ _____ _____    ______ ____
ROOT
ATOM      1  C   UNL     1       4.629  -3.800  -2.332  0.00  0.00    +0.168 C 
ENDROOT
BRANCH   1   2
ATOM      2  C   UNL     1       5.981  -4.404  -2.053  0.00  0.00    +0.224 C 
ATOM      3  O   UNL     1       6.335  -5.401  -2.648  0.00  0.00    -0.275 OA
ATOM      4  N   UNL     1       6.797  -3.838  -1.142  0.00  0.00    -0.298 N 
ATOM      5  H   UNL     1       6.514  -3.041  -0.667  0.00  0.00    +0.150 HD
BRANCH   4   6
ATOM      6  C   UNL     1       8.112  -4.425  -0.871  0.00  0.00    +0.172 C 
ATOM      7  C   UNL     1       9.200  -3.367  -0.897  0.00  0.00    +0.060 C 
ATOM      8  C   UNL     1      10.292  -3.602  -1.579  0.00  0.00    -0.041 C 
ATOM      9  C   UNL     1      11.428  -2.602  -1.799  0.00  0.00    +0.033 C 
ATOM     10  C   UNL     1      12.598  -3.396  -2.386  0.00  0.00    +0.004 C 
ATOM     11  C   UNL     1      12.235  -4.046  -3.713  0.00  0.00    +0.002 C 
ATOM     12  C   UNL     1      10.830  -4.643  -3.720  0.00  0.00    +0.019 C 
ATOM     13  C   UNL     1      10.404  -4.961  -2.286  0.00  0.00    +0.075 C 
ATOM     14  S   UNL     1       8.651  -5.518  -2.257  0.00  0.00    -0.125 S 
BRANCH   7  15
ATOM     15  C   UNL     1       9.034  -2.134  -0.189  0.00  0.00    +0.098 C 
ATOM     16  N   UNL     1       8.902  -1.155   0.373  0.00  0.00    -0.191 NA
ENDBRANCH   7  15
ENDBRANCH   4   6
ENDBRANCH   1   2
BRANCH   1  17
ATOM     17  S   UNL     1       3.777  -4.784  -3.596  0.00  0.00    -0.106 S 
BRANCH  17  23
ATOM     18  C   UNL     1       0.605  -0.606  -1.054  0.00  0.00    +0.122 A 
ATOM     19  C   UNL     1       1.193   0.221  -2.099  0.00  0.00    +0.048 A 
ATOM     20  C   UNL     1       1.804  -0.317  -3.171  0.00  0.00    +0.031 A 
ATOM     21  C   UNL     1       1.890  -1.778  -3.307  0.00  0.00    +0.061 A 
ATOM     22  N   UNL     1       2.412  -2.544  -4.221  0.00  0.00    -0.355 N 
ATOM     23  C   UNL     1       2.188  -3.936  -3.814  0.00  0.00    +0.236 C 
ATOM     24  N   UNL     1       1.464  -3.883  -2.538  0.00  0.00    -0.355 N 
ATOM     25  C   UNL     1       1.289  -2.624  -2.240  0.00  0.00    +0.064 A 
ATOM     26  C   UNL     1       0.647  -1.960  -1.104  0.00  0.00    +0.073 A 
ATOM     27  H   UNL     1       2.866  -2.248  -5.026  0.00  0.00    +0.162 HD
ATOM     28  H   UNL     1       1.170  -4.644  -2.012  0.00  0.00    +0.162 HD
BRANCH  18  30
ATOM     29  C   UNL     1      -0.017   1.425   0.010  0.00  0.00    +0.277 C 
ATOM     30  O   UNL     1       0.002  -0.004   0.002  0.00  0.00    -0.495 OA
ENDBRANCH  18  30
ENDBRANCH  17  23
ENDBRANCH   1  17
TORSDOF 6
