REMARK  Name = ZINC40173059
REMARK  7 active torsions:
REMARK  status: ('A' for Active; 'I' for Inactive)
REMARK    1  A    between atoms: C_1  and  C_2
REMARK    2  A    between atoms: C_2  and  C_4
REMARK    3  A    between atoms: C_2  and  N_19
REMARK    4  A    between atoms: C_9  and  C_12
REMARK    5  A    between atoms: C_23  and  S_24
REMARK    6  A    between atoms: S_24  and  C_25
REMARK    7  A    between atoms: C_25  and  C_26
REMARK                            x       y       z     vdW  Elec       q    Type
REMARK                         _______ _______ _______ _____ _____    ______ ____
ROOT
ATOM      1  C   UNL     1      -0.019   1.526   0.010  0.00  0.00    +0.041 C 
ATOM      2  C   UNL     1       0.002  -0.004   0.002  0.00  0.00    +0.175 C 
ENDROOT
BRANCH   2   3
ATOM      3  C   UNL     1       0.731  -0.503   1.223  0.00  0.00    +0.241 C 
ATOM      4  O   UNL     1       0.159  -1.213   2.023  0.00  0.00    -0.273 OA
ATOM      5  N   UNL     1       2.019  -0.161   1.426  0.00  0.00    -0.263 N 
ATOM      6  C   UNL     1       2.691  -0.622   2.551  0.00  0.00    +0.165 A 
ATOM      7  N   UNL     1       3.935  -0.399   2.930  0.00  0.00    -0.225 NA
ATOM      8  C   UNL     1       4.419  -0.923   4.047  0.00  0.00    +0.080 A 
ATOM      9  C   UNL     1       3.613  -1.710   4.822  0.00  0.00    +0.076 A 
ATOM     10  S   UNL     1       2.097  -1.666   3.875  0.00  0.00    -0.060 S 
ATOM     11  H   UNL     1       2.476   0.406   0.786  0.00  0.00    +0.157 HD
BRANCH   8  12
ATOM     12  C   UNL     1       5.821  -0.659   4.452  0.00  0.00    +0.001 A 
ATOM     13  C   UNL     1       6.327  -1.218   5.624  0.00  0.00    +0.011 A 
ATOM     14  C   UNL     1       7.633  -0.969   5.996  0.00  0.00    +0.020 A 
ATOM     15  C   UNL     1       8.439  -0.166   5.208  0.00  0.00    +0.041 A 
ATOM     16  C   UNL     1       7.940   0.392   4.043  0.00  0.00    +0.020 A 
ATOM     17  C   UNL     1       6.639   0.144   3.658  0.00  0.00    +0.011 A 
ATOM     18 CL   UNL     1      10.080   0.143   5.683  0.00  0.00    -0.084 Cl
ENDBRANCH   8  12
ENDBRANCH   2   3
BRANCH   2  19
ATOM     19  N   UNL     1      -1.372  -0.511   0.012  0.00  0.00    -0.279 N 
ATOM     20  C   UNL     1      -2.309  -0.271   0.977  0.00  0.00    +0.216 A 
ATOM     21  N   UNL     1      -3.412  -0.891   0.634  0.00  0.00    -0.113 NA
ATOM     22  N   UNL     1      -3.179  -1.548  -0.581  0.00  0.00    -0.121 NA
ATOM     23  C   UNL     1      -1.944  -1.303  -0.944  0.00  0.00    +0.194 A 
ATOM     24  N   UNL     1      -2.126   0.496   2.120  0.00  0.00    -0.328 N 
ATOM     25  H   UNL     1      -1.269   0.918   2.289  0.00  0.00    +0.145 HD
ATOM     26  H   UNL     1      -2.855   0.610   2.750  0.00  0.00    +0.145 HD
BRANCH  23  27
ATOM     27  S   UNL     1      -1.157  -1.893  -2.406  0.00  0.00    -0.081 S 
BRANCH  27  28
ATOM     28  C   UNL     1      -2.442  -2.872  -3.231  0.00  0.00    +0.114 C 
BRANCH  28  29
ATOM     29  C   UNL     1      -1.893  -3.442  -4.514  0.00  0.00    -0.019 A 
ATOM     30  C   UNL     1      -2.000  -2.725  -5.691  0.00  0.00    +0.006 A 
ATOM     31  C   UNL     1      -1.497  -3.249  -6.867  0.00  0.00    +0.000 A 
ATOM     32  C   UNL     1      -0.886  -4.489  -6.867  0.00  0.00    +0.001 A 
ATOM     33  C   UNL     1      -0.778  -5.206  -5.691  0.00  0.00    +0.020 A 
ATOM     34  C   UNL     1      -1.277  -4.681  -4.512  0.00  0.00    +0.045 A 
ATOM     35 CL   UNL     1      -1.136  -5.578  -3.033  0.00  0.00    -0.083 Cl
ENDBRANCH  28  29
ENDBRANCH  27  28
ENDBRANCH  23  27
ENDBRANCH   2  19
TORSDOF 6
