REMARK  Name = ZINC36547844
REMARK  12 active torsions:
REMARK  status: ('A' for Active; 'I' for Inactive)
REMARK    1  A    between atoms: C_1  and  C_2
REMARK    2  A    between atoms: C_5  and  S_8
REMARK    3  A    between atoms: S_8  and  C_11
REMARK    4  A    between atoms: C_11  and  N_12
REMARK    5  A    between atoms: C_13  and  C_15
REMARK    6  A    between atoms: C_15  and  C_17
REMARK    7  A    between atoms: C_15  and  N_25
REMARK    8  A    between atoms: C_20  and  O_23
REMARK    9  A    between atoms: O_23  and  C_24
REMARK   10  A    between atoms: N_25  and  C_26
REMARK   11  A    between atoms: C_33  and  C_35
REMARK   12  A    between atoms: C_35  and  O_36
REMARK                            x       y       z     vdW  Elec       q    Type
REMARK                         _______ _______ _______ _____ _____    ______ ____
ROOT
ATOM      1  C   UNL     1       2.902  -4.796   3.552  0.00  0.00    +0.197 C 
ENDROOT
BRANCH   1   2
ATOM      2  C   UNL     1       4.370  -4.743   3.213  0.00  0.00    -0.018 A 
ATOM      3  C   UNL     1       5.095  -5.915   3.098  0.00  0.00    +0.009 A 
ATOM      4  C   UNL     1       6.440  -5.868   2.788  0.00  0.00    +0.046 A 
ATOM      5  C   UNL     1       7.064  -4.645   2.593  0.00  0.00    +0.120 A 
ATOM      6  C   UNL     1       6.335  -3.470   2.709  0.00  0.00    +0.046 A 
ATOM      7  C   UNL     1       4.988  -3.522   3.014  0.00  0.00    +0.009 A 
BRANCH   5   8
ATOM      8  O   UNL     1       8.388  -4.597   2.289  0.00  0.00    -0.495 OA
ATOM      9  C   UNL     1       8.964  -3.302   2.101  0.00  0.00    +0.277 C 
ENDBRANCH   5   8
ENDBRANCH   1   2
BRANCH   1  11
ATOM     10  N   UNL     1       1.544  -4.375   1.528  0.00  0.00    -0.294 N 
ATOM     11  C   UNL     1       2.127  -5.270   2.350  0.00  0.00    +0.240 C 
ATOM     12  O   UNL     1       2.027  -6.457   2.123  0.00  0.00    -0.273 OA
ATOM     13  H   UNL     1       1.623  -3.426   1.710  0.00  0.00    +0.150 HD
BRANCH  10  14
ATOM     14  C   UNL     1       0.790  -4.836   0.360  0.00  0.00    +0.278 C 
BRANCH  14  15
ATOM     15  S   UNL     1      -0.971  -4.946   0.781  0.00  0.00    +0.013 S 
ATOM     16  O   UNL     1      -1.137  -5.622   2.020  0.00  0.00    -0.168 OA
ATOM     17  O   UNL     1      -1.725  -5.332  -0.360  0.00  0.00    -0.168 OA
BRANCH  15  22
ATOM     18  C   UNL     1      -2.661   0.739   1.891  0.00  0.00    +0.044 C 
ATOM     19  C   UNL     1      -2.239  -0.681   1.614  0.00  0.00    -0.050 A 
ATOM     20  C   UNL     1      -2.329  -1.191   0.333  0.00  0.00    +0.005 A 
ATOM     21  C   UNL     1      -1.942  -2.494   0.078  0.00  0.00    +0.027 A 
ATOM     22  C   UNL     1      -1.464  -3.286   1.105  0.00  0.00    +0.090 A 
ATOM     23  C   UNL     1      -1.372  -2.775   2.387  0.00  0.00    +0.027 A 
ATOM     24  C   UNL     1      -1.755  -1.472   2.640  0.00  0.00    +0.005 A 
ENDBRANCH  15  22
ENDBRANCH  14  15
ENDBRANCH  10  14
ENDBRANCH   1  11
BRANCH   1  25
ATOM     25  N   UNL     1       2.691  -5.723   4.666  0.00  0.00    -0.252 N 
ATOM     26  C   UNL     1       3.210  -5.448   5.879  0.00  0.00    +0.246 C 
ATOM     27  O   UNL     1       3.106  -6.253   6.780  0.00  0.00    -0.273 OA
BRANCH  25  28
ATOM     28  C   UNL     1       1.951  -6.895   4.471  0.00  0.00    +0.056 A 
ATOM     29  C   UNL     1       2.600  -8.091   4.194  0.00  0.00    +0.025 A 
ATOM     30  C   UNL     1       1.867  -9.245   4.002  0.00  0.00    +0.002 A 
ATOM     31  C   UNL     1       0.487  -9.212   4.085  0.00  0.00    +0.002 A 
ATOM     32  C   UNL     1      -0.164  -8.023   4.360  0.00  0.00    +0.022 A 
ATOM     33  C   UNL     1       0.565  -6.865   4.560  0.00  0.00    +0.062 A 
ATOM     34 CL   UNL     1      -0.252  -5.375   4.913  0.00  0.00    -0.082 Cl
ENDBRANCH  25  28
BRANCH  26  35
ATOM     35  C   UNL     1       3.921  -4.140   6.116  0.00  0.00    +0.252 C 
BRANCH  35  36
ATOM     36  O   UNL     1       4.435  -4.112   7.449  0.00  0.00    -0.386 OA
ATOM     37  H   UNL     1       4.906  -3.297   7.671  0.00  0.00    +0.210 HD
ENDBRANCH  35  36
ENDBRANCH  26  35
ENDBRANCH   1  25
TORSDOF 10
