REMARK  Name = ZINC36303541
REMARK  17 active torsions:
REMARK  status: ('A' for Active; 'I' for Inactive)
REMARK    1  A    between atoms: C_1  and  C_2
REMARK    2  A    between atoms: C_3  and  C_21
REMARK    3  A    between atoms: C_4  and  O_13
REMARK    4  A    between atoms: N_5  and  C_7
REMARK    5  A    between atoms: O_13  and  C_14
REMARK    6  A    between atoms: C_21  and  N_22
REMARK    7  A    between atoms: N_22  and  C_23
REMARK    8  A    between atoms: N_22  and  C_30
REMARK    9  A    between atoms: C_23  and  C_24
REMARK   10  A    between atoms: C_30  and  C_31
REMARK   11  A    between atoms: C_31  and  C_33
REMARK   12  A    between atoms: C_31  and  O_39
REMARK   13  A    between atoms: C_33  and  O_34
REMARK   14  A    between atoms: O_34  and  C_35
REMARK   15  A    between atoms: C_35  and  C_36
REMARK   16  A    between atoms: C_36  and  C_37
REMARK   17  A    between atoms: C_36  and  C_38
REMARK                            x       y       z     vdW  Elec       q    Type
REMARK                         _______ _______ _______ _____ _____    ______ ____
ROOT
ATOM      1  C   UNL     1       0.260   1.237   0.183  0.00  0.00    +0.068 C 
ATOM      2  C   UNL     1       0.040  -0.231  -0.075  0.00  0.00    +0.065 A 
ATOM      3  C   UNL     1      -0.008  -0.842  -1.332  0.00  0.00    +0.021 A 
ATOM      4  C   UNL     1      -0.223  -2.171  -1.143  0.00  0.00    +0.225 A 
ATOM      5  N   UNL     1      -0.307  -2.385   0.198  0.00  0.00    -0.200 N 
ATOM      6  N   UNL     1      -0.133  -1.151   0.839  0.00  0.00    -0.168 NA
ENDROOT
BRANCH   5   7
ATOM      7  C   UNL     1      -0.523  -3.619   0.826  0.00  0.00    +0.069 A 
ATOM      8  C   UNL     1      -1.459  -4.506   0.311  0.00  0.00    +0.028 A 
ATOM      9  C   UNL     1      -1.670  -5.722   0.932  0.00  0.00    +0.002 A 
ATOM     10  C   UNL     1      -0.950  -6.056   2.065  0.00  0.00    +0.000 A 
ATOM     11  C   UNL     1      -0.018  -5.174   2.579  0.00  0.00    +0.002 A 
ATOM     12  C   UNL     1       0.202  -3.959   1.960  0.00  0.00    +0.028 A 
ENDBRANCH   5   7
BRANCH   4  13
ATOM     13  O   UNL     1      -0.334  -3.113  -2.114  0.00  0.00    -0.436 OA
BRANCH  13  14
ATOM     14  C   UNL     1      -1.551  -3.292  -2.692  0.00  0.00    +0.149 A 
ATOM     15  C   UNL     1      -2.653  -2.591  -2.225  0.00  0.00    +0.048 A 
ATOM     16  C   UNL     1      -3.888  -2.775  -2.815  0.00  0.00    +0.004 A 
ATOM     17  C   UNL     1      -4.028  -3.658  -3.870  0.00  0.00    +0.002 A 
ATOM     18  C   UNL     1      -2.932  -4.358  -4.339  0.00  0.00    +0.024 A 
ATOM     19  C   UNL     1      -1.692  -4.174  -3.756  0.00  0.00    +0.083 A 
ATOM     20 CL   UNL     1      -0.314  -5.048  -4.349  0.00  0.00    -0.080 Cl
ENDBRANCH  13  14
ENDBRANCH   4  13
BRANCH   3  21
ATOM     21  C   UNL     1       0.149  -0.149  -2.661  0.00  0.00    -0.036 C 
BRANCH  21  22
ATOM     22  N   UNL     1       1.513   0.385  -2.776  0.00  0.00    +0.386 N 
ATOM     23  H   UNL     1       1.774   0.829  -1.908  0.00  0.00    -0.081 HD
BRANCH  22  24
ATOM     24  C   UNL     1       2.446  -0.711  -3.066  0.00  0.00    -0.046 C 
BRANCH  24  25
ATOM     25  C   UNL     1       2.583  -1.604  -1.831  0.00  0.00    +0.102 C 
ATOM     26  C   UNL     1       3.720  -2.636  -2.037  0.00  0.00    +0.032 C 
ATOM     27  C   UNL     1       4.109  -2.944  -0.565  0.00  0.00    +0.030 C 
ATOM     28  C   UNL     1       3.885  -1.581   0.125  0.00  0.00    +0.160 C 
ATOM     29  O   UNL     1       2.983  -0.824  -0.693  0.00  0.00    -0.378 OA
ENDBRANCH  24  25
ENDBRANCH  22  24
BRANCH  22  30
ATOM     30  C   UNL     1       1.562   1.371  -3.864  0.00  0.00    -0.044 C 
BRANCH  30  31
ATOM     31  C   UNL     1       2.935   2.045  -3.880  0.00  0.00    +0.124 C 
BRANCH  31  32
ATOM     32  O   UNL     1       3.164   2.689  -2.624  0.00  0.00    -0.391 OA
ATOM     33  H   UNL     1       2.513   3.371  -2.408  0.00  0.00    +0.210 HD
ENDBRANCH  31  32
BRANCH  31  34
ATOM     34  C   UNL     1       2.980   3.085  -5.001  0.00  0.00    +0.189 C 
BRANCH  34  35
ATOM     35  O   UNL     1       4.297   3.632  -5.091  0.00  0.00    -0.377 OA
BRANCH  35  36
ATOM     36  C   UNL     1       4.449   4.618  -6.114  0.00  0.00    +0.163 C 
BRANCH  36  37
ATOM     37  C   UNL     1       5.890   5.131  -6.119  0.00  0.00    +0.009 C 
ATOM     38  C   UNL     1       6.085   6.095  -7.291  0.00  0.00    +0.009 C 
ATOM     39  C   UNL     1       6.175   5.863  -4.805  0.00  0.00    +0.009 C 
ENDBRANCH  36  37
ENDBRANCH  35  36
ENDBRANCH  34  35
ENDBRANCH  31  34
ENDBRANCH  30  31
ENDBRANCH  22  30
ENDBRANCH  21  22
ENDBRANCH   3  21
TORSDOF 14
