REMARK  Name = ZINC39669484
REMARK  7 active torsions:
REMARK  status: ('A' for Active; 'I' for Inactive)
REMARK    1  A    between atoms: C_4  and  C_7
REMARK    2  A    between atoms: C_7  and  C_8
REMARK    3  A    between atoms: C_8  and  C_9
REMARK    4  A    between atoms: C_9  and  C_10
REMARK    5  A    between atoms: C_14  and  C_23
REMARK    6  A    between atoms: N_25  and  C_26
REMARK    7  A    between atoms: C_26  and  C_27
REMARK                            x       y       z     vdW  Elec       q    Type
REMARK                         _______ _______ _______ _____ _____    ______ ____
ROOT
ATOM      1  C   UNL     1       5.961  -2.003   2.955  0.00  0.00    +0.216 C 
ATOM      2  O   UNL     1       5.331  -1.587   3.904  0.00  0.00    -0.276 OA
ATOM      3  N   UNL     1       7.142  -2.623   3.150  0.00  0.00    -0.300 N 
ATOM      4  C   UNL     1       8.051  -3.188   2.125  0.00  0.00    +0.121 C 
ATOM      5  C   UNL     1       9.470  -2.836   2.626  0.00  0.00    +0.100 C 
ATOM      6  C   UNL     1       9.315  -2.647   4.144  0.00  0.00    -0.004 C 
ATOM      7  C   UNL     1       7.827  -2.889   4.437  0.00  0.00    +0.115 C 
ATOM      8  C   UNL     1      10.174  -3.660   4.893  0.00  0.00    -0.010 C 
ATOM      9  C   UNL     1      10.048  -3.414   6.399  0.00  0.00    -0.082 C 
ATOM     10  N   UNL     1      10.483  -2.047   6.713  0.00  0.00    +0.379 N 
ATOM     11  C   UNL     1       9.593  -1.078   6.062  0.00  0.00    -0.082 C 
ATOM     12  C   UNL     1       9.700  -1.225   4.541  0.00  0.00    -0.010 C 
ATOM     13  H   UNL     1      10.457  -1.908   7.712  0.00  0.00    -0.086 HD
ATOM     14  H   UNL     1      11.426  -1.912   6.381  0.00  0.00    -0.086 HD
ENDROOT
BRANCH   5  15
ATOM     15  C   UNL     1      10.425  -3.963   2.330  0.00  0.00    +0.218 C 
ATOM     16  O   UNL     1      10.025  -5.107   2.307  0.00  0.00    -0.275 OA
ATOM     17  N   UNL     1      11.725  -3.699   2.090  0.00  0.00    -0.315 N 
ATOM     18  H   UNL     1      12.046  -2.784   2.108  0.00  0.00    +0.149 HD
BRANCH  17  19
ATOM     19  C   UNL     1      12.654  -4.795   1.803  0.00  0.00    +0.109 C 
BRANCH  19  20
ATOM     20  C   UNL     1      14.056  -4.228   1.570  0.00  0.00    +0.024 C 
ATOM     21  C   UNL     1      15.000  -5.356   1.150  0.00  0.00    +0.008 C 
ATOM     22  C   UNL     1      16.395  -4.784   0.885  0.00  0.00    +0.019 C 
ATOM     23  C   UNL     1      16.937  -4.154   2.172  0.00  0.00    +0.108 C 
ATOM     24  N   UNL     1      15.964  -3.169   2.663  0.00  0.00    -0.299 N 
ATOM     25  C   UNL     1      14.571  -3.591   2.865  0.00  0.00    +0.113 C 
ATOM     26  C   UNL     1      16.352  -1.867   2.929  0.00  0.00    +0.218 A 
ATOM     27  N   UNL     1      15.452  -1.003   3.376  0.00  0.00    -0.223 NA
ATOM     28  C   UNL     1      15.790   0.248   3.641  0.00  0.00    +0.116 A 
ATOM     29  C   UNL     1      17.102   0.650   3.446  0.00  0.00    +0.039 A 
ATOM     30  C   UNL     1      18.017  -0.280   2.978  0.00  0.00    +0.116 A 
ATOM     31  N   UNL     1      17.615  -1.517   2.737  0.00  0.00    -0.223 NA
ENDBRANCH  19  20
ENDBRANCH  17  19
ENDBRANCH   5  15
BRANCH   1  32
ATOM     32  C   UNL     1       5.425  -1.826   1.558  0.00  0.00    +0.096 C 
BRANCH  32  33
ATOM     33  C   UNL     1       4.081  -1.097   1.616  0.00  0.00    +0.014 C 
BRANCH  33  34
ATOM     34  C   UNL     1       3.536  -0.917   0.198  0.00  0.00    +0.035 C 
BRANCH  34  38
ATOM     35  C   UNL     1      -0.217   1.117   0.358  0.00  0.00    +0.000 A 
ATOM     36  C   UNL     1       0.957   1.839   0.249  0.00  0.00    +0.000 A 
ATOM     37  C   UNL     1       2.171   1.181   0.197  0.00  0.00    +0.003 A 
ATOM     38  C   UNL     1       2.212  -0.200   0.255  0.00  0.00    -0.047 A 
ATOM     39  C   UNL     1       1.039  -0.922   0.365  0.00  0.00    +0.003 A 
ATOM     40  C   UNL     1      -0.176  -0.264   0.416  0.00  0.00    +0.000 A 
ENDBRANCH  34  38
ENDBRANCH  33  34
ENDBRANCH  32  33
ENDBRANCH   1  32
TORSDOF 7
