REMARK  Name = ZINC14528573
REMARK  7 active torsions:
REMARK  status: ('A' for Active; 'I' for Inactive)
REMARK    1  A    between atoms: C_1  and  C_2
REMARK    2  A    between atoms: C_5  and  C_32
REMARK    3  A    between atoms: C_9  and  C_10
REMARK    4  A    between atoms: C_9  and  N_57
REMARK    5  A    between atoms: C_16  and  C_18
REMARK    6  A    between atoms: C_18  and  C_19
REMARK    7  A    between atoms: C_19  and  C_20
REMARK                            x       y       z     vdW  Elec       q    Type
REMARK                         _______ _______ _______ _____ _____    ______ ____
ROOT
ATOM      1  C   UNL     1       0.550   0.691  -7.072  0.00  0.00    +0.034 A 
ATOM      2  C   UNL     1       1.635  -0.054  -6.747  0.00  0.00    +0.070 A 
ATOM      3  S   UNL     1       1.554   0.003  -4.963  0.00  0.00    -0.060 S 
ATOM      4  C   UNL     1       0.127   0.984  -4.833  0.00  0.00    +0.164 A 
ATOM      5  N   UNL     1      -0.184   1.190  -6.098  0.00  0.00    -0.231 NA
ATOM      6  N   UNL     1      -0.524   1.433  -3.689  0.00  0.00    -0.265 N 
ATOM      7  C   UNL     1      -0.047   1.107  -2.471  0.00  0.00    +0.219 C 
ATOM      8  O   UNL     1       0.949   0.422  -2.373  0.00  0.00    -0.275 OA
ATOM      9  H   UNL     1      -1.321   1.980  -3.768  0.00  0.00    +0.157 HD
ENDROOT
BRANCH   1  10
ATOM     10  C   UNL     1       0.189   0.938  -8.514  0.00  0.00    -0.022 C 
BRANCH  10  18
ATOM     11  C   UNL     1      -0.729  -3.831  -9.290  0.00  0.00    +0.005 C 
ATOM     12  C   UNL     1      -1.330  -2.425  -9.264  0.00  0.00    -0.031 C 
ATOM     13  C   UNL     1      -1.942  -2.105 -10.631  0.00  0.00    +0.003 C 
ATOM     14  C   UNL     1      -2.487  -0.674 -10.615  0.00  0.00    -0.031 C 
ATOM     15  C   UNL     1      -1.356   0.294 -10.263  0.00  0.00    -0.075 C 
ATOM     16  C   UNL     1      -0.232  -1.405  -8.951  0.00  0.00    -0.075 C 
ATOM     17  C   UNL     1      -3.599  -0.564  -9.570  0.00  0.00    +0.005 C 
ATOM     18  N   UNL     1      -0.827  -0.052  -8.927  0.00  0.00    +0.384 N 
ATOM     19  H   UNL     1      -1.598  -0.040  -8.249  0.00  0.00    -0.081 HD
ENDBRANCH  10  18
ENDBRANCH   1  10
BRANCH   7  20
ATOM     20  C   UNL     1      -0.753   1.593  -1.232  0.00  0.00    +0.104 C 
BRANCH  20  21
ATOM     21  C   UNL     1      -0.013   1.086   0.008  0.00  0.00    +0.083 C 
BRANCH  21  22
ATOM     22  C   UNL     1      -0.718   1.572   1.248  0.00  0.00    +0.111 A 
ATOM     23  N   UNL     1      -0.208   1.223   2.458  0.00  0.00    -0.310 N 
ATOM     24  H   UNL     1       0.590   0.674   2.503  0.00  0.00    +0.170 HD
ATOM     25  C   UNL     1      -0.804   1.635   3.601  0.00  0.00    +0.259 A 
ATOM     26  O   UNL     1      -0.358   1.330   4.692  0.00  0.00    -0.267 OA
ATOM     27  C   UNL     1      -2.012   2.464   3.474  0.00  0.00    +0.065 A 
ATOM     28  C   UNL     1      -2.700   2.939   4.589  0.00  0.00    +0.015 A 
ATOM     29  C   UNL     1      -3.826   3.714   4.412  0.00  0.00    +0.001 A 
ATOM     30  C   UNL     1      -4.277   4.023   3.136  0.00  0.00    +0.002 A 
ATOM     31  C   UNL     1      -3.612   3.563   2.022  0.00  0.00    +0.028 A 
ATOM     32  C   UNL     1      -2.468   2.776   2.175  0.00  0.00    +0.078 A 
ATOM     33  N   UNL     1      -1.779   2.307   1.105  0.00  0.00    -0.234 NA
ENDBRANCH  21  22
ENDBRANCH  20  21
ENDBRANCH   7  20
TORSDOF 5
