REMARK  Name = ZINC39669419
REMARK  5 active torsions:
REMARK  status: ('A' for Active; 'I' for Inactive)
REMARK    1  A    between atoms: C_1  and  C_2
REMARK    2  A    between atoms: C_6  and  C_9
REMARK    3  A    between atoms: C_13  and  C_22
REMARK    4  A    between atoms: N_24  and  C_25
REMARK    5  A    between atoms: C_25  and  C_26
REMARK                            x       y       z     vdW  Elec       q    Type
REMARK                         _______ _______ _______ _____ _____    ______ ____
ROOT
ATOM      1  C   UNL     1       0.037  -2.823   2.435  0.00  0.00    +0.251 C 
ATOM      2  O   UNL     1       1.102  -3.110   2.947  0.00  0.00    -0.270 OA
ATOM      3  N   UNL     1      -1.116  -3.191   3.028  0.00  0.00    -0.296 N 
ATOM      4  C   UNL     1      -2.499  -2.941   2.558  0.00  0.00    +0.121 C 
ATOM      5  C   UNL     1      -3.264  -4.243   2.884  0.00  0.00    +0.100 C 
ATOM      6  C   UNL     1      -2.465  -4.892   4.027  0.00  0.00    -0.004 C 
ATOM      7  C   UNL     1      -1.287  -3.943   4.294  0.00  0.00    +0.115 C 
ATOM      8  C   UNL     1      -1.945  -6.261   3.598  0.00  0.00    -0.010 C 
ATOM      9  C   UNL     1      -1.203  -6.910   4.769  0.00  0.00    -0.082 C 
ATOM     10  N   UNL     1      -2.114  -7.046   5.912  0.00  0.00    +0.379 N 
ATOM     11  C   UNL     1      -2.537  -5.720   6.377  0.00  0.00    -0.082 C 
ATOM     12  C   UNL     1      -3.335  -5.020   5.273  0.00  0.00    -0.010 C 
ATOM     13  H   UNL     1      -2.925  -7.577   5.633  0.00  0.00    -0.086 HD
ATOM     14  H   UNL     1      -1.641  -7.529   6.662  0.00  0.00    -0.086 HD
ENDROOT
BRANCH   1  20
ATOM     15  C   UNL     1      -0.084   1.530  -0.009  0.00  0.00    +0.047 C 
ATOM     16  C   UNL     1      -0.051   0.024  -0.018  0.00  0.00    -0.014 A 
ATOM     17  C   UNL     1      -0.050  -0.659  -1.220  0.00  0.00    +0.007 A 
ATOM     18  C   UNL     1      -0.020  -2.042  -1.239  0.00  0.00    +0.021 A 
ATOM     19  C   UNL     1       0.009  -2.753  -0.055  0.00  0.00    +0.056 A 
ATOM     20  C   UNL     1       0.007  -2.071   1.165  0.00  0.00    +0.091 A 
ATOM     21  C   UNL     1      -0.017  -0.672   1.177  0.00  0.00    +0.140 A 
ATOM     22  F   UNL     1      -0.014  -0.004   2.351  0.00  0.00    -0.204 F 
ATOM     23 CL   UNL     1       0.045  -4.488  -0.082  0.00  0.00    -0.083 Cl
ENDBRANCH   1  20
BRANCH   5  24
ATOM     24  C   UNL     1      -3.292  -5.150   1.680  0.00  0.00    +0.218 C 
ATOM     25  O   UNL     1      -2.423  -5.067   0.838  0.00  0.00    -0.275 OA
ATOM     26  N   UNL     1      -4.284  -6.051   1.539  0.00  0.00    -0.315 N 
ATOM     27  H   UNL     1      -4.979  -6.117   2.213  0.00  0.00    +0.149 HD
BRANCH  26  28
ATOM     28  C   UNL     1      -4.312  -6.933   0.369  0.00  0.00    +0.109 C 
BRANCH  28  29
ATOM     29  C   UNL     1      -5.531  -7.853   0.453  0.00  0.00    +0.024 C 
ATOM     30  C   UNL     1      -5.630  -8.688  -0.826  0.00  0.00    +0.008 C 
ATOM     31  C   UNL     1      -6.868  -9.585  -0.757  0.00  0.00    +0.019 C 
ATOM     32  C   UNL     1      -6.736 -10.540   0.434  0.00  0.00    +0.108 C 
ATOM     33  N   UNL     1      -6.496  -9.749   1.649  0.00  0.00    -0.299 N 
ATOM     34  C   UNL     1      -5.385  -8.787   1.659  0.00  0.00    +0.113 C 
ATOM     35  C   UNL     1      -7.301  -9.907   2.764  0.00  0.00    +0.218 A 
ATOM     36  N   UNL     1      -7.062  -9.175   3.843  0.00  0.00    -0.223 NA
ATOM     37  C   UNL     1      -7.812  -9.301   4.925  0.00  0.00    +0.116 A 
ATOM     38  C   UNL     1      -8.858 -10.211   4.920  0.00  0.00    +0.039 A 
ATOM     39  C   UNL     1      -9.080 -10.960   3.775  0.00  0.00    +0.116 A 
ATOM     40  N   UNL     1      -8.295 -10.781   2.725  0.00  0.00    -0.223 NA
ENDBRANCH  28  29
ENDBRANCH  26  28
ENDBRANCH   5  24
TORSDOF 4
