REMARK  Name = ZINC10555283
REMARK  6 active torsions:
REMARK  status: ('A' for Active; 'I' for Inactive)
REMARK    1  A    between atoms: C_1  and  C_2
REMARK    2  A    between atoms: N_11  and  C_15
REMARK    3  A    between atoms: C_15  and  C_16
REMARK    4  A    between atoms: C_21  and  C_24
REMARK    5  A    between atoms: C_27  and  S_30
REMARK    6  A    between atoms: S_30  and  C_31
REMARK                            x       y       z     vdW  Elec       q    Type
REMARK                         _______ _______ _______ _____ _____    ______ ____
ROOT
ATOM      1  C   UNL     1      -3.260  -1.886   2.395  0.00  0.00    +0.237 C 
ATOM      2  O   UNL     1      -2.349  -2.223   1.669  0.00  0.00    -0.274 OA
ATOM      3  N   UNL     1      -4.237  -2.763   2.700  0.00  0.00    -0.263 N 
ATOM      4  C   UNL     1      -4.200  -4.053   2.184  0.00  0.00    +0.165 A 
ATOM      5  N   UNL     1      -5.046  -5.050   2.365  0.00  0.00    -0.225 NA
ATOM      6  C   UNL     1      -4.856  -6.226   1.786  0.00  0.00    +0.080 A 
ATOM      7  C   UNL     1      -3.758  -6.415   0.995  0.00  0.00    +0.076 A 
ATOM      8  S   UNL     1      -2.989  -4.804   1.105  0.00  0.00    -0.060 S 
ATOM      9  H   UNL     1      -4.966  -2.494   3.281  0.00  0.00    +0.157 HD
ENDROOT
BRANCH   6  10
ATOM     10  C   UNL     1      -5.824  -7.330   2.000  0.00  0.00    +0.001 A 
ATOM     11  C   UNL     1      -5.619  -8.566   1.388  0.00  0.00    +0.011 A 
ATOM     12  C   UNL     1      -6.517  -9.592   1.592  0.00  0.00    +0.015 A 
ATOM     13  C   UNL     1      -7.631  -9.392   2.399  0.00  0.00    +0.008 A 
ATOM     14  C   UNL     1      -7.840  -8.158   3.006  0.00  0.00    +0.015 A 
ATOM     15  C   UNL     1      -6.942  -7.131   2.809  0.00  0.00    +0.011 A 
BRANCH  13  16
ATOM     16  S   UNL     1      -8.781 -10.703   2.652  0.00  0.00    -0.129 S 
ATOM     17  C   UNL     1      -8.100 -12.077   1.683  0.00  0.00    +0.090 C 
ENDBRANCH  13  16
ENDBRANCH   6  10
BRANCH   1  18
ATOM     18  C   UNL     1      -3.301  -0.488   2.955  0.00  0.00    +0.214 C 
BRANCH  18  28
ATOM     19  C   UNL     1      -1.536   3.561   2.539  0.00  0.00    +0.010 C 
ATOM     20  C   UNL     1      -0.790   3.101   1.286  0.00  0.00    +0.018 C 
ATOM     21  C   UNL     1      -1.527   3.600   0.040  0.00  0.00    +0.006 C 
ATOM     22  C   UNL     1      -0.790   3.122  -1.213  0.00  0.00    +0.000 C 
ATOM     23  C   UNL     1      -0.753   1.593  -1.233  0.00  0.00    +0.003 C 
ATOM     24  C   UNL     1      -0.013   1.086   0.008  0.00  0.00    +0.035 C 
ATOM     25  C   UNL     1      -0.726   1.577   1.263  0.00  0.00    +0.115 C 
ATOM     26  C   UNL     1      -2.117   0.991   1.342  0.00  0.00    +0.247 C 
ATOM     27  O   UNL     1      -3.023   1.142   0.552  0.00  0.00    -0.273 OA
ATOM     28  N   UNL     1      -2.136   0.263   2.478  0.00  0.00    -0.215 N 
ATOM     29  C   UNL     1      -0.960   0.312   3.115  0.00  0.00    +0.310 C 
ATOM     30  O   UNL     1      -0.734  -0.264   4.161  0.00  0.00    -0.252 OA
ATOM     31  N   UNL     1      -0.056   1.072   2.468  0.00  0.00    -0.285 N 
ATOM     32  H   UNL     1       0.857   1.250   2.743  0.00  0.00    +0.151 HD
ENDBRANCH  18  28
ENDBRANCH   1  18
TORSDOF 4
