REMARK  Name = ZINC38848021
REMARK  5 active torsions:
REMARK  status: ('A' for Active; 'I' for Inactive)
REMARK    1  A    between atoms: C_4  and  C_8
REMARK    2  A    between atoms: N_10  and  C_11
REMARK    3  A    between atoms: C_11  and  C_12
REMARK    4  A    between atoms: C_12  and  C_13
REMARK    5  A    between atoms: C_13  and  N_14
REMARK                            x       y       z     vdW  Elec       q    Type
REMARK                         _______ _______ _______ _____ _____    ______ ____
ROOT
ATOM      1  C   UNL     1       3.695  -0.685  -0.037  0.00  0.00    +0.254 C 
ATOM      2  O   UNL     1       2.636  -0.099   0.079  0.00  0.00    -0.270 OA
ATOM      3  N   UNL     1       3.713  -2.029  -0.146  0.00  0.00    -0.246 N 
ATOM      4  C   UNL     1       2.524  -2.732  -0.243  0.00  0.00    +0.168 A 
ATOM      5  N   UNL     1       2.334  -4.030  -0.260  0.00  0.00    -0.221 NA
ATOM      6  C   UNL     1       1.105  -4.583  -0.359  0.00  0.00    +0.116 A 
ATOM      7  C   UNL     1       0.765  -5.957  -0.389  0.00  0.00    +0.152 A 
ATOM      8  C   UNL     1      -0.544  -6.354  -0.495  0.00  0.00    +0.079 A 
ATOM      9  C   UNL     1      -1.577  -5.428  -0.577  0.00  0.00    +0.127 A 
ATOM     10  C   UNL     1      -1.279  -4.077  -0.550  0.00  0.00    +0.055 A 
ATOM     11  C   UNL     1       0.029  -3.672  -0.444  0.00  0.00    +0.046 A 
ATOM     12  S   UNL     1       0.856  -2.102  -0.367  0.00  0.00    -0.052 S 
ATOM     13  F   UNL     1      -2.859  -5.843  -0.681  0.00  0.00    -0.205 F 
ATOM     14  F   UNL     1       1.741  -6.889  -0.312  0.00  0.00    -0.203 F 
ENDROOT
BRANCH   1  18
ATOM     15  C   UNL     1       7.337   1.500  -0.096  0.00  0.00    +0.017 A 
ATOM     16  C   UNL     1       6.460   1.654   0.962  0.00  0.00    +0.022 A 
ATOM     17  C   UNL     1       5.274   0.947   0.988  0.00  0.00    +0.053 A 
ATOM     18  C   UNL     1       4.962   0.075  -0.058  0.00  0.00    +0.057 A 
ATOM     19  C   UNL     1       5.852  -0.075  -1.123  0.00  0.00    +0.029 A 
ATOM     20  C   UNL     1       7.034   0.637  -1.136  0.00  0.00    +0.019 A 
ATOM     21 BR   UNL     1       8.241   0.435  -2.577  0.00  0.00    -0.050 Br
ATOM     22 CL   UNL     1       4.175   1.141   2.318  0.00  0.00    -0.083 Cl
ENDBRANCH   1  18
BRANCH   3  23
ATOM     23  C   UNL     1       4.991  -2.745  -0.164  0.00  0.00    +0.117 C 
BRANCH  23  24
ATOM     24  C   UNL     1       5.389  -3.112   1.267  0.00  0.00    +0.041 C 
BRANCH  24  25
ATOM     25  C   UNL     1       6.724  -3.860   1.250  0.00  0.00    +0.124 C 
BRANCH  25  26
ATOM     26  N   UNL     1       7.105  -4.212   2.620  0.00  0.00    -0.338 N 
ATOM     27  C   UNL     1       7.849  -3.447   3.477  0.00  0.00    +0.104 A 
ATOM     28  C   UNL     1       7.960  -4.144   4.624  0.00  0.00    +0.101 A 
ATOM     29  N   UNL     1       7.302  -5.303   4.471  0.00  0.00    -0.352 N 
ATOM     30  C   UNL     1       6.783  -5.348   3.274  0.00  0.00    +0.173 A 
ATOM     31  H   UNL     1       7.222  -5.996   5.144  0.00  0.00    +0.166 HD
ENDBRANCH  25  26
ENDBRANCH  24  25
ENDBRANCH  23  24
ENDBRANCH   3  23
TORSDOF 5
