REMARK  Name = ZINC00908021
REMARK  15 active torsions:
REMARK  status: ('A' for Active; 'I' for Inactive)
REMARK    1  A    between atoms: C_1  and  N_63
REMARK    2  A    between atoms: C_2  and  N_63
REMARK    3  A    between atoms: C_3  and  C_4
REMARK    4  A    between atoms: C_3  and  N_63
REMARK    5  A    between atoms: C_4  and  N_5
REMARK    6  A    between atoms: C_6  and  C_27
REMARK    7  A    between atoms: C_8  and  C_13
REMARK    8  A    between atoms: C_9  and  O_12
REMARK    9  A    between atoms: C_13  and  C_15
REMARK   10  A    between atoms: C_18  and  S_21
REMARK   11  A    between atoms: S_21  and  N_24
REMARK   12  A    between atoms: N_24  and  C_25
REMARK   13  A    between atoms: N_24  and  C_26
REMARK   14  A    between atoms: C_30  and  O_33
REMARK   15  A    between atoms: O_33  and  C_34
REMARK                            x       y       z     vdW  Elec       q    Type
REMARK                         _______ _______ _______ _____ _____    ______ ____
ROOT
ATOM      1  N   UNL     1       3.493   1.653  -0.089  0.00  0.00    -0.285 N 
ATOM      2  C   UNL     1       2.976   3.021   0.037  0.00  0.00    +0.144 C 
ATOM      3  C   UNL     1       1.470   2.903   0.038  0.00  0.00    +0.071 C 
ATOM      4  C   UNL     1       1.181   1.585  -0.070  0.00  0.00    +0.188 C 
ATOM      5  C   UNL     1       2.441   0.817  -0.152  0.00  0.00    +0.282 C 
ATOM      6  O   UNL     1       2.516  -0.391  -0.259  0.00  0.00    -0.267 OA
ENDROOT
BRANCH   2   7
ATOM      7  C   UNL     1       3.452   3.638   1.327  0.00  0.00    -0.022 A 
ATOM      8  C   UNL     1       3.389   2.914   2.503  0.00  0.00    +0.009 A 
ATOM      9  C   UNL     1       3.830   3.475   3.686  0.00  0.00    +0.046 A 
ATOM     10  C   UNL     1       4.326   4.771   3.694  0.00  0.00    +0.120 A 
ATOM     11  C   UNL     1       4.384   5.497   2.514  0.00  0.00    +0.046 A 
ATOM     12  C   UNL     1       3.947   4.929   1.333  0.00  0.00    +0.009 A 
BRANCH  10  13
ATOM     13  O   UNL     1       4.755   5.328   4.857  0.00  0.00    -0.495 OA
ATOM     14  C   UNL     1       4.666   4.522   6.034  0.00  0.00    +0.277 C 
ENDBRANCH  10  13
ENDBRANCH   2   7
BRANCH   4  15
ATOM     15  O   UNL     1      -0.063   1.056  -0.104  0.00  0.00    -0.502 OA
ATOM     16  H   UNL     1      -0.000   0.061  -0.188  0.00  0.00    +0.292 HD
ENDBRANCH   4  15
BRANCH   3  17
ATOM     17  C   UNL     1       0.507   4.004   0.139  0.00  0.00    +0.195 C 
ATOM     18  O   UNL     1      -0.209   4.098   1.118  0.00  0.00    -0.287 OA
BRANCH  17  19
ATOM     19  C   UNL     1       0.406   5.000  -0.949  0.00  0.00    +0.022 A 
ATOM     20  C   UNL     1       1.143   4.833  -2.123  0.00  0.00    +0.013 A 
ATOM     21  C   UNL     1       1.041   5.764  -3.136  0.00  0.00    +0.029 A 
ATOM     22  C   UNL     1       0.217   6.866  -2.987  0.00  0.00    +0.105 A 
ATOM     23  C   UNL     1      -0.513   7.040  -1.824  0.00  0.00    +0.029 A 
ATOM     24  C   UNL     1      -0.423   6.114  -0.805  0.00  0.00    +0.013 A 
BRANCH  22  25
ATOM     25  S   UNL     1       0.097   8.053  -4.284  0.00  0.00    +0.060 S 
ATOM     26  O   UNL     1       0.457   7.382  -5.483  0.00  0.00    -0.153 OA
ATOM     27  O   UNL     1      -1.155   8.706  -4.122  0.00  0.00    -0.153 OA
BRANCH  25  28
ATOM     28  N   UNL     1       1.265   9.195  -4.011  0.00  0.00    -0.183 NA
ATOM     29  C   UNL     1       2.602   9.026  -4.585  0.00  0.00    +0.131 C 
ATOM     30  C   UNL     1       0.961  10.374  -3.197  0.00  0.00    +0.131 C 
ENDBRANCH  25  28
ENDBRANCH  22  25
ENDBRANCH  17  19
ENDBRANCH   3  17
BRANCH   1  31
ATOM     31  C   UNL     1       4.906   1.267  -0.139  0.00  0.00    +0.090 C 
BRANCH  31  32
ATOM     32  C   UNL     1       5.381   1.259  -1.593  0.00  0.00    -0.060 C 
BRANCH  32  35
ATOM     33  C   UNL     1       6.978  -0.520  -1.209  0.00  0.00    -0.097 C 
ATOM     34  C   UNL     1       7.353   1.081  -2.987  0.00  0.00    -0.097 C 
ATOM     35  N   UNL     1       6.812   0.889  -1.625  0.00  0.00    +0.377 N 
ATOM     36  H   UNL     1       7.327   1.492  -0.973  0.00  0.00    -0.083 HD
ENDBRANCH  32  35
ENDBRANCH  31  32
ENDBRANCH   1  31
TORSDOF 10
