REMARK  Name = ZINC13501080
REMARK  12 active torsions:
REMARK  status: ('A' for Active; 'I' for Inactive)
REMARK    1  A    between atoms: C_1  and  C_2
REMARK    2  A    between atoms: C_2  and  C_3
REMARK    3  A    between atoms: C_3  and  C_5
REMARK    4  A    between atoms: C_3  and  N_72
REMARK    5  A    between atoms: N_9  and  C_10
REMARK    6  A    between atoms: C_10  and  C_11
REMARK    7  A    between atoms: C_11  and  C_12
REMARK    8  A    between atoms: C_18  and  C_19
REMARK    9  A    between atoms: C_18  and  N_72
REMARK   10  A    between atoms: C_23  and  C_32
REMARK   11  A    between atoms: C_25  and  C_31
REMARK   12  A    between atoms: C_33  and  N_72
REMARK                            x       y       z     vdW  Elec       q    Type
REMARK                         _______ _______ _______ _____ _____    ______ ____
ROOT
ATOM      1  N   UNL     1      -1.894   7.426  -1.196  0.00  0.00    +0.391 N 
ATOM      2  H   UNL     1      -1.019   7.026  -1.554  0.00  0.00    -0.080 HD
ENDROOT
BRANCH   1   3
ATOM      3  C   UNL     1      -3.018   6.940  -2.023  0.00  0.00    -0.067 C 
ATOM      4  C   UNL     1      -2.881   5.417  -2.226  0.00  0.00    -0.015 C 
ATOM      5  C   UNL     1      -3.340   5.186  -3.688  0.00  0.00    -0.002 C 
ATOM      6  C   UNL     1      -2.767   6.422  -4.426  0.00  0.00    -0.002 C 
ATOM      7  C   UNL     1      -2.946   7.579  -3.421  0.00  0.00    -0.015 C 
ENDBRANCH   1   3
BRANCH   1   8
ATOM      8  C   UNL     1      -1.813   8.900  -1.269  0.00  0.00    +0.003 C 
BRANCH   8   9
ATOM      9  C   UNL     1      -3.049   9.527  -0.678  0.00  0.00    +0.138 A 
ATOM     10  N   UNL     1      -3.890   8.965   0.155  0.00  0.00    -0.115 NA
ATOM     11  N   UNL     1      -4.812   9.822   0.430  0.00  0.00    -0.023 NA
ATOM     12  N   UNL     1      -4.584  10.915  -0.212  0.00  0.00    -0.044 NA
ATOM     13  N   UNL     1      -3.506  10.772  -0.907  0.00  0.00    -0.231 N 
BRANCH  13  14
ATOM     14  C   UNL     1      -2.894  11.777  -1.780  0.00  0.00    +0.152 C 
BRANCH  14  15
ATOM     15  C   UNL     1      -3.324  11.525  -3.227  0.00  0.00    +0.058 C 
BRANCH  15  16
ATOM     16  C   UNL     1      -2.716  12.575  -4.121  0.00  0.00    -0.046 A 
ATOM     17  C   UNL     1      -3.400  13.749  -4.372  0.00  0.00    +0.004 A 
ATOM     18  C   UNL     1      -2.840  14.714  -5.188  0.00  0.00    +0.000 A 
ATOM     19  C   UNL     1      -1.600  14.500  -5.762  0.00  0.00    +0.000 A 
ATOM     20  C   UNL     1      -0.919  13.323  -5.516  0.00  0.00    +0.000 A 
ATOM     21  C   UNL     1      -1.476  12.360  -4.695  0.00  0.00    +0.004 A 
ENDBRANCH  15  16
ENDBRANCH  14  15
ENDBRANCH  13  14
ENDBRANCH   8   9
BRANCH   8  23
ATOM     22  C   UNL     1       0.674   8.735  -1.095  0.00  0.00    +0.002 C 
ATOM     23  C   UNL     1      -0.581   9.368  -0.492  0.00  0.00    -0.011 C 
ENDBRANCH   8  23
ENDBRANCH   1   8
BRANCH   1  24
ATOM     24  C   UNL     1      -2.079   7.000   0.207  0.00  0.00    -0.036 C 
BRANCH  24  25
ATOM     25  C   UNL     1      -1.670   5.554   0.330  0.00  0.00    +0.001 A 
ATOM     26  C   UNL     1      -0.355   5.224   0.355  0.00  0.00    +0.017 A 
ATOM     27  C   UNL     1       0.009   3.811   0.475  0.00  0.00    -0.001 A 
ATOM     28  C   UNL     1       1.349   3.409   0.505  0.00  0.00    +0.013 A 
ATOM     29  C   UNL     1       1.656   2.083   0.618  0.00  0.00    -0.050 A 
ATOM     30  C   UNL     1       0.649   1.130   0.703  0.00  0.00    +0.008 A 
ATOM     31  C   UNL     1      -0.677   1.502   0.669  0.00  0.00    -0.026 A 
ATOM     32  C   UNL     1      -1.013   2.848   0.561  0.00  0.00    +0.052 A 
ATOM     33  N   UNL     1      -2.332   3.249   0.530  0.00  0.00    -0.322 N 
ATOM     34  H   UNL     1      -3.035   2.584   0.590  0.00  0.00    +0.169 HD
ATOM     35  C   UNL     1      -2.657   4.550   0.419  0.00  0.00    +0.251 A 
ATOM     36  O   UNL     1      -3.833   4.868   0.396  0.00  0.00    -0.268 OA
ATOM     37  C   UNL     1      -1.759   0.457   0.756  0.00  0.00    +0.046 C 
ATOM     38  C   UNL     1       3.099   1.650   0.651  0.00  0.00    +0.044 C 
ENDBRANCH  24  25
ENDBRANCH   1  24
TORSDOF 9
