REMARK  Name = ZINC01296699
REMARK  5 active torsions:
REMARK  status: ('A' for Active; 'I' for Inactive)
REMARK    1  A    between atoms: C_4  and  C_7
REMARK    2  A    between atoms: C_13  and  C_27
REMARK    3  A    between atoms: C_14  and  C_21
REMARK    4  A    between atoms: C_16  and  C_19
REMARK    5  A    between atoms: C_17  and  N_18
REMARK                            x       y       z     vdW  Elec       q    Type
REMARK                         _______ _______ _______ _____ _____    ______ ____
ROOT
ATOM      1  C   UNL     1      -2.661   4.503   0.153  0.00  0.00    +0.028 C 
ATOM      2  C   UNL     1      -1.572   3.726   0.376  0.00  0.00    +0.079 A 
ATOM      3  C   UNL     1      -1.488   2.383   0.964  0.00  0.00    +0.271 A 
ATOM      4  O   UNL     1      -2.491   1.802   1.336  0.00  0.00    -0.266 OA
ATOM      5  N   UNL     1      -0.275   1.807   1.079  0.00  0.00    -0.257 N 
ATOM      6  C   UNL     1       0.819   2.526   0.642  0.00  0.00    +0.099 A 
ATOM      7  C   UNL     1       2.101   2.079   0.698  0.00  0.00    +0.057 C 
ATOM      8  C   UNL     1       2.358   0.702   1.278  0.00  0.00    +0.100 C 
ATOM      9  C   UNL     1       1.131  -0.054   1.746  0.00  0.00    +0.079 C 
ATOM     10  C   UNL     1      -0.080   0.531   1.621  0.00  0.00    +0.118 C 
ATOM     11  S   UNL     1       0.149   4.062   0.039  0.00  0.00    -0.065 S 
ENDROOT
BRANCH   1  15
ATOM     12  C   UNL     1      -6.551   2.904   0.690  0.00  0.00    +0.000 A 
ATOM     13  C   UNL     1      -6.274   4.194   1.108  0.00  0.00    +0.001 A 
ATOM     14  C   UNL     1      -5.012   4.722   0.937  0.00  0.00    +0.008 A 
ATOM     15  C   UNL     1      -4.010   3.949   0.340  0.00  0.00    -0.024 A 
ATOM     16  C   UNL     1      -4.300   2.647  -0.085  0.00  0.00    +0.008 A 
ATOM     17  C   UNL     1      -5.566   2.133   0.098  0.00  0.00    +0.001 A 
ENDBRANCH   1  15
BRANCH   8  18
ATOM     18  C   UNL     1       3.293   0.855   2.450  0.00  0.00    -0.035 A 
ATOM     19  C   UNL     1       2.878   1.532   3.581  0.00  0.00    +0.004 A 
ATOM     20  C   UNL     1       3.735   1.669   4.657  0.00  0.00    +0.000 A 
ATOM     21  C   UNL     1       5.009   1.136   4.599  0.00  0.00    +0.000 A 
ATOM     22  C   UNL     1       5.426   0.464   3.466  0.00  0.00    +0.000 A 
ATOM     23  C   UNL     1       4.568   0.323   2.391  0.00  0.00    +0.004 A 
ENDBRANCH   8  18
BRANCH   7  24
ATOM     24  C   UNL     1       3.161   2.873   0.232  0.00  0.00    +0.241 C 
ATOM     25  O   UNL     1       2.937   3.978  -0.231  0.00  0.00    -0.271 OA
ATOM     26  N   UNL     1       4.427   2.414   0.297  0.00  0.00    -0.326 N 
ATOM     27  H   UNL     1       4.605   1.535   0.665  0.00  0.00    +0.145 HD
ATOM     28  H   UNL     1       5.159   2.962  -0.025  0.00  0.00    +0.145 HD
ENDBRANCH   7  24
BRANCH  10  29
ATOM     29  N   UNL     1      -1.183  -0.167   2.049  0.00  0.00    -0.343 N 
ATOM     30  H   UNL     1      -1.211  -1.132   1.962  0.00  0.00    +0.144 HD
ATOM     31  H   UNL     1      -1.935   0.307   2.439  0.00  0.00    +0.144 HD
ENDBRANCH  10  29
BRANCH   9  32
ATOM     32  C   UNL     1       1.254  -1.364   2.310  0.00  0.00    +0.099 C 
ATOM     33  N   UNL     1       1.351  -2.404   2.758  0.00  0.00    -0.191 NA
ENDBRANCH   9  32
TORSDOF 5
