REMARK  Name = ZINC05192873
REMARK  6 active torsions:
REMARK  status: ('A' for Active; 'I' for Inactive)
REMARK    1  A    between atoms: C_1  and  O_2
REMARK    2  A    between atoms: O_2  and  C_3
REMARK    3  A    between atoms: C_7  and  C_9
REMARK    4  A    between atoms: C_16  and  N_32
REMARK    5  A    between atoms: C_17  and  C_30
REMARK    6  A    between atoms: C_18  and  C_20
REMARK                            x       y       z     vdW  Elec       q    Type
REMARK                         _______ _______ _______ _____ _____    ______ ____
ROOT
ATOM      1  C   UNL     1      -2.433  -4.646   0.166  0.00  0.00    +0.100 A 
ATOM      2  C   UNL     1      -3.559  -5.195   0.786  0.00  0.00    +0.054 A 
ATOM      3  C   UNL     1      -3.501  -6.551   0.644  0.00  0.00    +0.223 A 
ATOM      4  N   UNL     1      -2.376  -6.844  -0.041  0.00  0.00    -0.246 N 
ATOM      5  H   UNL     1      -2.074  -7.732  -0.288  0.00  0.00    +0.192 HD
ATOM      6  N   UNL     1      -1.722  -5.638  -0.337  0.00  0.00    -0.171 NA
ATOM      7  O   UNL     1      -4.455  -7.380   1.136  0.00  0.00    -0.423 OA
ATOM      8  C   UNL     1      -5.617  -6.826   1.540  0.00  0.00    +0.200 C 
ATOM      9  C   UNL     1      -5.792  -5.499   1.728  0.00  0.00    +0.098 C 
ATOM     10  C   UNL     1      -4.685  -4.499   1.506  0.00  0.00    +0.102 C 
ENDROOT
BRANCH  10  11
ATOM     11  C   UNL     1      -4.195  -3.979   2.833  0.00  0.00    -0.027 A 
ATOM     12  C   UNL     1      -3.572  -4.815   3.708  0.00  0.00    +0.005 A 
ATOM     13  C   UNL     1      -3.113  -4.353   4.939  0.00  0.00    +0.001 A 
ATOM     14  C   UNL     1      -3.274  -3.051   5.304  0.00  0.00    +0.008 A 
ATOM     15  C   UNL     1      -3.912  -2.158   4.427  0.00  0.00    -0.018 A 
ATOM     16  C   UNL     1      -4.374  -2.627   3.172  0.00  0.00    -0.014 A 
ATOM     17  C   UNL     1      -5.007  -1.732   2.292  0.00  0.00    +0.009 A 
ATOM     18  C   UNL     1      -5.163  -0.429   2.654  0.00  0.00    +0.001 A 
ATOM     19  C   UNL     1      -4.703   0.034   3.886  0.00  0.00    +0.001 A 
ATOM     20  C   UNL     1      -4.097  -0.807   4.768  0.00  0.00    +0.008 A 
ENDBRANCH  10  11
BRANCH   1  25
ATOM     21  C   UNL     1      -0.462  -1.442   0.053  0.00  0.00    +0.121 A 
ATOM     22  C   UNL     1      -1.479  -0.505  -0.073  0.00  0.00    +0.045 A 
ATOM     23  C   UNL     1      -2.798  -0.914  -0.121  0.00  0.00    +0.004 A 
ATOM     24  C   UNL     1      -3.112  -2.256  -0.044  0.00  0.00    +0.010 A 
ATOM     25  C   UNL     1      -2.098  -3.203   0.083  0.00  0.00    +0.006 A 
ATOM     26  C   UNL     1      -0.768  -2.791   0.125  0.00  0.00    +0.055 A 
BRANCH  21  28
ATOM     27  C   UNL     1       1.076   0.371   0.019  0.00  0.00    +0.277 C 
ATOM     28  O   UNL     1       0.834  -1.035   0.099  0.00  0.00    -0.495 OA
ENDBRANCH  21  28
ENDBRANCH   1  25
BRANCH   8  29
ATOM     29  N   UNL     1      -6.684  -7.658   1.771  0.00  0.00    -0.328 N 
ATOM     30  H   UNL     1      -6.589  -8.615   1.644  0.00  0.00    +0.145 HD
ATOM     31  H   UNL     1      -7.532  -7.289   2.062  0.00  0.00    +0.145 HD
ENDBRANCH   8  29
BRANCH   9  32
ATOM     32  C   UNL     1      -7.074  -5.026   2.155  0.00  0.00    +0.101 C 
ATOM     33  N   UNL     1      -8.091  -4.651   2.493  0.00  0.00    -0.191 NA
ENDBRANCH   9  32
TORSDOF 5
