REMARK  Name = ZINC02156638
REMARK  9 active torsions:
REMARK  status: ('A' for Active; 'I' for Inactive)
REMARK    1  A    between atoms: C_1  and  C_2
REMARK    2  A    between atoms: C_4  and  C_7
REMARK    3  A    between atoms: C_9  and  C_31
REMARK    4  A    between atoms: C_10  and  C_12
REMARK    5  A    between atoms: C_15  and  S_18
REMARK    6  A    between atoms: N_16  and  C_17
REMARK    7  A    between atoms: S_18  and  C_19
REMARK    8  A    between atoms: C_19  and  C_20
REMARK    9  A    between atoms: N_22  and  C_23
REMARK                            x       y       z     vdW  Elec       q    Type
REMARK                         _______ _______ _______ _____ _____    ______ ____
ROOT
ATOM      1  C   UNL     1      -3.088  -7.170   0.007  0.00  0.00    +0.173 A 
ATOM      2  N   UNL     1      -4.329  -7.606   0.007  0.00  0.00    -0.128 NA
ATOM      3  N   UNL     1      -4.343  -8.891  -0.000  0.00  0.00    -0.122 NA
ATOM      4  C   UNL     1      -3.114  -9.357  -0.004  0.00  0.00    +0.192 A 
ATOM      5  N   UNL     1      -2.272  -8.280  -0.005  0.00  0.00    -0.305 N 
ATOM      6  C   UNL     1      -0.807  -8.302  -0.014  0.00  0.00    +0.153 C 
ENDROOT
BRANCH   1  10
ATOM      7  C   UNL     1      -1.480  -3.356   0.023  0.00  0.00    +0.131 A 
ATOM      8  N   UNL     1      -2.804  -3.446   0.030  0.00  0.00    -0.242 NA
ATOM      9  C   UNL     1      -3.412  -4.603   0.026  0.00  0.00    +0.057 A 
ATOM     10  C   UNL     1      -2.654  -5.765   0.014  0.00  0.00    +0.079 A 
ATOM     11  S   UNL     1      -1.002  -5.078   0.001  0.00  0.00    -0.062 S 
ATOM     12  C   UNL     1      -4.917  -4.673   0.036  0.00  0.00    +0.067 C 
BRANCH   7  16
ATOM     13  C   UNL     1      -0.020   1.503   0.057  0.00  0.00    +0.089 C 
ATOM     14  C   UNL     1       0.000  -0.004   0.042  0.00  0.00    +0.135 A 
ATOM     15  C   UNL     1      -1.078  -0.805   0.044  0.00  0.00    +0.077 A 
ATOM     16  C   UNL     1      -0.627  -2.149   0.026  0.00  0.00    +0.138 A 
ATOM     17  N   UNL     1       0.687  -2.129   0.013  0.00  0.00    -0.076 NA
ATOM     18  O   UNL     1       1.099  -0.774   0.016  0.00  0.00    -0.359 OA
ENDBRANCH   7  16
ENDBRANCH   1  10
BRANCH   4  19
ATOM     19  S   UNL     1      -2.640 -11.054  -0.014  0.00  0.00    -0.077 S 
BRANCH  19  20
ATOM     20  C   UNL     1      -4.217 -11.950  -0.017  0.00  0.00    +0.173 C 
BRANCH  20  21
ATOM     21  C   UNL     1      -3.952 -13.433  -0.026  0.00  0.00    +0.227 C 
ATOM     22  O   UNL     1      -2.811 -13.845  -0.029  0.00  0.00    -0.275 OA
ATOM     23  N   UNL     1      -4.982 -14.302  -0.029  0.00  0.00    -0.285 N 
ATOM     24  H   UNL     1      -5.893 -13.975   0.041  0.00  0.00    +0.155 HD
BRANCH  23  25
ATOM     25  C   UNL     1      -4.739 -15.676  -0.135  0.00  0.00    +0.036 A 
ATOM     26  C   UNL     1      -5.618 -16.486  -0.841  0.00  0.00    +0.043 A 
ATOM     27  C   UNL     1      -5.375 -17.843  -0.944  0.00  0.00    +0.044 A 
ATOM     28  C   UNL     1      -4.256 -18.394  -0.344  0.00  0.00    +0.040 A 
ATOM     29  C   UNL     1      -3.378 -17.589   0.361  0.00  0.00    +0.044 A 
ATOM     30  C   UNL     1      -3.614 -16.230   0.462  0.00  0.00    +0.043 A 
ATOM     31 CL   UNL     1      -1.977 -18.284   1.112  0.00  0.00    -0.083 Cl
ATOM     32 CL   UNL     1      -6.474 -18.857  -1.826  0.00  0.00    -0.083 Cl
ENDBRANCH  23  25
ENDBRANCH  20  21
ENDBRANCH  19  20
ENDBRANCH   4  19
TORSDOF 6
