REMARK  Name = ZINC39395736
REMARK  6 active torsions:
REMARK  status: ('A' for Active; 'I' for Inactive)
REMARK    1  A    between atoms: C_2  and  N_27
REMARK    2  A    between atoms: C_4  and  S_9
REMARK    3  A    between atoms: S_9  and  C_10
REMARK    4  A    between atoms: C_10  and  C_11
REMARK    5  A    between atoms: N_13  and  C_14
REMARK    6  A    between atoms: C_16  and  C_25
REMARK                            x       y       z     vdW  Elec       q    Type
REMARK                         _______ _______ _______ _____ _____    ______ ____
ROOT
ATOM      1  C   UNL     1       6.510  -0.045  -0.060  0.00  0.00    +0.224 C 
ATOM      2  O   UNL     1       6.649  -1.249  -0.068  0.00  0.00    -0.275 OA
ATOM      3  N   UNL     1       7.593   0.758  -0.066  0.00  0.00    -0.301 N 
ATOM      4  H   UNL     1       7.482   1.722  -0.060  0.00  0.00    +0.150 HD
ENDROOT
BRANCH   3   5
ATOM      5  C   UNL     1       8.937   0.176  -0.082  0.00  0.00    +0.156 C 
ATOM      6  C   UNL     1       9.885   0.961  -1.020  0.00  0.00    +0.149 C 
ATOM      7  C   UNL     1      10.645   2.029  -0.275  0.00  0.00    -0.041 C 
ATOM      8  C   UNL     1      10.720   1.923   1.046  0.00  0.00    -0.012 C 
ATOM      9  S   UNL     1       9.817   0.462   1.510  0.00  0.00    -0.106 S 
ATOM     10  C   UNL     1      11.430   2.853   1.989  0.00  0.00    +0.042 C 
ATOM     11  C   UNL     1      12.369   3.756   1.180  0.00  0.00    +0.005 C 
ATOM     12  C   UNL     1      11.592   4.317  -0.016  0.00  0.00    +0.005 C 
ATOM     13  C   UNL     1      11.307   3.193  -1.010  0.00  0.00    +0.033 C 
BRANCH   6  14
ATOM     14  C   UNL     1      10.846   0.024  -1.625  0.00  0.00    +0.073 C 
ATOM     15  N   UNL     1      11.588  -0.699  -2.092  0.00  0.00    -0.196 NA
ENDBRANCH   6  14
ENDBRANCH   3   5
BRANCH   1  16
ATOM     16  C   UNL     1       5.128   0.555  -0.044  0.00  0.00    +0.173 C 
BRANCH  16  17
ATOM     17  S   UNL     1       3.893  -0.774  -0.039  0.00  0.00    -0.078 S 
BRANCH  17  21
ATOM     18  C   UNL     1      -0.017   1.394   0.010  0.00  0.00    +0.113 A 
ATOM     19  C   UNL     1       1.191   2.078   0.002  0.00  0.00    +0.124 A 
ATOM     20  N   UNL     1       2.341   1.395  -0.013  0.00  0.00    -0.209 NA
ATOM     21  C   UNL     1       2.350   0.077  -0.020  0.00  0.00    +0.171 A 
ATOM     22  N   UNL     1       1.192  -0.640  -0.013  0.00  0.00    -0.302 N 
ATOM     23  H   UNL     1       1.223  -1.609  -0.019  0.00  0.00    +0.171 HD
ATOM     24  C   UNL     1       0.002  -0.004   0.002  0.00  0.00    +0.254 A 
ATOM     25  O   UNL     1      -1.041  -0.639   0.009  0.00  0.00    -0.268 OA
BRANCH  19  26
ATOM     26  N   UNL     1       1.205   3.458   0.009  0.00  0.00    -0.343 N 
ATOM     27  H   UNL     1       0.370   3.952   0.019  0.00  0.00    +0.144 HD
ATOM     28  H   UNL     1       2.050   3.935   0.003  0.00  0.00    +0.144 HD
ENDBRANCH  19  26
ENDBRANCH  17  21
ENDBRANCH  16  17
ENDBRANCH   1  16
TORSDOF 6
