REMARK  Name = ZINC64343636
REMARK  9 active torsions:
REMARK  status: ('A' for Active; 'I' for Inactive)
REMARK    1  A    between atoms: C_1  and  C_2
REMARK    2  A    between atoms: C_4  and  S_24
REMARK    3  A    between atoms: C_6  and  N_9
REMARK    4  A    between atoms: C_7  and  C_8
REMARK    5  A    between atoms: C_10  and  C_12
REMARK    6  A    between atoms: C_12  and  N_13
REMARK    7  A    between atoms: N_13  and  C_14
REMARK    8  A    between atoms: C_14  and  C_18
REMARK    9  A    between atoms: S_24  and  N_27
REMARK                            x       y       z     vdW  Elec       q    Type
REMARK                         _______ _______ _______ _____ _____    ______ ____
ROOT
ATOM      1  N   UNL     1       0.025  -2.775   2.429  0.00  0.00    -0.287 N 
ATOM      2  C   UNL     1      -0.046  -4.121   2.410  0.00  0.00    +0.200 C 
ATOM      3  O   UNL     1      -0.029  -4.715   1.353  0.00  0.00    -0.278 OA
ATOM      4  H   UNL     1       0.096  -2.305   3.274  0.00  0.00    +0.155 HD
ENDROOT
BRANCH   1  10
ATOM      5  C   UNL     1       1.151   1.289  -0.098  0.00  0.00    +0.044 C 
ATOM      6  C   UNL     1       0.536  -0.084  -0.025  0.00  0.00    -0.044 A 
ATOM      7  C   UNL     1      -0.058  -0.636  -1.145  0.00  0.00    +0.032 A 
ATOM      8  C   UNL     1      -0.624  -1.896  -1.082  0.00  0.00    +0.107 A 
ATOM      9  C   UNL     1      -0.598  -2.608   0.101  0.00  0.00    +0.052 A 
ATOM     10  C   UNL     1      -0.002  -2.057   1.228  0.00  0.00    +0.038 A 
ATOM     11  C   UNL     1       0.570  -0.793   1.160  0.00  0.00    -0.026 A 
ATOM     12  C   UNL     1       1.222  -0.194   2.379  0.00  0.00    +0.046 C 
BRANCH   8  13
ATOM     13  S   UNL     1      -1.380  -2.594  -2.513  0.00  0.00    +0.056 S 
ATOM     14  O   UNL     1      -2.316  -3.557  -2.048  0.00  0.00    -0.153 OA
ATOM     15  O   UNL     1      -1.756  -1.506  -3.345  0.00  0.00    -0.153 OA
BRANCH  13  16
ATOM     16  N   UNL     1      -0.206  -3.430  -3.328  0.00  0.00    -0.204 NA
ATOM     17  H   UNL     1       0.700  -3.458  -2.981  0.00  0.00    +0.144 HD
ATOM     18  H   UNL     1      -0.423  -3.892  -4.153  0.00  0.00    +0.144 HD
ENDBRANCH  13  16
ENDBRANCH   8  13
ENDBRANCH   1  10
BRANCH   2  19
ATOM     19  C   UNL     1      -0.147  -4.888   3.704  0.00  0.00    +0.016 C 
BRANCH  19  20
ATOM     20  N   UNL     1      -0.211  -6.327   3.416  0.00  0.00    +0.391 N 
ATOM     21  H   UNL     1      -0.976  -6.510   2.784  0.00  0.00    -0.084 HD
ATOM     22  H   UNL     1       0.655  -6.624   2.992  0.00  0.00    -0.084 HD
BRANCH  20  23
ATOM     23  C   UNL     1      -0.423  -7.067   4.667  0.00  0.00    -0.042 C 
ATOM     24  C   UNL     1      -1.155  -8.406   4.474  0.00  0.00    -0.008 C 
ATOM     25  C   UNL     1      -2.467  -7.623   4.653  0.00  0.00    -0.002 C 
ATOM     26  C   UNL     1      -1.653  -6.598   5.460  0.00  0.00    -0.008 C 
BRANCH  23  27
ATOM     27  C   UNL     1       0.828  -7.176   5.501  0.00  0.00    -0.058 A 
ATOM     28  C   UNL     1       1.982  -6.527   5.105  0.00  0.00    +0.002 A 
ATOM     29  C   UNL     1       3.129  -6.626   5.870  0.00  0.00    +0.000 A 
ATOM     30  C   UNL     1       3.121  -7.375   7.032  0.00  0.00    +0.000 A 
ATOM     31  C   UNL     1       1.967  -8.024   7.429  0.00  0.00    +0.000 A 
ATOM     32  C   UNL     1       0.819  -7.921   6.666  0.00  0.00    +0.002 A 
ENDBRANCH  23  27
ENDBRANCH  20  23
ENDBRANCH  19  20
ENDBRANCH   2  19
TORSDOF 7
