REMARK  Name = ZINC22399703
REMARK  15 active torsions:
REMARK  status: ('A' for Active; 'I' for Inactive)
REMARK    1  A    between atoms: C_1  and  C_2
REMARK    2  A    between atoms: C_2  and  C_3
REMARK    3  A    between atoms: C_2  and  O_4
REMARK    4  A    between atoms: O_4  and  C_5
REMARK    5  A    between atoms: C_8  and  N_11
REMARK    6  A    between atoms: N_11  and  C_12
REMARK    7  A    between atoms: N_11  and  S_29
REMARK    8  A    between atoms: C_12  and  C_13
REMARK    9  A    between atoms: N_15  and  C_16
REMARK   10  A    between atoms: C_21  and  C_22
REMARK   11  A    between atoms: N_24  and  C_25
REMARK   12  A    between atoms: C_25  and  C_26
REMARK   13  A    between atoms: C_25  and  C_27
REMARK   14  A    between atoms: C_25  and  C_28
REMARK   15  A    between atoms: S_29  and  C_32
REMARK                            x       y       z     vdW  Elec       q    Type
REMARK                         _______ _______ _______ _____ _____    ______ ____
ROOT
ATOM      1  C   UNL     1      -1.391  -1.393  -0.400  0.00  0.00    +0.236 C 
ATOM      2  O   UNL     1      -1.052  -1.047  -1.511  0.00  0.00    -0.274 OA
ATOM      3  N   UNL     1      -2.689  -1.650  -0.141  0.00  0.00    -0.283 N 
ATOM      4  H   UNL     1      -3.011  -1.871   0.887  0.00  0.00    +0.155 HD
ENDROOT
BRANCH   3   5
ATOM      5  C   UNL     1      -3.622  -1.635  -1.175  0.00  0.00    +0.046 A 
ATOM      6  C   UNL     1      -3.219  -1.881  -2.481  0.00  0.00    +0.024 A 
ATOM      7  C   UNL     1      -4.146  -1.870  -3.504  0.00  0.00    +0.002 A 
ATOM      8  C   UNL     1      -5.480  -1.604  -3.239  0.00  0.00    +0.001 A 
ATOM      9  C   UNL     1      -5.896  -1.352  -1.950  0.00  0.00    +0.015 A 
ATOM     10  C   UNL     1      -4.971  -1.365  -0.904  0.00  0.00    +0.058 A 
BRANCH  10  11
ATOM     11  C   UNL     1      -5.410  -1.095   0.479  0.00  0.00    +0.246 C 
ATOM     12  O   UNL     1      -4.589  -1.010   1.371  0.00  0.00    -0.270 OA
ATOM     13  N   UNL     1      -6.721  -0.944   0.752  0.00  0.00    -0.307 N 
ATOM     14  H   UNL     1      -7.464  -1.021  -0.056  0.00  0.00    +0.150 HD
BRANCH  13  15
ATOM     15  C   UNL     1      -7.157  -0.676   2.125  0.00  0.00    +0.026 C 
ATOM     16  C   UNL     1      -6.525   0.627   2.616  0.00  0.00    +0.031 C 
ATOM     17  C   UNL     1      -8.682  -0.548   2.160  0.00  0.00    +0.031 C 
ATOM     18  C   UNL     1      -6.721  -1.828   3.032  0.00  0.00    +0.031 C 
ENDBRANCH  13  15
ENDBRANCH  10  11
ENDBRANCH   3   5
BRANCH   1  19
ATOM     19  C   UNL     1      -0.362  -1.537   0.692  0.00  0.00    +0.227 C 
BRANCH  19  20
ATOM     20  N   UNL     1       0.962  -1.204   0.161  0.00  0.00    -0.199 N 
BRANCH  20  24
ATOM     21  C   UNL     1       2.223   2.767   0.047  0.00  0.00    +0.121 A 
ATOM     22  C   UNL     1       0.868   2.470   0.039  0.00  0.00    +0.047 A 
ATOM     23  C   UNL     1       0.449   1.154   0.076  0.00  0.00    +0.028 A 
ATOM     24  C   UNL     1       1.385   0.129   0.123  0.00  0.00    +0.052 A 
ATOM     25  C   UNL     1       2.741   0.428   0.131  0.00  0.00    +0.028 A 
ATOM     26  C   UNL     1       3.158   1.744   0.093  0.00  0.00    +0.047 A 
BRANCH  21  27
ATOM     27  O   UNL     1       2.634   4.063   0.009  0.00  0.00    -0.489 OA
BRANCH  27  29
ATOM     28  C   UNL     1       1.188   5.584   1.208  0.00  0.00    +0.051 C 
ATOM     29  C   UNL     1       1.624   5.060  -0.162  0.00  0.00    +0.167 C 
ATOM     30  C   UNL     1       2.183   6.214  -0.996  0.00  0.00    +0.051 C 
ENDBRANCH  27  29
ENDBRANCH  21  27
ENDBRANCH  20  24
BRANCH  20  31
ATOM     31  S   UNL     1       1.958  -2.405  -0.392  0.00  0.00    +0.043 S 
ATOM     32  O   UNL     1       1.079  -3.412  -0.874  0.00  0.00    -0.155 OA
ATOM     33  O   UNL     1       2.862  -1.751  -1.272  0.00  0.00    -0.155 OA
ATOM     34  C   UNL     1       2.838  -2.997   1.080  0.00  0.00    +0.218 C 
ENDBRANCH  20  31
ENDBRANCH  19  20
ENDBRANCH   1  19
TORSDOF 9
