REMARK  Name = ZINC20064453
REMARK  9 active torsions:
REMARK  status: ('A' for Active; 'I' for Inactive)
REMARK    1  A    between atoms: C_1  and  C_2
REMARK    2  A    between atoms: C_2  and  C_4
REMARK    3  A    between atoms: C_2  and  N_14
REMARK    4  A    between atoms: C_15  and  C_17
REMARK    5  A    between atoms: C_17  and  O_18
REMARK    6  A    between atoms: O_18  and  C_19
REMARK    7  A    between atoms: C_19  and  C_21
REMARK    8  A    between atoms: C_21  and  C_22
REMARK    9  A    between atoms: C_22  and  C_23
REMARK                            x       y       z     vdW  Elec       q    Type
REMARK                         _______ _______ _______ _____ _____    ______ ____
ROOT
ATOM      1  C   UNL     1      -3.656   6.369   3.715  0.00  0.00    +0.308 C 
ATOM      2  O   UNL     1      -2.658   6.970   4.035  0.00  0.00    -0.251 OA
ENDROOT
BRANCH   1   3
ATOM      3  O   UNL     1      -3.570   5.322   2.879  0.00  0.00    -0.455 OA
BRANCH   3   4
ATOM      4  C   UNL     1      -2.245   4.968   2.401  0.00  0.00    +0.327 C 
BRANCH   4   6
ATOM      5  N   UNL     1      -1.233   3.270   0.913  0.00  0.00    -0.306 N 
ATOM      6  C   UNL     1      -2.345   3.778   1.481  0.00  0.00    +0.251 C 
ATOM      7  O   UNL     1      -3.426   3.278   1.252  0.00  0.00    -0.272 OA
ATOM      8  H   UNL     1      -0.253   3.724   1.121  0.00  0.00    +0.149 HD
BRANCH   5  10
ATOM      9  C   UNL     1      -1.659   2.589  -1.397  0.00  0.00    +0.033 C 
ATOM     10  C   UNL     1      -1.330   2.113   0.020  0.00  0.00    +0.100 C 
BRANCH  10  11
ATOM     11  C   UNL     1      -0.017   1.375   0.010  0.00  0.00    -0.027 A 
ATOM     12  C   UNL     1       1.174   2.078   0.002  0.00  0.00    +0.006 A 
ATOM     13  C   UNL     1       2.372   1.395  -0.015  0.00  0.00    +0.004 A 
ATOM     14  C   UNL     1       2.393   0.006  -0.026  0.00  0.00    -0.044 A 
ATOM     15  C   UNL     1       1.208  -0.694  -0.016  0.00  0.00    -0.044 A 
ATOM     16  C   UNL     1       0.002  -0.004   0.002  0.00  0.00    +0.009 A 
ATOM     17  C   UNL     1       1.155  -2.199  -0.017  0.00  0.00    +0.035 C 
ATOM     18  C   UNL     1       2.493  -2.783  -0.466  0.00  0.00    +0.005 C 
ATOM     19  C   UNL     1       3.606  -2.137   0.367  0.00  0.00    +0.005 C 
ATOM     20  C   UNL     1       3.736  -0.675  -0.054  0.00  0.00    +0.035 C 
ENDBRANCH  10  11
ENDBRANCH   5  10
ENDBRANCH   4   6
ENDBRANCH   3   4
ENDBRANCH   1   3
BRANCH   1  21
ATOM     21  C   UNL     1      -4.998   6.795   4.253  0.00  0.00    +0.128 C 
BRANCH  21  22
ATOM     22  C   UNL     1      -4.817   8.004   5.174  0.00  0.00    +0.085 C 
BRANCH  22  23
ATOM     23  C   UNL     1      -6.159   8.430   5.712  0.00  0.00    +0.111 A 
ATOM     24  N   UNL     1      -6.232   9.491   6.557  0.00  0.00    -0.310 N 
ATOM     25  H   UNL     1      -5.317  10.031   6.842  0.00  0.00    +0.170 HD
ATOM     26  C   UNL     1      -7.410   9.904   7.061  0.00  0.00    +0.260 A 
ATOM     27  O   UNL     1      -7.459  10.858   7.817  0.00  0.00    -0.267 OA
ATOM     28  C   UNL     1      -8.605   9.204   6.692  0.00  0.00    +0.075 A 
ATOM     29  C   UNL     1      -9.980   9.472   7.111  0.00  0.00    -0.023 A 
ATOM     30  C   UNL     1     -10.939   8.660   6.619  0.00  0.00    -0.004 A 
ATOM     31  S   UNL     1     -10.078   7.508   5.582  0.00  0.00    -0.073 S 
ATOM     32  C   UNL     1      -8.430   8.122   5.815  0.00  0.00    +0.116 A 
ATOM     33  N   UNL     1      -7.231   7.775   5.354  0.00  0.00    -0.227 NA
ATOM     34  C   UNL     1     -12.411   8.723   6.893  0.00  0.00    +0.043 C 
ATOM     35  C   UNL     1     -12.637   9.624   8.116  0.00  0.00    +0.005 C 
ATOM     36  C   UNL     1     -11.830  10.913   7.933  0.00  0.00    +0.005 C 
ATOM     37  C   UNL     1     -10.336  10.612   8.061  0.00  0.00    +0.037 C 
ENDBRANCH  22  23
ENDBRANCH  21  22
ENDBRANCH   1  21
TORSDOF 8
