REMARK  Name = ZINC08742752
REMARK  3 active torsions:
REMARK  status: ('A' for Active; 'I' for Inactive)
REMARK    1  A    between atoms: C_1  and  C_2
REMARK    2  A    between atoms: C_5  and  C_19
REMARK    3  A    between atoms: C_8  and  C_12
REMARK                            x       y       z     vdW  Elec       q    Type
REMARK                         _______ _______ _______ _____ _____    ______ ____
ROOT
ATOM      1  C   UNL     1      -0.018   1.503   0.010  0.00  0.00    +0.085 C 
ATOM      2  C   UNL     1       0.002  -0.004   0.002  0.00  0.00    +0.117 C 
ATOM      3  N   UNL     1       0.008  -0.747  -1.058  0.00  0.00    -0.166 NA
ATOM      4  N   UNL     1       0.028  -2.085  -0.658  0.00  0.00    -0.182 N 
ATOM      5  C   UNL     1       0.041  -3.358  -1.391  0.00  0.00    +0.156 C 
ATOM      6  C   UNL     1       0.062  -4.620  -0.549  0.00  0.00    +0.030 C 
ATOM      7  C   UNL     1       0.065  -4.471   0.790  0.00  0.00    +0.073 C 
ATOM      8  N   UNL     1       0.051  -3.245   1.370  0.00  0.00    -0.217 NA
ATOM      9  C   UNL     1       0.034  -2.112   0.706  0.00  0.00    +0.209 C 
ATOM     10  N   UNL     1       0.024  -0.805   1.118  0.00  0.00    -0.273 N 
ATOM     11  H   UNL     1       0.028  -0.498   2.038  0.00  0.00    +0.156 HD
ENDROOT
BRANCH   7  12
ATOM     12  C   UNL     1       0.085  -5.679   1.652  0.00  0.00    +0.000 A 
ATOM     13  C   UNL     1       0.105  -6.948   1.077  0.00  0.00    +0.011 A 
ATOM     14  C   UNL     1       0.124  -8.068   1.883  0.00  0.00    +0.020 A 
ATOM     15  C   UNL     1       0.122  -7.933   3.261  0.00  0.00    +0.041 A 
ATOM     16  C   UNL     1       0.102  -6.674   3.837  0.00  0.00    +0.020 A 
ATOM     17  C   UNL     1       0.089  -5.548   3.039  0.00  0.00    +0.011 A 
ATOM     18 CL   UNL     1       0.144  -9.345   4.269  0.00  0.00    -0.084 Cl
ENDBRANCH   7  12
BRANCH   5  19
ATOM     19  C   UNL     1      -1.181  -3.404  -2.271  0.00  0.00    -0.018 A 
ATOM     20  C   UNL     1      -2.401  -2.927  -1.817  0.00  0.00    +0.025 A 
ATOM     21  C   UNL     1      -3.500  -2.986  -2.653  0.00  0.00    +0.111 A 
ATOM     22  N   UNL     1      -3.397  -3.487  -3.868  0.00  0.00    -0.263 NA
ATOM     23  C   UNL     1      -2.253  -3.949  -4.333  0.00  0.00    +0.111 A 
ATOM     24  C   UNL     1      -1.110  -3.918  -3.557  0.00  0.00    +0.025 A 
ENDBRANCH   5  19
TORSDOF 2
