REMARK  Name = ZINC12182164
REMARK  7 active torsions:
REMARK  status: ('A' for Active; 'I' for Inactive)
REMARK    1  A    between atoms: C_1  and  C_2
REMARK    2  A    between atoms: C_2  and  C_4
REMARK    3  A    between atoms: C_2  and  N_14
REMARK    4  A    between atoms: C_15  and  C_17
REMARK    5  A    between atoms: N_22  and  C_24
REMARK    6  A    between atoms: N_32  and  C_35
REMARK    7  A    between atoms: C_35  and  C_36
REMARK                            x       y       z     vdW  Elec       q    Type
REMARK                         _______ _______ _______ _____ _____    ______ ____
ROOT
ATOM      1  C   UNL     1      -5.678   2.540   1.882  0.00  0.00    +0.092 C 
ATOM      2  C   UNL     1      -6.348   3.372   0.784  0.00  0.00    +0.016 C 
ATOM      3  C   UNL     1      -7.469   4.212   1.403  0.00  0.00    +0.020 C 
ATOM      4  C   UNL     1      -8.469   3.285   2.099  0.00  0.00    +0.105 C 
ATOM      5  N   UNL     1      -7.780   2.512   3.140  0.00  0.00    -0.329 N 
ATOM      6  C   UNL     1      -6.730   1.663   2.564  0.00  0.00    +0.117 C 
ENDROOT
BRANCH   5   7
ATOM      7  C   UNL     1      -8.681   1.758   3.878  0.00  0.00    +0.043 A 
ATOM      8  C   UNL     1      -9.414   0.740   3.264  0.00  0.00    +0.024 A 
ATOM      9  C   UNL     1     -10.305  -0.015   3.996  0.00  0.00    +0.003 A 
ATOM     10  C   UNL     1     -10.498   0.233   5.349  0.00  0.00    +0.014 A 
ATOM     11  C   UNL     1      -9.786   1.241   5.974  0.00  0.00    +0.051 A 
ATOM     12  C   UNL     1      -8.865   2.015   5.235  0.00  0.00    +0.070 A 
ATOM     13  C   UNL     1      -8.292   2.981   6.187  0.00  0.00    +0.256 C 
ATOM     14  O   UNL     1      -7.456   3.823   5.925  0.00  0.00    -0.269 OA
ATOM     15  N   UNL     1      -8.846   2.775   7.396  0.00  0.00    -0.230 N 
ATOM     16  C   UNL     1      -9.737   1.767   7.354  0.00  0.00    +0.254 C 
ATOM     17  O   UNL     1     -10.390   1.359   8.293  0.00  0.00    -0.270 OA
BRANCH  15  18
ATOM     18  C   UNL     1      -8.522   3.546   8.598  0.00  0.00    +0.152 C 
BRANCH  18  19
ATOM     19  C   UNL     1      -7.380   2.886   9.326  0.00  0.00    -0.027 A 
ATOM     20  C   UNL     1      -7.618   1.928  10.300  0.00  0.00    +0.025 A 
ATOM     21  C   UNL     1      -6.545   1.341  10.943  0.00  0.00    +0.111 A 
ATOM     22  N   UNL     1      -5.308   1.689  10.647  0.00  0.00    -0.263 NA
ATOM     23  C   UNL     1      -5.044   2.600   9.730  0.00  0.00    +0.111 A 
ATOM     24  C   UNL     1      -6.066   3.226   9.042  0.00  0.00    +0.025 A 
ENDBRANCH  18  19
ENDBRANCH  15  18
ENDBRANCH   5   7
BRANCH   1  26
ATOM     25  N   UNL     1      -3.577   2.226   0.615  0.00  0.00    -0.308 N 
ATOM     26  C   UNL     1      -4.613   1.667   1.272  0.00  0.00    +0.218 C 
ATOM     27  O   UNL     1      -4.687   0.460   1.372  0.00  0.00    -0.275 OA
ATOM     28  H   UNL     1      -3.518   3.191   0.535  0.00  0.00    +0.149 HD
BRANCH  25  30
ATOM     29  C   UNL     1      -2.964   0.969  -1.391  0.00  0.00    +0.033 C 
ATOM     30  C   UNL     1      -2.541   1.377   0.022  0.00  0.00    +0.101 C 
BRANCH  30  31
ATOM     31  C   UNL     1      -1.243   2.139  -0.043  0.00  0.00    -0.020 A 
ATOM     32  C   UNL     1      -1.250   3.498  -0.126  0.00  0.00    +0.006 A 
ATOM     33  C   UNL     1      -0.060   4.219  -0.193  0.00  0.00    +0.001 A 
ATOM     34  C   UNL     1       1.145   3.586  -0.170  0.00  0.00    +0.008 A 
ATOM     35  C   UNL     1       1.193   2.185  -0.078  0.00  0.00    -0.018 A 
ATOM     36  C   UNL     1      -0.018   1.451  -0.011  0.00  0.00    -0.013 A 
ATOM     37  C   UNL     1       0.030   0.049   0.080  0.00  0.00    +0.009 A 
ATOM     38  C   UNL     1       1.235  -0.583   0.102  0.00  0.00    +0.001 A 
ATOM     39  C   UNL     1       2.425   0.139   0.036  0.00  0.00    +0.001 A 
ATOM     40  C   UNL     1       2.418   1.496  -0.053  0.00  0.00    +0.008 A 
ENDBRANCH  30  31
ENDBRANCH  25  30
ENDBRANCH   1  26
TORSDOF 6
