REMARK  Name = ZINC13575825
REMARK  13 active torsions:
REMARK  status: ('A' for Active; 'I' for Inactive)
REMARK    1  A    between atoms: C_1  and  C_2
REMARK    2  A    between atoms: C_5  and  N_9
REMARK    3  A    between atoms: C_7  and  C_8
REMARK    4  A    between atoms: C_10  and  O_40
REMARK    5  A    between atoms: C_11  and  C_15
REMARK    6  A    between atoms: C_12  and  C_14
REMARK    7  A    between atoms: C_15  and  C_17
REMARK    8  A    between atoms: C_15  and  C_24
REMARK    9  A    between atoms: C_21  and  O_23
REMARK   10  A    between atoms: C_26  and  C_39
REMARK   11  A    between atoms: N_28  and  C_31
REMARK   12  A    between atoms: C_34  and  C_38
REMARK   13  A    between atoms: C_35  and  C_37
REMARK                            x       y       z     vdW  Elec       q    Type
REMARK                         _______ _______ _______ _____ _____    ______ ____
ROOT
ATOM      1  C   UNL     1       1.554   1.675   2.528  0.00  0.00    +0.074 C 
ENDROOT
BRANCH   1   2
ATOM      2  C   UNL     1       1.128   0.206   2.505  0.00  0.00    +0.135 C 
ATOM      3  C   UNL     1       2.311  -0.688   2.201  0.00  0.00    +0.047 C 
ATOM      4  N   UNL     1       2.472  -1.455   3.207  0.00  0.00    -0.181 NA
ATOM      5  N   UNL     1       1.545  -1.232   4.220  0.00  0.00    -0.160 N 
ATOM      6  C   UNL     1       0.689  -0.244   3.886  0.00  0.00    +0.249 C 
ATOM      7  O   UNL     1      -0.232   0.190   4.546  0.00  0.00    -0.273 OA
ATOM      8  C   UNL     1       3.143  -0.673   0.944  0.00  0.00    +0.063 C 
BRANCH   5   9
ATOM      9  C   UNL     1       1.505  -1.940   5.427  0.00  0.00    +0.060 A 
ATOM     10  C   UNL     1       0.541  -1.637   6.380  0.00  0.00    +0.026 A 
ATOM     11  C   UNL     1       0.500  -2.341   7.567  0.00  0.00    +0.005 A 
ATOM     12  C   UNL     1       1.426  -3.339   7.812  0.00  0.00    -0.047 A 
ATOM     13  C   UNL     1       2.390  -3.639   6.868  0.00  0.00    -0.046 A 
ATOM     14  C   UNL     1       2.433  -2.943   5.676  0.00  0.00    +0.029 A 
ATOM     15  C   UNL     1       3.397  -4.728   7.140  0.00  0.00    +0.044 C 
ATOM     16  C   UNL     1       1.382  -4.102   9.111  0.00  0.00    +0.044 C 
ENDBRANCH   5   9
ENDBRANCH   1   2
BRANCH   1  19
ATOM     17  N   UNL     1       2.346   2.368  -0.975  0.00  0.00    -0.200 N 
ATOM     18  C   UNL     1       1.505   1.893  -0.018  0.00  0.00    +0.220 A 
ATOM     19  C   UNL     1       2.119   2.055   1.184  0.00  0.00    +0.045 A 
ATOM     20  C   UNL     1       3.370   2.636   0.951  0.00  0.00    +0.068 A 
ATOM     21  N   UNL     1       3.506   2.826  -0.336  0.00  0.00    -0.168 NA
ATOM     22  C   UNL     1       4.388   2.987   2.006  0.00  0.00    +0.068 C 
BRANCH  17  27
ATOM     23  C   UNL     1       1.339   2.473  -6.559  0.00  0.00    +0.044 C 
ATOM     24  C   UNL     1       1.606   2.445  -5.076  0.00  0.00    -0.047 A 
ATOM     25  C   UNL     1       1.131   1.396  -4.309  0.00  0.00    +0.006 A 
ATOM     26  C   UNL     1       1.379   1.365  -2.951  0.00  0.00    +0.028 A 
ATOM     27  C   UNL     1       2.097   2.393  -2.354  0.00  0.00    +0.069 A 
ATOM     28  C   UNL     1       2.573   3.444  -3.127  0.00  0.00    +0.031 A 
ATOM     29  C   UNL     1       2.326   3.467  -4.486  0.00  0.00    -0.046 A 
ATOM     30  C   UNL     1       2.842   4.607  -5.325  0.00  0.00    +0.044 C 
ENDBRANCH  17  27
BRANCH  18  31
ATOM     31  O   UNL     1       0.274   1.359  -0.224  0.00  0.00    -0.492 OA
ATOM     32  H   UNL     1       0.278   0.402  -0.363  0.00  0.00    +0.294 HD
ENDBRANCH  18  31
ENDBRANCH   1  19
BRANCH   1  33
ATOM     33  C   UNL     1       0.359   2.541   2.833  0.00  0.00    -0.035 A 
ATOM     34  C   UNL     1      -0.846   2.303   2.198  0.00  0.00    +0.004 A 
ATOM     35  C   UNL     1      -1.946   3.092   2.480  0.00  0.00    +0.004 A 
ATOM     36  C   UNL     1      -1.841   4.127   3.389  0.00  0.00    +0.045 A 
ATOM     37  C   UNL     1      -0.632   4.371   4.024  0.00  0.00    +0.117 A 
ATOM     38  C   UNL     1       0.469   3.574   3.743  0.00  0.00    +0.049 A 
BRANCH  37  39
ATOM     39  O   UNL     1      -0.525   5.389   4.918  0.00  0.00    -0.507 OA
ATOM     40  H   UNL     1      -0.264   6.232   4.524  0.00  0.00    +0.292 HD
ENDBRANCH  37  39
ENDBRANCH   1  33
TORSDOF 7
