REMARK  Name = ZINC36045033
REMARK  12 active torsions:
REMARK  status: ('A' for Active; 'I' for Inactive)
REMARK    1  A    between atoms: C_1  and  C_2
REMARK    2  A    between atoms: C_7  and  C_8
REMARK    3  A    between atoms: N_10  and  C_11
REMARK    4  A    between atoms: N_10  and  C_15
REMARK    5  A    between atoms: C_11  and  C_12
REMARK    6  A    between atoms: C_12  and  O_13
REMARK    7  A    between atoms: O_13  and  C_14
REMARK    8  A    between atoms: C_15  and  C_16
REMARK    9  A    between atoms: C_21  and  C_32
REMARK   10  A    between atoms: N_23  and  C_24
REMARK   11  A    between atoms: C_27  and  C_31
REMARK   12  A    between atoms: C_28  and  C_30
REMARK                            x       y       z     vdW  Elec       q    Type
REMARK                         _______ _______ _______ _____ _____    ______ ____
ROOT
ATOM      1  C   UNL     1      -1.139  -0.326   5.516  0.00  0.00    +0.237 C 
ATOM      2  O   UNL     1      -2.012  -0.827   4.838  0.00  0.00    -0.274 OA
ATOM      3  N   UNL     1      -1.438   0.188   6.726  0.00  0.00    -0.254 N 
ATOM      4  C   UNL     1      -2.743   0.144   7.196  0.00  0.00    +0.207 A 
ATOM      5  N   UNL     1      -3.766  -0.374   6.562  0.00  0.00    -0.214 NA
ATOM      6  C   UNL     1      -4.875  -0.239   7.321  0.00  0.00    +0.091 A 
ATOM      7  C   UNL     1      -4.523   0.388   8.472  0.00  0.00    +0.122 A 
ATOM      8  N   UNL     1      -3.172   0.627   8.397  0.00  0.00    -0.287 N 
ATOM      9  H   UNL     1      -0.740   0.589   7.267  0.00  0.00    +0.158 HD
ENDROOT
BRANCH   8  10
ATOM     10  C   UNL     1      -2.383   1.253   9.372  0.00  0.00    +0.049 A 
ATOM     11  C   UNL     1      -1.197   0.664   9.791  0.00  0.00    +0.026 A 
ATOM     12  C   UNL     1      -0.422   1.283  10.751  0.00  0.00    +0.005 A 
ATOM     13  C   UNL     1      -0.825   2.489  11.296  0.00  0.00    -0.047 A 
ATOM     14  C   UNL     1      -2.005   3.078  10.881  0.00  0.00    -0.046 A 
ATOM     15  C   UNL     1      -2.782   2.466   9.916  0.00  0.00    +0.029 A 
ATOM     16  C   UNL     1      -2.441   4.391  11.477  0.00  0.00    +0.044 C 
ATOM     17  C   UNL     1       0.023   3.162  12.344  0.00  0.00    +0.044 C 
ENDBRANCH   8  10
BRANCH   6  18
ATOM     18  C   UNL     1      -6.239  -0.697   6.960  0.00  0.00    +0.002 A 
ATOM     19  C   UNL     1      -7.302  -0.488   7.837  0.00  0.00    +0.011 A 
ATOM     20  C   UNL     1      -8.569  -0.915   7.496  0.00  0.00    +0.020 A 
ATOM     21  C   UNL     1      -8.786  -1.549   6.285  0.00  0.00    +0.041 A 
ATOM     22  C   UNL     1      -7.733  -1.759   5.410  0.00  0.00    +0.020 A 
ATOM     23  C   UNL     1      -6.463  -1.331   5.739  0.00  0.00    +0.011 A 
ATOM     24 CL   UNL     1     -10.382  -2.085   5.862  0.00  0.00    -0.084 Cl
ENDBRANCH   6  18
BRANCH   1  25
ATOM     25  C   UNL     1       0.278  -0.278   5.005  0.00  0.00    +0.204 C 
BRANCH  25  28
ATOM     26  C   UNL     1       0.155  -0.144   2.575  0.00  0.00    +0.247 C 
ATOM     27  O   UNL     1       0.044   1.063   2.674  0.00  0.00    -0.270 OA
ATOM     28  N   UNL     1       0.340  -0.896   3.678  0.00  0.00    -0.287 N 
BRANCH  26  35
ATOM     29  C   UNL     1       1.936   0.736   0.471  0.00  0.00    +0.044 C 
ATOM     30  C   UNL     1       0.943  -0.370   0.223  0.00  0.00    -0.038 A 
ATOM     31  C   UNL     1       0.880  -0.977  -1.014  0.00  0.00    +0.004 A 
ATOM     32  C   UNL     1      -0.030  -1.992  -1.244  0.00  0.00    +0.000 A 
ATOM     33  C   UNL     1      -0.884  -2.406  -0.237  0.00  0.00    +0.001 A 
ATOM     34  C   UNL     1      -0.831  -1.807   1.005  0.00  0.00    +0.013 A 
ATOM     35  C   UNL     1       0.089  -0.786   1.245  0.00  0.00    +0.040 A 
ENDBRANCH  26  35
BRANCH  28  36
ATOM     36  C   UNL     1       0.602  -2.331   3.550  0.00  0.00    +0.136 C 
BRANCH  36  37
ATOM     37  C   UNL     1       2.096  -2.557   3.308  0.00  0.00    +0.178 C 
BRANCH  37  38
ATOM     38  O   UNL     1       2.834  -2.139   4.457  0.00  0.00    -0.381 OA
ATOM     39  C   UNL     1       4.247  -2.308   4.334  0.00  0.00    +0.194 C 
ENDBRANCH  37  38
ENDBRANCH  36  37
ENDBRANCH  28  36
ENDBRANCH  25  28
ENDBRANCH   1  25
TORSDOF 8
