REMARK  Name = ZINC36491458
REMARK  13 active torsions:
REMARK  status: ('A' for Active; 'I' for Inactive)
REMARK    1  A    between atoms: C_1  and  C_2
REMARK    2  A    between atoms: C_5  and  S_8
REMARK    3  A    between atoms: S_8  and  C_11
REMARK    4  A    between atoms: C_11  and  N_12
REMARK    5  A    between atoms: C_13  and  C_15
REMARK    6  A    between atoms: C_15  and  C_17
REMARK    7  A    between atoms: C_15  and  N_26
REMARK    8  A    between atoms: C_20  and  N_23
REMARK    9  A    between atoms: N_23  and  C_24
REMARK   10  A    between atoms: N_23  and  C_25
REMARK   11  A    between atoms: N_26  and  C_27
REMARK   12  A    between atoms: C_33  and  C_35
REMARK   13  A    between atoms: C_35  and  C_37
REMARK                            x       y       z     vdW  Elec       q    Type
REMARK                         _______ _______ _______ _____ _____    ______ ____
ROOT
ATOM      1  C   UNL     1       1.926  -5.766   4.039  0.00  0.00    +0.193 C 
ENDROOT
BRANCH   1   2
ATOM      2  C   UNL     1       1.602  -4.297   3.951  0.00  0.00    -0.018 A 
ATOM      3  C   UNL     1       0.832  -3.700   4.934  0.00  0.00    +0.008 A 
ATOM      4  C   UNL     1       0.533  -2.354   4.856  0.00  0.00    +0.023 A 
ATOM      5  C   UNL     1       1.006  -1.599   3.791  0.00  0.00    +0.029 A 
ATOM      6  C   UNL     1       1.779  -2.201   2.806  0.00  0.00    +0.023 A 
ATOM      7  C   UNL     1       2.079  -3.546   2.892  0.00  0.00    +0.008 A 
BRANCH   5   8
ATOM      8  N   UNL     1       0.704  -0.238   3.709  0.00  0.00    -0.336 N 
ATOM      9  C   UNL     1      -0.231   0.363   4.663  0.00  0.00    +0.129 C 
ATOM     10  C   UNL     1       1.324   0.589   2.671  0.00  0.00    +0.129 C 
ENDBRANCH   5   8
ENDBRANCH   1   2
BRANCH   1  12
ATOM     11  N   UNL     1       2.161  -7.198   2.036  0.00  0.00    -0.294 N 
ATOM     12  C   UNL     1       1.354  -6.479   2.841  0.00  0.00    +0.239 C 
ATOM     13  O   UNL     1       0.167  -6.406   2.602  0.00  0.00    -0.273 OA
ATOM     14  H   UNL     1       3.110  -7.257   2.228  0.00  0.00    +0.150 HD
BRANCH  11  15
ATOM     15  C   UNL     1       1.604  -7.891   0.872  0.00  0.00    +0.278 C 
BRANCH  15  16
ATOM     16  S   UNL     1       1.788  -6.846  -0.599  0.00  0.00    +0.013 S 
ATOM     17  O   UNL     1       1.361  -5.521  -0.315  0.00  0.00    -0.168 OA
ATOM     18  O   UNL     1       1.310  -7.531  -1.749  0.00  0.00    -0.168 OA
BRANCH  16  23
ATOM     19  C   UNL     1       7.745  -6.392  -1.446  0.00  0.00    +0.044 C 
ATOM     20  C   UNL     1       6.257  -6.505  -1.235  0.00  0.00    -0.050 A 
ATOM     21  C   UNL     1       5.551  -7.532  -1.832  0.00  0.00    +0.005 A 
ATOM     22  C   UNL     1       4.186  -7.636  -1.638  0.00  0.00    +0.027 A 
ATOM     23  C   UNL     1       3.528  -6.714  -0.846  0.00  0.00    +0.090 A 
ATOM     24  C   UNL     1       4.235  -5.688  -0.248  0.00  0.00    +0.027 A 
ATOM     25  C   UNL     1       5.600  -5.586  -0.439  0.00  0.00    +0.005 A 
ENDBRANCH  16  23
ENDBRANCH  15  16
ENDBRANCH  11  15
ENDBRANCH   1  12
BRANCH   1  26
ATOM     26  N   UNL     1       1.345  -6.322   5.263  0.00  0.00    -0.279 N 
ATOM     27  C   UNL     1       2.071  -6.359   6.398  0.00  0.00    +0.243 C 
ATOM     28  O   UNL     1       1.683  -7.014   7.346  0.00  0.00    -0.270 OA
BRANCH  26  29
ATOM     29  C   UNL     1      -0.026  -6.839   5.253  0.00  0.00    +0.077 C 
ATOM     30  C   UNL     1      -0.908  -5.963   6.145  0.00  0.00    +0.022 C 
ATOM     31  C   UNL     1      -2.340  -6.503   6.135  0.00  0.00    +0.002 C 
ATOM     32  C   UNL     1      -2.347  -7.938   6.663  0.00  0.00    +0.000 C 
ATOM     33  C   UNL     1      -1.465  -8.815   5.772  0.00  0.00    +0.002 C 
ATOM     34  C   UNL     1      -0.034  -8.275   5.782  0.00  0.00    +0.022 C 
ENDBRANCH  26  29
BRANCH  27  35
ATOM     35  C   UNL     1       3.331  -5.606   6.489  0.00  0.00    +0.004 C 
ATOM     36  C   UNL     1       4.418  -6.186   6.991  0.00  0.00    +0.017 C 
ATOM     37  C   UNL     1       3.391  -4.177   6.015  0.00  0.00    +0.048 C 
ENDBRANCH  27  35
ENDBRANCH   1  26
TORSDOF 9
