REMARK  Name = ZINC66956809
REMARK  6 active torsions:
REMARK  status: ('A' for Active; 'I' for Inactive)
REMARK    1  A    between atoms: C_1  and  C_2
REMARK    2  A    between atoms: C_5  and  C_7
REMARK    3  A    between atoms: C_7  and  C_9
REMARK    4  A    between atoms: C_7  and  N_10
REMARK    5  A    between atoms: N_13  and  C_14
REMARK    6  A    between atoms: C_17  and  C_20
REMARK                            x       y       z     vdW  Elec       q    Type
REMARK                         _______ _______ _______ _____ _____    ______ ____
ROOT
ATOM      1  C   UNL     1       5.240  -4.753   2.893  0.00  0.00    +0.035 A 
ATOM      2  C   UNL     1       4.964  -6.084   2.601  0.00  0.00    +0.024 A 
ATOM      3  C   UNL     1       5.641  -7.089   3.257  0.00  0.00    +0.013 A 
ATOM      4  C   UNL     1       6.604  -6.770   4.215  0.00  0.00    +0.019 A 
ATOM      5  C   UNL     1       6.880  -5.433   4.505  0.00  0.00    +0.013 A 
ATOM      6  C   UNL     1       6.203  -4.432   3.842  0.00  0.00    +0.024 A 
ENDROOT
BRANCH   4   7
ATOM      7  C   UNL     1       7.332  -7.846   4.921  0.00  0.00    +0.164 A 
ATOM      8  N   UNL     1       8.015  -7.730   6.042  0.00  0.00    -0.129 NA
ATOM      9  N   UNL     1       8.517  -8.871   6.368  0.00  0.00    -0.134 NA
ATOM     10  C   UNL     1       8.186  -9.767   5.487  0.00  0.00    +0.134 A 
ATOM     11  N   UNL     1       7.421  -9.150   4.542  0.00  0.00    -0.311 N 
ATOM     12  C   UNL     1       6.843  -9.811   3.373  0.00  0.00    +0.125 C 
ATOM     13  C   UNL     1       7.562 -11.148   3.159  0.00  0.00    +0.022 C 
ATOM     14  C   UNL     1       7.591 -11.932   4.473  0.00  0.00    +0.009 C 
ATOM     15  C   UNL     1       8.541 -11.233   5.458  0.00  0.00    +0.076 C 
ENDBRANCH   4   7
BRANCH   1  19
ATOM     16  N   UNL     1       2.566  -2.888   1.338  0.00  0.00    -0.290 N 
ATOM     17  C   UNL     1       3.255  -3.902   1.898  0.00  0.00    +0.304 C 
ATOM     18  O   UNL     1       2.707  -4.967   2.106  0.00  0.00    -0.252 OA
ATOM     19  N   UNL     1       4.551  -3.735   2.226  0.00  0.00    -0.269 N 
ATOM     20  H   UNL     1       3.003  -2.038   1.172  0.00  0.00    +0.151 HD
ATOM     21  H   UNL     1       5.007  -2.909   2.000  0.00  0.00    +0.156 HD
BRANCH  16  22
ATOM     22  C   UNL     1       1.156  -3.069   0.981  0.00  0.00    +0.137 C 
ATOM     23  C   UNL     1       1.060  -3.707  -0.406  0.00  0.00    +0.036 C 
BRANCH  22  28
ATOM     24  C   UNL     1       0.289   1.845   0.244  0.00  0.00    +0.086 C 
ATOM     25  C   UNL     1       0.088   0.407   0.648  0.00  0.00    +0.102 A 
ATOM     26  C   UNL     1      -1.018  -0.103   1.220  0.00  0.00    +0.045 A 
ATOM     27  C   UNL     1      -0.774  -1.480   1.426  0.00  0.00    +0.047 A 
ATOM     28  C   UNL     1       0.465  -1.730   0.968  0.00  0.00    +0.125 A 
ATOM     29  O   UNL     1       0.981  -0.585   0.493  0.00  0.00    -0.463 OA
ENDBRANCH  22  28
ENDBRANCH  16  22
ENDBRANCH   1  19
TORSDOF 4
