REMARK  Name = ZINC39668988
REMARK  4 active torsions:
REMARK  status: ('A' for Active; 'I' for Inactive)
REMARK    1  A    between atoms: C_10  and  C_12
REMARK    2  A    between atoms: C_12  and  N_13
REMARK    3  A    between atoms: C_14  and  C_16
REMARK    4  A    between atoms: C_27  and  C_29
REMARK                            x       y       z     vdW  Elec       q    Type
REMARK                         _______ _______ _______ _____ _____    ______ ____
ROOT
ATOM      1  C   UNL     1       7.968  -0.961   2.033  0.00  0.00    +0.100 C 
ATOM      2  C   UNL     1       8.171  -2.474   2.272  0.00  0.00    +0.121 C 
ATOM      3  N   UNL     1       9.503  -2.577   2.912  0.00  0.00    -0.296 N 
ATOM      4  C   UNL     1       9.558  -1.420   3.838  0.00  0.00    +0.115 C 
ATOM      5  C   UNL     1       8.880  -0.273   3.063  0.00  0.00    -0.004 C 
ATOM      6  C   UNL     1       9.930   0.578   2.355  0.00  0.00    -0.010 C 
ATOM      7  C   UNL     1      10.788   1.296   3.400  0.00  0.00    -0.082 C 
ATOM      8  N   UNL     1       9.932   2.140   4.243  0.00  0.00    +0.379 N 
ATOM      9  C   UNL     1       8.985   1.304   4.991  0.00  0.00    -0.082 C 
ATOM     10  C   UNL     1       8.051   0.586   4.013  0.00  0.00    -0.010 C 
ATOM     11  C   UNL     1      10.451  -3.511   2.700  0.00  0.00    +0.247 C 
ATOM     12  O   UNL     1      10.311  -4.329   1.811  0.00  0.00    -0.270 OA
ATOM     13  H   UNL     1      10.506   2.659   4.891  0.00  0.00    -0.086 HD
ATOM     14  H   UNL     1       9.420   2.786   3.660  0.00  0.00    -0.086 HD
ENDROOT
BRANCH  11  15
ATOM     15  C   UNL     1      11.662  -3.541   3.548  0.00  0.00    +0.037 A 
ATOM     16  C   UNL     1      11.654  -2.928   4.802  0.00  0.00    +0.014 A 
ATOM     17  C   UNL     1      12.787  -2.959   5.588  0.00  0.00    +0.016 A 
ATOM     18  C   UNL     1      13.929  -3.598   5.136  0.00  0.00    +0.018 A 
ATOM     19  C   UNL     1      13.943  -4.209   3.894  0.00  0.00    +0.016 A 
ATOM     20  C   UNL     1      12.815  -4.189   3.100  0.00  0.00    +0.014 A 
ATOM     21 BR   UNL     1      15.478  -3.636   6.221  0.00  0.00    -0.050 Br
ENDBRANCH  11  15
BRANCH   1  23
ATOM     22  N   UNL     1       5.983   0.447   1.588  0.00  0.00    -0.312 N 
ATOM     23  C   UNL     1       6.529  -0.580   2.269  0.00  0.00    +0.218 C 
ATOM     24  O   UNL     1       5.863  -1.198   3.073  0.00  0.00    -0.275 OA
ATOM     25  H   UNL     1       6.516   0.941   0.946  0.00  0.00    +0.149 HD
BRANCH  22  26
ATOM     26  C   UNL     1       4.584   0.816   1.818  0.00  0.00    +0.140 C 
BRANCH  26  36
ATOM     27  C   UNL     1       0.269   3.303   1.923  0.00  0.00    +0.000 A 
ATOM     28  C   UNL     1       1.173   2.979   2.918  0.00  0.00    +0.000 A 
ATOM     29  C   UNL     1       2.444   2.559   2.582  0.00  0.00    +0.006 A 
ATOM     30  C   UNL     1       2.819   2.460   1.251  0.00  0.00    -0.014 A 
ATOM     31  C   UNL     1       1.916   2.779   0.259  0.00  0.00    -0.040 A 
ATOM     32  C   UNL     1       0.641   3.204   0.597  0.00  0.00    +0.004 A 
ATOM     33  C   UNL     1       2.282   2.671  -1.199  0.00  0.00    +0.063 C 
ATOM     34  C   UNL     1       3.803   2.602  -1.348  0.00  0.00    +0.165 C 
ATOM     35  O   UNL     1       4.302   1.610  -0.444  0.00  0.00    -0.370 OA
ATOM     36  C   UNL     1       4.218   2.004   0.925  0.00  0.00    +0.165 C 
ENDBRANCH  26  36
ENDBRANCH  22  26
ENDBRANCH   1  23
TORSDOF 4
