REMARK  Name = ZINC09762986
REMARK  10 active torsions:
REMARK  status: ('A' for Active; 'I' for Inactive)
REMARK    1  A    between atoms: C_1  and  C_2
REMARK    2  A    between atoms: C_2  and  O_3
REMARK    3  A    between atoms: O_3  and  C_4
REMARK    4  A    between atoms: C_6  and  C_12
REMARK    5  A    between atoms: C_9  and  O_10
REMARK    6  A    between atoms: C_14  and  C_21
REMARK    7  A    between atoms: C_15  and  C_20
REMARK    8  A    between atoms: N_23  and  C_24
REMARK    9  A    between atoms: C_27  and  C_31
REMARK   10  A    between atoms: C_29  and  C_30
REMARK                            x       y       z     vdW  Elec       q    Type
REMARK                         _______ _______ _______ _____ _____    ______ ____
ROOT
ATOM      1  C   UNL     1      -4.620   4.366   7.089  0.00  0.00    +0.142 C 
ATOM      2  C   UNL     1      -3.125   4.460   7.319  0.00  0.00    +0.056 C 
ATOM      3  C   UNL     1      -2.701   4.903   8.521  0.00  0.00    +0.019 C 
ATOM      4  N   UNL     1      -3.590   5.264   9.493  0.00  0.00    -0.273 N 
ATOM      5  C   UNL     1      -4.919   5.201   9.344  0.00  0.00    +0.304 C 
ATOM      6  O   UNL     1      -5.632   5.540  10.269  0.00  0.00    -0.252 OA
ATOM      7  N   UNL     1      -5.493   4.773   8.202  0.00  0.00    -0.288 N 
ATOM      8  C   UNL     1      -1.222   5.007   8.793  0.00  0.00    +0.061 C 
ATOM      9  H   UNL     1      -3.239   5.580  10.341  0.00  0.00    +0.156 HD
ATOM     10  H   UNL     1      -6.458   4.735   8.116  0.00  0.00    +0.151 HD
ENDROOT
BRANCH   1  13
ATOM     11  C   UNL     1      -5.569   5.404   3.583  0.00  0.00    +0.163 A 
ATOM     12  C   UNL     1      -5.254   4.622   4.682  0.00  0.00    +0.055 A 
ATOM     13  C   UNL     1      -4.961   5.218   5.894  0.00  0.00    -0.018 A 
ATOM     14  C   UNL     1      -4.986   6.596   6.014  0.00  0.00    +0.025 A 
ATOM     15  C   UNL     1      -5.294   7.383   4.920  0.00  0.00    +0.063 A 
ATOM     16  C   UNL     1      -5.589   6.790   3.701  0.00  0.00    +0.173 A 
ATOM     17 BR   UNL     1      -5.320   9.266   5.086  0.00  0.00    -0.046 Br
BRANCH  16  18
ATOM     18  O   UNL     1      -5.896   7.562   2.625  0.00  0.00    -0.503 OA
ATOM     19  H   UNL     1      -6.840   7.754   2.535  0.00  0.00    +0.292 HD
ENDBRANCH  16  18
BRANCH  11  20
ATOM     20  O   UNL     1      -5.858   4.818   2.390  0.00  0.00    -0.489 OA
BRANCH  20  22
ATOM     21  C   UNL     1      -6.220   2.917   0.943  0.00  0.00    +0.048 C 
ATOM     22  C   UNL     1      -5.930   3.391   2.369  0.00  0.00    +0.226 C 
ENDBRANCH  20  22
ENDBRANCH  11  20
ENDBRANCH   1  13
BRANCH   2  23
ATOM     23  C   UNL     1      -2.204   4.091   6.308  0.00  0.00    +0.248 C 
ATOM     24  O   UNL     1      -1.886   2.924   6.170  0.00  0.00    -0.270 OA
ATOM     25  N   UNL     1      -1.679   5.032   5.498  0.00  0.00    -0.281 N 
ATOM     26  H   UNL     1      -1.858   5.971   5.665  0.00  0.00    +0.155 HD
BRANCH  25  27
ATOM     27  C   UNL     1      -0.876   4.655   4.417  0.00  0.00    +0.037 A 
ATOM     28  C   UNL     1      -0.086   3.516   4.501  0.00  0.00    +0.024 A 
ATOM     29  C   UNL     1       0.707   3.147   3.432  0.00  0.00    +0.005 A 
ATOM     30  C   UNL     1       0.713   3.910   2.278  0.00  0.00    -0.050 A 
ATOM     31  C   UNL     1      -0.068   5.047   2.193  0.00  0.00    +0.008 A 
ATOM     32  C   UNL     1      -0.866   5.419   3.258  0.00  0.00    -0.029 A 
ATOM     33  C   UNL     1      -1.721   6.657   3.163  0.00  0.00    +0.045 C 
ATOM     34  C   UNL     1       1.579   3.504   1.113  0.00  0.00    +0.044 C 
ENDBRANCH  25  27
ENDBRANCH   2  23
TORSDOF 6
