REMARK  Name = ZINC43525185
REMARK  7 active torsions:
REMARK  status: ('A' for Active; 'I' for Inactive)
REMARK    1  A    between atoms: C_2  and  C_3
REMARK    2  A    between atoms: C_12  and  C_14
REMARK    3  A    between atoms: C_14  and  N_15
REMARK    4  A    between atoms: N_15  and  C_16
REMARK    5  A    between atoms: N_15  and  C_26
REMARK    6  A    between atoms: C_16  and  C_17
REMARK    7  A    between atoms: C_26  and  C_27
REMARK                            x       y       z     vdW  Elec       q    Type
REMARK                         _______ _______ _______ _____ _____    ______ ____
ROOT
ATOM      1  N   UNL     1      -2.889   4.751  -0.816  0.00  0.00    +0.386 N 
ATOM      2  H   UNL     1      -2.265   4.752  -1.610  0.00  0.00    -0.081 HD
ENDROOT
BRANCH   1   3
ATOM      3  C   UNL     1      -2.251   4.051   0.307  0.00  0.00    -0.059 C 
BRANCH   3  11
ATOM      4  C   UNL     1       0.906   1.262  -0.532  0.00  0.00    +0.081 C 
ATOM      5  C   UNL     1       0.170   1.957  -1.682  0.00  0.00    +0.101 C 
ATOM      6  N   UNL     1      -1.110   2.485  -1.192  0.00  0.00    -0.300 NA
ATOM      7  C   UNL     1      -1.980   1.401  -0.714  0.00  0.00    +0.085 C 
ATOM      8  C   UNL     1      -1.305   0.690   0.462  0.00  0.00    +0.020 C 
ATOM      9  C   UNL     1       0.051   1.359   0.737  0.00  0.00    +0.008 C 
ATOM     10  C   UNL     1      -0.191   2.841   1.052  0.00  0.00    +0.022 C 
ATOM     11  C   UNL     1      -0.899   3.492  -0.143  0.00  0.00    +0.040 C 
BRANCH   4  13
ATOM     12  C   UNL     1       1.303  -1.282  -1.142  0.00  0.00    +0.004 C 
ATOM     13  C   UNL     1       1.127  -0.153  -0.871  0.00  0.00    -0.101 C 
ENDBRANCH   4  13
ENDBRANCH   3  11
ENDBRANCH   1   3
BRANCH   1  14
ATOM     14  C   UNL     1      -4.137   4.065  -1.175  0.00  0.00    -0.042 C 
BRANCH  14  15
ATOM     15  C   UNL     1      -5.156   4.273  -0.084  0.00  0.00    -0.060 A 
ATOM     16  C   UNL     1      -4.866   3.890   1.212  0.00  0.00    +0.005 A 
ATOM     17  C   UNL     1      -5.797   4.080   2.216  0.00  0.00    +0.050 A 
ATOM     18  C   UNL     1      -7.024   4.654   1.925  0.00  0.00    +0.166 A 
ATOM     19  C   UNL     1      -7.316   5.039   0.619  0.00  0.00    +0.166 A 
ATOM     20  C   UNL     1      -6.376   4.852  -0.381  0.00  0.00    +0.051 A 
ATOM     21  O   UNL     1      -8.572   5.572   0.592  0.00  0.00    -0.453 OA
ATOM     22  C   UNL     1      -9.201   5.136   1.812  0.00  0.00    +0.466 C 
ATOM     23  O   UNL     1      -8.098   4.945   2.716  0.00  0.00    -0.453 OA
ENDBRANCH  14  15
ENDBRANCH   1  14
BRANCH   1  24
ATOM     24  C   UNL     1      -3.185   6.136  -0.425  0.00  0.00    -0.042 C 
BRANCH  24  25
ATOM     25  C   UNL     1      -3.235   7.005  -1.655  0.00  0.00    -0.060 A 
ATOM     26  C   UNL     1      -2.062   7.483  -2.210  0.00  0.00    +0.005 A 
ATOM     27  C   UNL     1      -2.102   8.280  -3.338  0.00  0.00    +0.050 A 
ATOM     28  C   UNL     1      -3.319   8.604  -3.915  0.00  0.00    +0.166 A 
ATOM     29  C   UNL     1      -4.500   8.123  -3.357  0.00  0.00    +0.166 A 
ATOM     30  C   UNL     1      -4.452   7.320  -2.229  0.00  0.00    +0.051 A 
ATOM     31  O   UNL     1      -5.551   8.577  -4.101  0.00  0.00    -0.453 OA
ATOM     32  C   UNL     1      -5.028   9.672  -4.877  0.00  0.00    +0.466 C 
ATOM     33  O   UNL     1      -3.629   9.359  -5.010  0.00  0.00    -0.453 OA
ENDBRANCH  24  25
ENDBRANCH   1  24
TORSDOF 7
