REMARK  Name = ZINC31050474
REMARK  10 active torsions:
REMARK  status: ('A' for Active; 'I' for Inactive)
REMARK    1  A    between atoms: C_5  and  C_7
REMARK    2  A    between atoms: C_9  and  C_12
REMARK    3  A    between atoms: C_12  and  N_13
REMARK    4  A    between atoms: C_17  and  C_20
REMARK    5  A    between atoms: N_22  and  C_23
REMARK    6  A    between atoms: C_23  and  C_24
REMARK    7  A    between atoms: C_24  and  C_25
REMARK    8  A    between atoms: C_25  and  S_26
REMARK    9  A    between atoms: S_26  and  C_27
REMARK   10  A    between atoms: C_27  and  C_28
REMARK                            x       y       z     vdW  Elec       q    Type
REMARK                         _______ _______ _______ _____ _____    ______ ____
ROOT
ATOM      1  N   UNL     1       1.991  -2.188  -1.413  0.00  0.00    +0.386 N 
ATOM      2  C   UNL     1       0.692  -2.316  -2.085  0.00  0.00    -0.078 C 
ATOM      3  C   UNL     1       0.910  -2.641  -3.564  0.00  0.00    -0.018 C 
ATOM      4  C   UNL     1       1.698  -3.949  -3.683  0.00  0.00    +0.009 C 
ATOM      5  C   UNL     1       3.026  -3.805  -2.934  0.00  0.00    +0.058 C 
ATOM      6  C   UNL     1       2.746  -3.446  -1.473  0.00  0.00    -0.065 C 
ATOM      7  H   UNL     1       2.572  -1.423  -1.949  0.00  0.00    -0.081 HD
ENDROOT
BRANCH   5   8
ATOM      8  C   UNL     1       3.783  -5.107  -2.995  0.00  0.00    +0.214 C 
ATOM      9  O   UNL     1       4.070  -5.691  -1.972  0.00  0.00    -0.276 OA
ATOM     10  N   UNL     1       4.140  -5.623  -4.188  0.00  0.00    -0.315 N 
ATOM     11  H   UNL     1       3.880  -5.094  -5.117  0.00  0.00    +0.149 HD
BRANCH  10  12
ATOM     12  C   UNL     1       4.875  -6.889  -4.248  0.00  0.00    +0.105 C 
BRANCH  12  13
ATOM     13  C   UNL     1       5.155  -7.247  -5.709  0.00  0.00    +0.029 C 
BRANCH  13  14
ATOM     14  C   UNL     1       5.923  -8.569  -5.771  0.00  0.00    +0.071 C 
BRANCH  14  15
ATOM     15  S   UNL     1       6.255  -8.995  -7.503  0.00  0.00    -0.156 S 
BRANCH  15  16
ATOM     16  C   UNL     1       7.159 -10.564  -7.404  0.00  0.00    +0.104 C 
BRANCH  16  17
ATOM     17  C   UNL     1       7.500 -11.036  -8.795  0.00  0.00    -0.037 A 
ATOM     18  C   UNL     1       6.624 -11.856  -9.481  0.00  0.00    +0.006 A 
ATOM     19  C   UNL     1       6.934 -12.284 -10.758  0.00  0.00    +0.020 A 
ATOM     20  C   UNL     1       8.126 -11.901 -11.345  0.00  0.00    +0.041 A 
ATOM     21  C   UNL     1       9.005 -11.085 -10.656  0.00  0.00    +0.020 A 
ATOM     22  C   UNL     1       8.692 -10.652  -9.381  0.00  0.00    +0.006 A 
ATOM     23 CL   UNL     1       8.519 -12.443 -12.947  0.00  0.00    -0.084 Cl
ENDBRANCH  16  17
ENDBRANCH  15  16
ENDBRANCH  14  15
ENDBRANCH  13  14
ENDBRANCH  12  13
ENDBRANCH  10  12
ENDBRANCH   5   8
BRANCH   1  24
ATOM     24  C   UNL     1       1.824  -1.739  -0.024  0.00  0.00    +0.022 C 
BRANCH  24  27
ATOM     25  C   UNL     1      -0.016   1.348   0.009  0.00  0.00    +0.203 A 
ATOM     26  N   UNL     1       0.002  -0.004   0.002  0.00  0.00    -0.193 NA
ATOM     27  C   UNL     1       1.268  -0.339  -0.012  0.00  0.00    +0.211 A 
ATOM     28  O   UNL     1       1.975   0.796  -0.013  0.00  0.00    -0.340 OA
ATOM     29  N   UNL     1       1.228   1.751  -0.000  0.00  0.00    -0.056 NA
BRANCH  25  34
ATOM     30  C   UNL     1      -2.213   4.399   0.037  0.00  0.00    +0.001 A 
ATOM     31  C   UNL     1      -3.473   3.826   0.040  0.00  0.00    +0.001 A 
ATOM     32  C   UNL     1      -3.613   2.451   0.033  0.00  0.00    +0.021 A 
ATOM     33  C   UNL     1      -2.494   1.640   0.018  0.00  0.00    +0.052 A 
ATOM     34  C   UNL     1      -1.222   2.213   0.020  0.00  0.00    +0.041 A 
ATOM     35  C   UNL     1      -1.088   3.600   0.027  0.00  0.00    +0.013 A 
ATOM     36 CL   UNL     1      -2.670  -0.087   0.001  0.00  0.00    -0.083 Cl
ENDBRANCH  25  34
ENDBRANCH  24  27
ENDBRANCH   1  24
TORSDOF 10
