REMARK  Name = ZINC09508595
REMARK  6 active torsions:
REMARK  status: ('A' for Active; 'I' for Inactive)
REMARK    1  A    between atoms: C_1  and  C_2
REMARK    2  A    between atoms: C_5  and  N_27
REMARK    3  A    between atoms: C_7  and  S_8
REMARK    4  A    between atoms: S_8  and  N_11
REMARK    5  A    between atoms: C_16  and  N_17
REMARK    6  A    between atoms: C_16  and  N_50
REMARK                            x       y       z     vdW  Elec       q    Type
REMARK                         _______ _______ _______ _____ _____    ______ ____
ROOT
ATOM      1  N   UNL     1       5.480  -0.188  -3.651  0.00  0.00    -0.180 NA
ATOM      2  C   UNL     1       5.442   1.174  -3.097  0.00  0.00    +0.091 C 
ATOM      3  C   UNL     1       5.108   1.083  -1.604  0.00  0.00    -0.059 C 
ATOM      4  C   UNL     1       4.045  -1.077  -1.893  0.00  0.00    -0.059 C 
ATOM      5  C   UNL     1       4.334  -1.074  -3.397  0.00  0.00    +0.091 C 
ATOM      6  N   UNL     1       3.852   0.319  -1.444  0.00  0.00    +0.393 N 
ATOM      7  H   UNL     1       3.122   0.756  -2.018  0.00  0.00    -0.079 HD
ENDROOT
BRANCH   1   8
ATOM      8  S   UNL     1       6.778  -0.709  -4.537  0.00  0.00    +0.061 S 
ATOM      9  O   UNL     1       6.279  -1.654  -5.473  0.00  0.00    -0.153 OA
ATOM     10  O   UNL     1       7.491   0.454  -4.936  0.00  0.00    -0.153 OA
BRANCH   8  17
ATOM     11  C   UNL     1       8.291   0.554  -2.242  0.00  0.00    +0.046 C 
ATOM     12  C   UNL     1       8.485  -0.930  -2.418  0.00  0.00    -0.024 A 
ATOM     13  C   UNL     1       9.314  -1.626  -1.558  0.00  0.00    +0.007 A 
ATOM     14  C   UNL     1       9.492  -2.987  -1.719  0.00  0.00    +0.033 A 
ATOM     15  C   UNL     1       8.841  -3.653  -2.741  0.00  0.00    +0.128 A 
ATOM     16  C   UNL     1       8.009  -2.958  -3.599  0.00  0.00    +0.061 A 
ATOM     17  C   UNL     1       7.835  -1.595  -3.440  0.00  0.00    +0.111 A 
BRANCH  15  18
ATOM     18  N   UNL     1       9.030  -5.110  -2.913  0.00  0.00    +0.056 N 
ATOM     19  O   UNL     1       9.760  -5.723  -2.155  0.00  0.00    -0.126 OA
ATOM     20  O   UNL     1       8.457  -5.697  -3.814  0.00  0.00    -0.126 OA
ENDBRANCH  15  18
ENDBRANCH   8  17
ENDBRANCH   1   8
BRANCH   6  21
ATOM     21  C   UNL     1       3.427   0.340  -0.029  0.00  0.00    +0.054 C 
BRANCH  21  22
ATOM     22  N   UNL     1       1.981   0.108   0.027  0.00  0.00    -0.291 N 
ATOM     23  C   UNL     1       0.986   1.084  -0.026  0.00  0.00    +0.088 A 
ATOM     24  C   UNL     1       1.013   2.465  -0.139  0.00  0.00    +0.029 A 
ATOM     25  C   UNL     1      -0.171   3.176  -0.166  0.00  0.00    +0.002 A 
ATOM     26  C   UNL     1      -1.383   2.512  -0.081  0.00  0.00    +0.004 A 
ATOM     27  C   UNL     1      -1.417   1.136   0.037  0.00  0.00    +0.048 A 
ATOM     28  C   UNL     1      -0.234   0.414   0.059  0.00  0.00    +0.157 A 
ATOM     29  O   UNL     1       0.040  -0.910   0.159  0.00  0.00    -0.407 OA
ATOM     30  C   UNL     1       1.370  -1.088   0.139  0.00  0.00    +0.420 A 
ATOM     31  O   UNL     1       1.935  -2.162   0.212  0.00  0.00    -0.223 OA
ENDBRANCH  21  22
ENDBRANCH   6  21
TORSDOF 5
