REMARK  Name = ZINC16909392
REMARK  10 active torsions:
REMARK  status: ('A' for Active; 'I' for Inactive)
REMARK    1  A    between atoms: C_1  and  C_2
REMARK    2  A    between atoms: C_2  and  C_3
REMARK    3  A    between atoms: C_10  and  C_12
REMARK    4  A    between atoms: C_15  and  S_18
REMARK    5  A    between atoms: N_16  and  C_17
REMARK    6  A    between atoms: S_18  and  C_19
REMARK    7  A    between atoms: C_19  and  C_21
REMARK    8  A    between atoms: C_19  and  C_22
REMARK    9  A    between atoms: N_24  and  C_25
REMARK   10  A    between atoms: C_26  and  C_30
REMARK                            x       y       z     vdW  Elec       q    Type
REMARK                         _______ _______ _______ _____ _____    ______ ____
ROOT
ATOM      1  C   UNL     1      -4.443   0.064  -1.572  0.00  0.00    +0.171 A 
ATOM      2  N   UNL     1      -3.925  -0.448  -0.477  0.00  0.00    -0.128 NA
ATOM      3  N   UNL     1      -2.732  -0.003  -0.307  0.00  0.00    -0.122 NA
ATOM      4  C   UNL     1      -2.416   0.827  -1.275  0.00  0.00    +0.192 A 
ATOM      5  N   UNL     1      -3.491   0.897  -2.116  0.00  0.00    -0.305 N 
ATOM      6  C   UNL     1      -3.607   1.692  -3.341  0.00  0.00    +0.153 C 
ENDROOT
BRANCH   1  13
ATOM      7  C   UNL     1     -10.294  -1.885  -2.632  0.00  0.00    -0.007 C 
ATOM      8  C   UNL     1     -10.197  -1.463  -4.101  0.00  0.00    +0.009 C 
ATOM      9  C   UNL     1      -9.393  -0.157  -4.187  0.00  0.00    +0.043 C 
ATOM     10  C   UNL     1      -8.156  -0.312  -3.362  0.00  0.00    -0.006 A 
ATOM     11  C   UNL     1      -7.894  -1.274  -2.431  0.00  0.00    -0.036 A 
ATOM     12  C   UNL     1      -6.662  -1.205  -1.792  0.00  0.00    +0.023 A 
ATOM     13  C   UNL     1      -5.786  -0.203  -2.113  0.00  0.00    +0.057 A 
ATOM     14  S   UNL     1      -6.700   0.700  -3.354  0.00  0.00    -0.090 S 
ATOM     15  C   UNL     1      -8.928  -2.356  -2.131  0.00  0.00    +0.039 C 
BRANCH   7  17
ATOM     16  C   UNL     1     -11.494  -3.366  -1.017  0.00  0.00    +0.004 C 
ATOM     17  C   UNL     1     -11.303  -3.027  -2.497  0.00  0.00    +0.000 C 
ENDBRANCH   7  17
ENDBRANCH   1  13
BRANCH   4  18
ATOM     18  S   UNL     1      -0.888   1.685  -1.458  0.00  0.00    -0.074 S 
BRANCH  18  19
ATOM     19  C   UNL     1      -0.013   1.086   0.008  0.00  0.00    +0.137 C 
ATOM     20  C   UNL     1      -0.729   1.579   1.267  0.00  0.00    +0.029 C 
BRANCH  19  21
ATOM     21  C   UNL     1       1.401   1.607  -0.003  0.00  0.00    +0.231 C 
ATOM     22  O   UNL     1       1.667   2.628  -0.602  0.00  0.00    -0.274 OA
ATOM     23  N   UNL     1       2.371   0.940   0.654  0.00  0.00    -0.278 N 
ATOM     24  H   UNL     1       2.158   0.124   1.133  0.00  0.00    +0.155 HD
BRANCH  23  25
ATOM     25  C   UNL     1       3.671   1.420   0.644  0.00  0.00    +0.084 A 
ATOM     26  C   UNL     1       4.795   0.881   1.260  0.00  0.00    +0.065 A 
ATOM     27  C   UNL     1       6.038   1.593   1.080  0.00  0.00    +0.022 A 
ATOM     28  C   UNL     1       6.000   2.718   0.343  0.00  0.00    +0.048 A 
ATOM     29  S   UNL     1       4.288   2.840  -0.132  0.00  0.00    -0.081 S 
BRANCH  26  30
ATOM     30  C   UNL     1       4.722  -0.351   2.050  0.00  0.00    +0.244 C 
ATOM     31  O   UNL     1       3.659  -0.929   2.180  0.00  0.00    -0.270 OA
ATOM     32  N   UNL     1       5.833  -0.844   2.633  0.00  0.00    -0.325 N 
ATOM     33  H   UNL     1       6.680  -0.384   2.530  0.00  0.00    +0.145 HD
ATOM     34  H   UNL     1       5.785  -1.660   3.156  0.00  0.00    +0.145 HD
ENDBRANCH  26  30
ENDBRANCH  23  25
ENDBRANCH  19  21
ENDBRANCH  18  19
ENDBRANCH   4  18
TORSDOF 7
