REMARK  Name = ZINC63376242
REMARK  6 active torsions:
REMARK  status: ('A' for Active; 'I' for Inactive)
REMARK    1  A    between atoms: C_1  and  N_2
REMARK    2  A    between atoms: C_5  and  O_30
REMARK    3  A    between atoms: C_7  and  O_28
REMARK    4  A    between atoms: C_10  and  C_11
REMARK    5  A    between atoms: O_28  and  C_29
REMARK    6  A    between atoms: O_30  and  C_31
REMARK                            x       y       z     vdW  Elec       q    Type
REMARK                         _______ _______ _______ _____ _____    ______ ____
ROOT
ATOM      1  C   UNL     1      -0.187  -0.359   2.509  0.00  0.00    +0.263 C 
ATOM      2  O   UNL     1      -0.133  -1.161   3.423  0.00  0.00    -0.268 OA
ATOM      3  N   UNL     1      -0.392   0.947   2.769  0.00  0.00    -0.292 N 
ATOM      4  C   UNL     1      -0.619   1.898   1.676  0.00  0.00    +0.111 C 
ATOM      5  C   UNL     1       0.416   3.029   1.717  0.00  0.00    +0.048 C 
ATOM      6  C   UNL     1       0.298   3.755   3.059  0.00  0.00    +0.109 C 
ATOM      7  C   UNL     1       0.446   2.699   4.147  0.00  0.00    -0.021 C 
ATOM      8  C   UNL     1       1.441   3.098   4.927  0.00  0.00    +0.002 A 
ATOM      9  C   UNL     1       2.003   2.543   6.169  0.00  0.00    +0.010 A 
ATOM     10  C   UNL     1       3.051   3.211   6.716  0.00  0.00    +0.002 A 
ATOM     11  C   UNL     1       3.611   4.371   6.173  0.00  0.00    +0.017 A 
ATOM     12  C   UNL     1       3.171   4.973   5.037  0.00  0.00    +0.041 A 
ATOM     13  C   UNL     1       2.034   4.345   4.352  0.00  0.00    +0.057 A 
ATOM     14  N   UNL     1       1.389   4.711   3.263  0.00  0.00    -0.377 N 
ATOM     15 BR   UNL     1       3.985   6.545   4.370  0.00  0.00    -0.048 Br
ATOM     16  C   UNL     1      -0.399   1.442   4.163  0.00  0.00    +0.141 C 
ATOM     17  H   UNL     1       1.593   5.468   2.692  0.00  0.00    +0.160 HD
ENDROOT
BRANCH   1  27
ATOM     18  C   UNL     1      -0.824  -3.198   1.467  0.00  0.00    +0.149 C 
ATOM     19  N   UNL     1      -0.316  -2.087   0.658  0.00  0.00    -0.339 N 
ATOM     20  C   UNL     1      -0.050  -2.134  -0.691  0.00  0.00    +0.056 A 
ATOM     21  C   UNL     1      -0.159  -3.141  -1.645  0.00  0.00    +0.072 A 
ATOM     22  C   UNL     1       0.191  -2.890  -2.959  0.00  0.00    +0.126 A 
ATOM     23  C   UNL     1       0.655  -1.634  -3.342  0.00  0.00    +0.092 A 
ATOM     24  C   UNL     1       0.772  -0.622  -2.413  0.00  0.00    +0.133 A 
ATOM     25  C   UNL     1       0.419  -0.862  -1.073  0.00  0.00    +0.042 A 
ATOM     26  C   UNL     1       0.423  -0.056   0.089  0.00  0.00    +0.044 A 
ATOM     27  C   UNL     1      -0.030  -0.815   1.122  0.00  0.00    +0.105 A 
BRANCH  24  28
ATOM     28  O   UNL     1       1.226   0.601  -2.790  0.00  0.00    -0.494 OA
ATOM     29  C   UNL     1       1.565   0.770  -4.168  0.00  0.00    +0.277 C 
ENDBRANCH  24  28
BRANCH  22  30
ATOM     30  O   UNL     1       0.082  -3.878  -3.885  0.00  0.00    -0.495 OA
ATOM     31  C   UNL     1       0.459  -3.556  -5.225  0.00  0.00    +0.277 C 
ENDBRANCH  22  30
ENDBRANCH   1  27
TORSDOF 3
