REMARK  Name = ZINC08994948
REMARK  2 active torsions:
REMARK  status: ('A' for Active; 'I' for Inactive)
REMARK    1  A    between atoms: C_4  and  C_7
REMARK    2  A    between atoms: C_15  and  C_19
REMARK                            x       y       z     vdW  Elec       q    Type
REMARK                         _______ _______ _______ _____ _____    ______ ____
ROOT
ATOM      1  C   UNL     1       3.708  -0.709  -0.036  0.00  0.00    +0.063 C 
ATOM      2  C   UNL     1       3.868  -1.512   1.258  0.00  0.00    +0.109 C 
ATOM      3  C   UNL     1       4.955  -2.541   1.140  0.00  0.00    +0.219 C 
ATOM      4  O   UNL     1       5.685  -2.728   2.090  0.00  0.00    -0.275 OA
ATOM      5  N   UNL     1       5.152  -3.264   0.018  0.00  0.00    -0.269 N 
ATOM      6  C   UNL     1       4.444  -2.893  -1.136  0.00  0.00    +0.151 A 
ATOM      7  C   UNL     1       3.738  -1.671  -1.197  0.00  0.00    +0.027 A 
ATOM      8  C   UNL     1       3.159  -1.583  -2.416  0.00  0.00    +0.071 A 
ATOM      9  N   UNL     1       3.498  -2.711  -3.110  0.00  0.00    -0.275 N 
ATOM     10  H   UNL     1       3.227  -2.928  -4.015  0.00  0.00    +0.189 HD
ATOM     11  N   UNL     1       4.310  -3.501  -2.278  0.00  0.00    -0.158 NA
ATOM     12  H   UNL     1       5.763  -4.017   0.010  0.00  0.00    +0.156 HD
ENDROOT
BRANCH   8  13
ATOM     13  C   UNL     1       2.313  -0.472  -2.907  0.00  0.00    +0.000 A 
ATOM     14  C   UNL     1       2.754   0.847  -2.794  0.00  0.00    +0.011 A 
ATOM     15  C   UNL     1       1.962   1.878  -3.253  0.00  0.00    +0.020 A 
ATOM     16  C   UNL     1       0.730   1.607  -3.826  0.00  0.00    +0.041 A 
ATOM     17  C   UNL     1       0.287   0.300  -3.940  0.00  0.00    +0.020 A 
ATOM     18  C   UNL     1       1.074  -0.740  -3.490  0.00  0.00    +0.011 A 
ATOM     19 CL   UNL     1      -0.262   2.910  -4.401  0.00  0.00    -0.084 Cl
ENDBRANCH   8  13
BRANCH   1  23
ATOM     20  C   UNL     1      -0.021   1.375   0.009  0.00  0.00    +0.000 A 
ATOM     21  C   UNL     1       1.167   2.082   0.026  0.00  0.00    +0.000 A 
ATOM     22  C   UNL     1       2.373   1.408   0.011  0.00  0.00    +0.004 A 
ATOM     23  C   UNL     1       2.393   0.026  -0.020  0.00  0.00    -0.039 A 
ATOM     24  C   UNL     1       1.205  -0.681  -0.036  0.00  0.00    +0.004 A 
ATOM     25  C   UNL     1      -0.001  -0.007  -0.023  0.00  0.00    +0.000 A 
ENDBRANCH   1  23
TORSDOF 2
