REMARK  Name = ZINC40007704
REMARK  12 active torsions:
REMARK  status: ('A' for Active; 'I' for Inactive)
REMARK    1  A    between atoms: C_1  and  C_2
REMARK    2  A    between atoms: C_2  and  N_3
REMARK    3  A    between atoms: N_3  and  C_4
REMARK    4  A    between atoms: N_3  and  C_6
REMARK    5  A    between atoms: C_4  and  C_5
REMARK    6  A    between atoms: C_6  and  C_8
REMARK    7  A    between atoms: C_6  and  C_26
REMARK    8  A    between atoms: C_8  and  N_9
REMARK    9  A    between atoms: C_10  and  C_12
REMARK   10  A    between atoms: C_14  and  S_19
REMARK   11  A    between atoms: S_19  and  N_22
REMARK   12  A    between atoms: N_22  and  C_23
REMARK                            x       y       z     vdW  Elec       q    Type
REMARK                         _______ _______ _______ _____ _____    ______ ____
ROOT
ATOM      1  N   UNL     1       0.166   0.886   1.774  0.00  0.00    -0.313 N 
ATOM      2  C   UNL     1      -0.318   1.816   2.622  0.00  0.00    +0.245 C 
ATOM      3  O   UNL     1       0.119   1.892   3.753  0.00  0.00    -0.270 OA
ATOM      4  H   UNL     1      -0.132   0.869   0.851  0.00  0.00    +0.149 HD
ENDROOT
BRANCH   2   5
ATOM      5  C   UNL     1      -1.380   2.741   2.175  0.00  0.00    +0.052 A 
ATOM      6  C   UNL     1      -1.966   2.582   0.918  0.00  0.00    +0.042 A 
ATOM      7  C   UNL     1      -2.957   3.450   0.508  0.00  0.00    +0.106 A 
ATOM      8  C   UNL     1      -3.370   4.476   1.339  0.00  0.00    +0.029 A 
ATOM      9  C   UNL     1      -2.794   4.641   2.585  0.00  0.00    +0.018 A 
ATOM     10  C   UNL     1      -1.805   3.776   3.011  0.00  0.00    +0.030 A 
ATOM     11 BR   UNL     1      -1.024   3.997   4.719  0.00  0.00    -0.050 Br
BRANCH   7  12
ATOM     12  S   UNL     1      -3.698   3.250  -1.078  0.00  0.00    +0.059 S 
ATOM     13  O   UNL     1      -4.219   4.520  -1.446  0.00  0.00    -0.153 OA
ATOM     14  O   UNL     1      -2.757   2.551  -1.881  0.00  0.00    -0.153 OA
BRANCH  12  15
ATOM     15  N   UNL     1      -4.998   2.243  -0.887  0.00  0.00    -0.187 NA
ATOM     16  H   UNL     1      -5.003   1.371  -1.312  0.00  0.00    +0.148 HD
BRANCH  15  17
ATOM     17  C   UNL     1      -6.143   2.669  -0.078  0.00  0.00    +0.077 C 
ATOM     18  C   UNL     1      -6.889   1.592   0.712  0.00  0.00    +0.022 C 
ATOM     19  C   UNL     1      -7.534   2.216  -0.527  0.00  0.00    +0.022 C 
ENDBRANCH  15  17
ENDBRANCH  12  15
ENDBRANCH   7  12
ENDBRANCH   2   5
BRANCH   1  20
ATOM     20  C   UNL     1       1.142  -0.099   2.246  0.00  0.00    +0.094 C 
BRANCH  20  21
ATOM     21  C   UNL     1       1.618  -0.951   1.068  0.00  0.00    -0.020 C 
BRANCH  21  22
ATOM     22  C   UNL     1       2.500  -2.063   1.575  0.00  0.00    -0.059 A 
ATOM     23  C   UNL     1       2.360  -2.518   2.873  0.00  0.00    +0.002 A 
ATOM     24  C   UNL     1       3.168  -3.538   3.339  0.00  0.00    +0.000 A 
ATOM     25  C   UNL     1       4.116  -4.103   2.507  0.00  0.00    +0.000 A 
ATOM     26  C   UNL     1       4.255  -3.649   1.208  0.00  0.00    +0.000 A 
ATOM     27  C   UNL     1       3.444  -2.631   0.742  0.00  0.00    +0.002 A 
ENDBRANCH  21  22
BRANCH  21  28
ATOM     28  N   UNL     1       0.456  -1.524   0.376  0.00  0.00    +0.385 N 
ATOM     29  H   UNL     1      -0.175  -0.783   0.108  0.00  0.00    -0.081 HD
BRANCH  28  31
ATOM     30  C   UNL     1       1.500  -1.248  -1.822  0.00  0.00    -0.017 C 
ATOM     31  C   UNL     1       0.905  -2.243  -0.823  0.00  0.00    -0.081 C 
ENDBRANCH  28  31
BRANCH  28  32
ATOM     32  C   UNL     1      -0.238  -2.456   1.275  0.00  0.00    -0.081 C 
ATOM     33  C   UNL     1      -1.282  -1.693   2.093  0.00  0.00    -0.017 C 
ENDBRANCH  28  32
ENDBRANCH  21  28
ENDBRANCH  20  21
ENDBRANCH   1  20
TORSDOF 10
