REMARK  Name = ZINC09008235
REMARK  9 active torsions:
REMARK  status: ('A' for Active; 'I' for Inactive)
REMARK    1  A    between atoms: C_1  and  C_2
REMARK    2  A    between atoms: C_2  and  C_3
REMARK    3  A    between atoms: C_2  and  C_4
REMARK    4  A    between atoms: C_11  and  N_32
REMARK    5  A    between atoms: C_12  and  C_30
REMARK    6  A    between atoms: C_13  and  C_15
REMARK    7  A    between atoms: C_20  and  O_21
REMARK    8  A    between atoms: O_21  and  C_22
REMARK    9  A    between atoms: C_22  and  C_23
REMARK                            x       y       z     vdW  Elec       q    Type
REMARK                         _______ _______ _______ _____ _____    ______ ____
ROOT
ATOM      1  C   UNL     1      -1.412  -0.526   0.013  0.00  0.00    +0.073 A 
ATOM      2  C   UNL     1      -1.990  -1.334  -0.957  0.00  0.00    +0.050 A 
ATOM      3  C   UNL     1      -3.280  -1.588  -0.582  0.00  0.00    +0.222 A 
ATOM      4  N   UNL     1      -3.496  -0.956   0.582  0.00  0.00    -0.246 N 
ATOM      5  H   UNL     1      -4.325  -0.956   1.087  0.00  0.00    +0.192 HD
ATOM      6  N   UNL     1      -2.309  -0.299   0.943  0.00  0.00    -0.175 NA
ATOM      7  O   UNL     1      -4.119  -2.357  -1.321  0.00  0.00    -0.423 OA
ATOM      8  C   UNL     1      -3.578  -3.101  -2.307  0.00  0.00    +0.200 C 
ATOM      9  C   UNL     1      -2.320  -2.936  -2.771  0.00  0.00    +0.098 C 
ATOM     10  C   UNL     1      -1.388  -1.883  -2.224  0.00  0.00    +0.105 C 
ENDROOT
BRANCH  10  11
ATOM     11  C   UNL     1      -1.226  -0.774  -3.232  0.00  0.00    +0.007 A 
ATOM     12  C   UNL     1      -2.331  -0.067  -3.666  0.00  0.00    +0.008 A 
ATOM     13  C   UNL     1      -2.183   0.950  -4.590  0.00  0.00    +0.001 A 
ATOM     14  C   UNL     1      -0.929   1.262  -5.083  0.00  0.00    +0.004 A 
ATOM     15  C   UNL     1       0.178   0.558  -4.653  0.00  0.00    +0.046 A 
ATOM     16  C   UNL     1       0.033  -0.459  -3.721  0.00  0.00    +0.125 A 
BRANCH  16  17
ATOM     17  O   UNL     1       1.123  -1.149  -3.292  0.00  0.00    -0.487 OA
BRANCH  17  18
ATOM     18  C   UNL     1       2.388  -0.770  -3.838  0.00  0.00    +0.264 C 
BRANCH  18  19
ATOM     19  C   UNL     1       3.470  -1.639  -3.249  0.00  0.00    -0.010 A 
ATOM     20  C   UNL     1       4.110  -1.252  -2.087  0.00  0.00    +0.008 A 
ATOM     21  C   UNL     1       5.102  -2.048  -1.547  0.00  0.00    +0.020 A 
ATOM     22  C   UNL     1       5.455  -3.232  -2.170  0.00  0.00    +0.041 A 
ATOM     23  C   UNL     1       4.813  -3.618  -3.333  0.00  0.00    +0.020 A 
ATOM     24  C   UNL     1       3.817  -2.824  -3.869  0.00  0.00    +0.008 A 
ATOM     25 CL   UNL     1       6.701  -4.232  -1.492  0.00  0.00    -0.084 Cl
ENDBRANCH  18  19
ENDBRANCH  17  18
ENDBRANCH  16  17
ENDBRANCH  10  11
BRANCH   1  27
ATOM     26  C   UNL     1      -0.019   1.526   0.010  0.00  0.00    +0.014 C 
ATOM     27  C   UNL     1       0.002  -0.004   0.002  0.00  0.00    +0.034 C 
ATOM     28  C   UNL     1       0.742  -0.511   1.242  0.00  0.00    +0.014 C 
ENDBRANCH   1  27
BRANCH   8  29
ATOM     29  N   UNL     1      -4.351  -4.085  -2.872  0.00  0.00    -0.328 N 
ATOM     30  H   UNL     1      -5.259  -4.227  -2.560  0.00  0.00    +0.145 HD
ATOM     31  H   UNL     1      -3.990  -4.636  -3.584  0.00  0.00    +0.145 HD
ENDBRANCH   8  29
BRANCH   9  32
ATOM     32  C   UNL     1      -1.854  -3.792  -3.820  0.00  0.00    +0.101 C 
ATOM     33  N   UNL     1      -1.484  -4.471  -4.653  0.00  0.00    -0.191 NA
ENDBRANCH   9  32
TORSDOF 7
