REMARK  Name = ZINC28372508
REMARK  8 active torsions:
REMARK  status: ('A' for Active; 'I' for Inactive)
REMARK    1  A    between atoms: C_7  and  C_11
REMARK    2  A    between atoms: C_14  and  S_23
REMARK    3  A    between atoms: N_15  and  C_16
REMARK    4  A    between atoms: C_16  and  C_17
REMARK    5  A    between atoms: S_23  and  C_24
REMARK    6  A    between atoms: C_24  and  C_25
REMARK    7  A    between atoms: N_27  and  C_28
REMARK    8  A    between atoms: C_28  and  C_29
REMARK                            x       y       z     vdW  Elec       q    Type
REMARK                         _______ _______ _______ _____ _____    ______ ____
ROOT
ATOM      1  C   UNL     1      -2.538   1.335   0.215  0.00  0.00    +0.167 A 
ATOM      2  N   UNL     1      -3.615   2.086   0.240  0.00  0.00    -0.128 NA
ATOM      3  N   UNL     1      -4.652   1.376  -0.025  0.00  0.00    -0.122 NA
ATOM      4  C   UNL     1      -4.305   0.127  -0.227  0.00  0.00    +0.192 A 
ATOM      5  N   UNL     1      -2.946   0.055  -0.082  0.00  0.00    -0.300 N 
ENDROOT
BRANCH   1  12
ATOM      6  C   UNL     1      -0.591   4.012   3.518  0.00  0.00    +0.001 A 
ATOM      7  C   UNL     1       0.777   4.167   3.342  0.00  0.00    +0.002 A 
ATOM      8  C   UNL     1       1.422   3.561   2.287  0.00  0.00    +0.026 A 
ATOM      9  C   UNL     1       0.697   2.787   1.385  0.00  0.00    +0.047 A 
ATOM     10  C   UNL     1      -0.688   2.635   1.569  0.00  0.00    +0.010 A 
ATOM     11  C   UNL     1      -1.321   3.256   2.644  0.00  0.00    +0.011 A 
ATOM     12  C   UNL     1      -1.152   1.779   0.464  0.00  0.00    +0.044 A 
ATOM     13  C   UNL     1      -0.057   1.475  -0.279  0.00  0.00    +0.095 A 
ATOM     14  N   UNL     1       1.046   2.073   0.260  0.00  0.00    -0.360 N 
ATOM     15  H   UNL     1       2.093   2.051  -0.075  0.00  0.00    +0.165 HD
ENDBRANCH   1  12
BRANCH   5  16
ATOM     16  C   UNL     1      -2.103  -1.135  -0.216  0.00  0.00    +0.157 C 
BRANCH  16  17
ATOM     17  C   UNL     1      -1.863  -1.748   1.165  0.00  0.00    +0.138 C 
ATOM     18  C   UNL     1      -0.878  -2.931   1.050  0.00  0.00    +0.035 C 
ATOM     19  C   UNL     1      -1.480  -3.959   2.048  0.00  0.00    +0.031 C 
ATOM     20  C   UNL     1      -2.995  -3.678   1.883  0.00  0.00    +0.160 C 
ATOM     21  O   UNL     1      -3.095  -2.258   1.690  0.00  0.00    -0.375 OA
ENDBRANCH  16  17
ENDBRANCH   5  16
BRANCH   4  22
ATOM     22  S   UNL     1      -5.386  -1.210  -0.614  0.00  0.00    -0.077 S 
BRANCH  22  23
ATOM     23  C   UNL     1      -6.971  -0.337  -0.629  0.00  0.00    +0.173 C 
BRANCH  23  24
ATOM     24  C   UNL     1      -8.078  -1.310  -0.948  0.00  0.00    +0.224 C 
ATOM     25  O   UNL     1      -7.819  -2.478  -1.145  0.00  0.00    -0.275 OA
ATOM     26  N   UNL     1      -9.354  -0.881  -1.014  0.00  0.00    -0.311 N 
ATOM     27  H   UNL     1      -9.588   0.178  -0.835  0.00  0.00    +0.149 HD
BRANCH  26  28
ATOM     28  C   UNL     1     -10.429  -1.827  -1.324  0.00  0.00    +0.139 C 
BRANCH  28  29
ATOM     29  C   UNL     1     -11.749  -1.100  -1.337  0.00  0.00    -0.030 A 
ATOM     30  C   UNL     1     -12.493  -0.999  -0.176  0.00  0.00    +0.006 A 
ATOM     31  C   UNL     1     -13.701  -0.328  -0.186  0.00  0.00    +0.020 A 
ATOM     32  C   UNL     1     -14.171   0.233  -1.361  0.00  0.00    +0.041 A 
ATOM     33  C   UNL     1     -13.428   0.127  -2.523  0.00  0.00    +0.020 A 
ATOM     34  C   UNL     1     -12.217  -0.540  -2.510  0.00  0.00    +0.006 A 
ATOM     35 CL   UNL     1     -15.691   1.071  -1.375  0.00  0.00    -0.084 Cl
ENDBRANCH  28  29
ENDBRANCH  26  28
ENDBRANCH  23  24
ENDBRANCH  22  23
ENDBRANCH   4  22
TORSDOF 8
