REMARK  Name = ZINC53575745
REMARK  8 active torsions:
REMARK  status: ('A' for Active; 'I' for Inactive)
REMARK    1  A    between atoms: C_1  and  C_2
REMARK    2  A    between atoms: C_3  and  C_26
REMARK    3  A    between atoms: C_4  and  C_25
REMARK    4  A    between atoms: C_7  and  C_8
REMARK    5  A    between atoms: N_10  and  N_11
REMARK    6  A    between atoms: C_12  and  C_14
REMARK    7  A    between atoms: C_23  and  O_24
REMARK    8  A    between atoms: C_26  and  C_28
REMARK                            x       y       z     vdW  Elec       q    Type
REMARK                         _______ _______ _______ _____ _____    ______ ____
ROOT
ATOM      1  N   UNL     1      -0.940  -1.119   4.703  0.00  0.00    -0.230 N 
ATOM      2  C   UNL     1      -1.089  -2.072   5.645  0.00  0.00    +0.264 C 
ATOM      3  O   UNL     1      -0.990  -3.245   5.343  0.00  0.00    -0.269 OA
ATOM      4  H   UNL     1      -1.019  -0.183   4.944  0.00  0.00    +0.173 HD
ENDROOT
BRANCH   2   5
ATOM      5  C   UNL     1      -1.373  -1.691   7.042  0.00  0.00    +0.080 A 
ATOM      6  C   UNL     1      -1.490  -0.353   7.380  0.00  0.00    +0.025 A 
ATOM      7  C   UNL     1      -1.760   0.003   8.709  0.00  0.00    -0.017 A 
ATOM      8  C   UNL     1      -1.886   1.352   9.088  0.00  0.00    +0.008 A 
ATOM      9  C   UNL     1      -2.148   1.666  10.386  0.00  0.00    +0.001 A 
ATOM     10  C   UNL     1      -2.294   0.669  11.349  0.00  0.00    +0.001 A 
ATOM     11  C   UNL     1      -2.179  -0.646  11.021  0.00  0.00    +0.008 A 
ATOM     12  C   UNL     1      -1.909  -1.012   9.690  0.00  0.00    -0.014 A 
ATOM     13  C   UNL     1      -1.785  -2.361   9.322  0.00  0.00    +0.054 A 
ATOM     14  C   UNL     1      -1.528  -2.692   8.024  0.00  0.00    +0.130 A 
BRANCH  14  15
ATOM     15  O   UNL     1      -1.415  -3.999   7.674  0.00  0.00    -0.506 OA
ATOM     16  H   UNL     1      -0.516  -4.348   7.740  0.00  0.00    +0.292 HD
ENDBRANCH  14  15
ENDBRANCH   2   5
BRANCH   1  19
ATOM     17  C   UNL     1      -0.521  -0.527   2.436  0.00  0.00    +0.277 C 
ATOM     18  O   UNL     1      -0.621   0.647   2.738  0.00  0.00    -0.267 OA
ATOM     19  N   UNL     1      -0.671  -1.480   3.377  0.00  0.00    -0.229 N 
ATOM     20  H   UNL     1      -0.592  -2.417   3.136  0.00  0.00    +0.173 HD
BRANCH  17  27
ATOM     21  C   UNL     1      -0.131   1.459   0.065  0.00  0.00    +0.047 C 
ATOM     22  C   UNL     1      -0.068  -0.045   0.004  0.00  0.00    -0.010 A 
ATOM     23  C   UNL     1       0.188  -0.832  -1.145  0.00  0.00    +0.041 A 
ATOM     24  C   UNL     1       0.154  -2.158  -0.744  0.00  0.00    +0.024 A 
ATOM     25  N   UNL     1      -0.106  -2.194   0.572  0.00  0.00    -0.354 N 
ATOM     26  H   UNL     1      -0.185  -2.999   1.106  0.00  0.00    +0.166 HD
ATOM     27  C   UNL     1      -0.239  -0.906   1.045  0.00  0.00    +0.107 A 
ATOM     28  C   UNL     1       0.372  -3.355  -1.633  0.00  0.00    +0.064 C 
BRANCH  23  29
ATOM     29  C   UNL     1       0.441  -0.337  -2.502  0.00  0.00    +0.162 C 
ATOM     30  O   UNL     1      -0.485  -0.161  -3.266  0.00  0.00    -0.292 OA
ATOM     31  C   UNL     1       1.851  -0.048  -2.949  0.00  0.00    +0.091 C 
ENDBRANCH  23  29
ENDBRANCH  17  27
ENDBRANCH   1  19
TORSDOF 5
