REMARK  Name = ZINC36581114
REMARK  15 active torsions:
REMARK  status: ('A' for Active; 'I' for Inactive)
REMARK    1  A    between atoms: C_1  and  C_2
REMARK    2  A    between atoms: C_5  and  S_8
REMARK    3  A    between atoms: S_8  and  C_11
REMARK    4  A    between atoms: C_11  and  N_12
REMARK    5  A    between atoms: C_13  and  C_15
REMARK    6  A    between atoms: C_15  and  C_17
REMARK    7  A    between atoms: C_15  and  N_24
REMARK    8  A    between atoms: C_20  and  O_23
REMARK    9  A    between atoms: N_24  and  C_35
REMARK   10  A    between atoms: C_25  and  C_27
REMARK   11  A    between atoms: C_27  and  C_28
REMARK   12  A    between atoms: C_33  and  C_34
REMARK   13  A    between atoms: C_35  and  C_36
REMARK   14  A    between atoms: C_35  and  C_37
REMARK   15  A    between atoms: C_35  and  C_38
REMARK                            x       y       z     vdW  Elec       q    Type
REMARK                         _______ _______ _______ _____ _____    ______ ____
ROOT
ATOM      1  C   UNL     1       1.934  -3.972   4.137  0.00  0.00    +0.193 C 
ENDROOT
BRANCH   1   2
ATOM      2  C   UNL     1       2.925  -2.986   4.699  0.00  0.00    -0.018 A 
ATOM      3  C   UNL     1       4.277  -3.276   4.674  0.00  0.00    +0.009 A 
ATOM      4  C   UNL     1       5.188  -2.374   5.189  0.00  0.00    +0.046 A 
ATOM      5  C   UNL     1       4.746  -1.176   5.731  0.00  0.00    +0.117 A 
ATOM      6  C   UNL     1       3.389  -0.887   5.755  0.00  0.00    +0.046 A 
ATOM      7  C   UNL     1       2.482  -1.790   5.234  0.00  0.00    +0.009 A 
BRANCH   5   8
ATOM      8  O   UNL     1       5.640  -0.287   6.239  0.00  0.00    -0.507 OA
ATOM      9  H   UNL     1       5.966   0.354   5.593  0.00  0.00    +0.292 HD
ENDBRANCH   5   8
ENDBRANCH   1   2
BRANCH   1  11
ATOM     10  N   UNL     1       1.323  -2.380   2.345  0.00  0.00    -0.294 N 
ATOM     11  C   UNL     1       1.657  -3.639   2.694  0.00  0.00    +0.239 C 
ATOM     12  O   UNL     1       1.735  -4.502   1.846  0.00  0.00    -0.273 OA
ATOM     13  H   UNL     1       1.261  -1.689   3.023  0.00  0.00    +0.150 HD
BRANCH  10  14
ATOM     14  C   UNL     1       1.054  -2.056   0.942  0.00  0.00    +0.278 C 
BRANCH  14  15
ATOM     15  S   UNL     1      -0.731  -2.154   0.631  0.00  0.00    +0.013 S 
ATOM     16  O   UNL     1      -1.257  -3.356   1.175  0.00  0.00    -0.168 OA
ATOM     17  O   UNL     1      -1.014  -1.780  -0.711  0.00  0.00    -0.168 OA
BRANCH  15  22
ATOM     18  C   UNL     1      -3.138   2.240   3.993  0.00  0.00    +0.044 C 
ATOM     19  C   UNL     1      -2.536   1.143   3.153  0.00  0.00    -0.050 A 
ATOM     20  C   UNL     1      -2.142   1.404   1.854  0.00  0.00    +0.005 A 
ATOM     21  C   UNL     1      -1.590   0.397   1.084  0.00  0.00    +0.027 A 
ATOM     22  C   UNL     1      -1.433  -0.870   1.613  0.00  0.00    +0.090 A 
ATOM     23  C   UNL     1      -1.826  -1.131   2.912  0.00  0.00    +0.027 A 
ATOM     24  C   UNL     1      -2.374  -0.123   3.684  0.00  0.00    +0.005 A 
ENDBRANCH  15  22
ENDBRANCH  14  15
ENDBRANCH  10  14
ENDBRANCH   1  11
BRANCH   1  25
ATOM     25  N   UNL     1       2.486  -5.326   4.228  0.00  0.00    -0.281 N 
ATOM     26  C   UNL     1       3.506  -5.693   3.427  0.00  0.00    +0.221 C 
ATOM     27  O   UNL     1       3.891  -4.944   2.554  0.00  0.00    -0.275 OA
BRANCH  25  28
ATOM     28  C   UNL     1       1.931  -6.280   5.191  0.00  0.00    +0.030 C 
ATOM     29  C   UNL     1       0.796  -5.615   5.972  0.00  0.00    +0.031 C 
ATOM     30  C   UNL     1       1.389  -7.501   4.444  0.00  0.00    +0.031 C 
ATOM     31  C   UNL     1       3.027  -6.723   6.162  0.00  0.00    +0.031 C 
ENDBRANCH  25  28
BRANCH  26  32
ATOM     32  C   UNL     1       4.167  -7.034   3.615  0.00  0.00    +0.131 C 
BRANCH  32  33
ATOM     33  C   UNL     1       5.141  -7.276   2.491  0.00  0.00    -0.036 A 
ATOM     34  C   UNL     1       4.745  -7.990   1.375  0.00  0.00    +0.004 A 
ATOM     35  C   UNL     1       5.639  -8.212   0.344  0.00  0.00    +0.000 A 
ATOM     36  C   UNL     1       6.928  -7.720   0.428  0.00  0.00    +0.000 A 
ATOM     37  C   UNL     1       7.323  -7.005   1.543  0.00  0.00    +0.003 A 
ATOM     38  C   UNL     1       6.428  -6.779   2.573  0.00  0.00    -0.047 A 
ATOM     39  C   UNL     1       6.857  -5.995   3.786  0.00  0.00    +0.044 C 
ENDBRANCH  32  33
ENDBRANCH  26  32
ENDBRANCH   1  25
TORSDOF 10
