REMARK  Name = ZINC45302564
REMARK  9 active torsions:
REMARK  status: ('A' for Active; 'I' for Inactive)
REMARK    1  A    between atoms: C_6  and  N_7
REMARK    2  A    between atoms: N_7  and  C_8
REMARK    3  A    between atoms: C_8  and  C_9
REMARK    4  A    between atoms: C_9  and  O_10
REMARK    5  A    between atoms: O_10  and  C_11
REMARK    6  A    between atoms: N_17  and  C_28
REMARK    7  A    between atoms: N_20  and  C_21
REMARK    8  A    between atoms: C_21  and  C_22
REMARK    9  A    between atoms: C_28  and  C_29
REMARK                            x       y       z     vdW  Elec       q    Type
REMARK                         _______ _______ _______ _____ _____    ______ ____
ROOT
ATOM      1  C   UNL     1      -4.516  -2.798  -1.351  0.00  0.00    +0.147 A 
ATOM      2  C   UNL     1      -5.130  -3.536  -0.352  0.00  0.00    +0.068 A 
ATOM      3  C   UNL     1      -6.440  -3.960  -0.504  0.00  0.00    +0.047 A 
ATOM      4  C   UNL     1      -7.144  -3.650  -1.652  0.00  0.00    +0.048 A 
ATOM      5  C   UNL     1      -6.538  -2.911  -2.658  0.00  0.00    +0.075 A 
ATOM      6  C   UNL     1      -5.221  -2.478  -2.506  0.00  0.00    +0.112 A 
ATOM      7  N   UNL     1      -4.895  -1.765  -3.660  0.00  0.00    -0.289 N 
ATOM      8  C   UNL     1      -5.969  -1.761  -4.472  0.00  0.00    +0.330 A 
ATOM      9  O   UNL     1      -6.020  -1.224  -5.563  0.00  0.00    -0.246 OA
ATOM     10  N   UNL     1      -6.973  -2.451  -3.899  0.00  0.00    -0.292 N 
ATOM     11 CL   UNL     1      -7.200  -4.885   0.753  0.00  0.00    -0.083 Cl
ENDROOT
BRANCH   1  12
ATOM     12  O   UNL     1      -3.229  -2.384  -1.200  0.00  0.00    -0.488 OA
BRANCH  12  13
ATOM     13  C   UNL     1      -2.568  -2.750   0.013  0.00  0.00    +0.247 C 
BRANCH  13  14
ATOM     14  C   UNL     1      -1.141  -2.199   0.002  0.00  0.00    +0.142 C 
BRANCH  14  15
ATOM     15  N   UNL     1      -1.183  -0.734   0.010  0.00  0.00    -0.341 N 
ATOM     16  H   UNL     1      -2.036  -0.274   0.021  0.00  0.00    +0.146 HD
BRANCH  15  22
ATOM     17  C   UNL     1      -0.017   1.391   0.010  0.00  0.00    +0.040 A 
ATOM     18  C   UNL     1       1.179   2.077   0.002  0.00  0.00    +0.084 A 
ATOM     19  N   UNL     1       2.330   1.431  -0.013  0.00  0.00    -0.367 N 
ATOM     20  C   UNL     1       2.390   0.112  -0.020  0.00  0.00    +0.084 A 
ATOM     21  C   UNL     1       1.239  -0.648  -0.013  0.00  0.00    +0.040 A 
ATOM     22  C   UNL     1       0.002  -0.004   0.002  0.00  0.00    +0.030 A 
ATOM     23  H   UNL     1       3.156   1.940  -0.018  0.00  0.00    +0.165 HD
ENDBRANCH  15  22
ENDBRANCH  14  15
ENDBRANCH  13  14
ENDBRANCH  12  13
ENDBRANCH   1  12
BRANCH  10  24
ATOM     24  C   UNL     1      -8.301  -2.668  -4.476  0.00  0.00    +0.130 C 
BRANCH  24  25
ATOM     25  C   UNL     1      -9.230  -1.526  -4.061  0.00  0.00    +0.009 C 
ATOM     26  C   UNL     1      -9.437  -1.560  -2.546  0.00  0.00    +0.005 C 
ATOM     27  C   UNL     1     -10.366  -0.417  -2.132  0.00  0.00    +0.000 C 
ATOM     28  C   UNL     1     -11.716  -0.577  -2.834  0.00  0.00    +0.000 C 
ATOM     29  C   UNL     1     -11.509  -0.543  -4.350  0.00  0.00    +0.000 C 
ATOM     30  C   UNL     1     -10.580  -1.686  -4.764  0.00  0.00    +0.005 C 
ENDBRANCH  24  25
ENDBRANCH  10  24
BRANCH   7  31
ATOM     31  C   UNL     1      -3.605  -1.129  -3.939  0.00  0.00    +0.130 C 
BRANCH  31  32
ATOM     32  C   UNL     1      -2.691  -2.124  -4.658  0.00  0.00    +0.009 C 
ATOM     33  C   UNL     1      -2.372  -3.291  -3.721  0.00  0.00    +0.005 C 
ATOM     34  C   UNL     1      -1.458  -4.286  -4.440  0.00  0.00    +0.000 C 
ATOM     35  C   UNL     1      -0.159  -3.586  -4.843  0.00  0.00    +0.000 C 
ATOM     36  C   UNL     1      -0.478  -2.418  -5.779  0.00  0.00    +0.000 C 
ATOM     37  C   UNL     1      -1.392  -1.423  -5.061  0.00  0.00    +0.005 C 
ENDBRANCH  31  32
ENDBRANCH   7  31
TORSDOF 9
