REMARK  Name = ZINC18195464
REMARK  3 active torsions:
REMARK  status: ('A' for Active; 'I' for Inactive)
REMARK    1  A    between atoms: C_4  and  C_7
REMARK    2  A    between atoms: C_10  and  C_13
REMARK    3  A    between atoms: C_20  and  O_21
REMARK                            x       y       z     vdW  Elec       q    Type
REMARK                         _______ _______ _______ _____ _____    ______ ____
ROOT
ATOM      1  C   UNL     1      -0.128   9.603   0.058  0.00  0.00    +0.092 C 
ATOM      2  C   UNL     1       0.560  10.119  -1.174  0.00  0.00    +0.067 A 
ATOM      3  C   UNL     1       1.806  10.688  -1.135  0.00  0.00    +0.126 A 
ATOM      4  N   UNL     1       2.137  11.039  -2.391  0.00  0.00    -0.260 N 
ATOM      5  H   UNL     1       2.991  11.474  -2.676  0.00  0.00    +0.190 HD
ATOM      6  N   UNL     1       1.069  10.683  -3.231  0.00  0.00    -0.134 NA
ATOM      7  C   UNL     1       0.127  10.133  -2.496  0.00  0.00    +0.237 A 
ATOM      8  N   UNL     1       2.501  10.826   0.061  0.00  0.00    -0.303 N 
ATOM      9  C   UNL     1       1.812  10.674   1.239  0.00  0.00    +0.017 C 
ATOM     10  C   UNL     1       0.588  10.108   1.291  0.00  0.00    +0.024 C 
ATOM     11  C   UNL     1      -0.088   9.963   2.517  0.00  0.00    +0.162 C 
ATOM     12  O   UNL     1      -1.194   9.458   2.530  0.00  0.00    -0.292 OA
ATOM     13  C   UNL     1       0.526  10.419   3.811  0.00  0.00    +0.080 C 
ATOM     14  C   UNL     1       2.051  10.335   3.692  0.00  0.00    +0.014 C 
ATOM     15  C   UNL     1       2.486  11.180   2.494  0.00  0.00    +0.051 C 
ATOM     16  H   UNL     1       3.450  11.026   0.063  0.00  0.00    +0.153 HD
ENDROOT
BRANCH   1  20
ATOM     17  C   UNL     1      -0.070   5.328   0.032  0.00  0.00    -0.018 A 
ATOM     18  C   UNL     1       1.125   6.043   0.030  0.00  0.00    +0.009 A 
ATOM     19  C   UNL     1       1.101   7.423   0.033  0.00  0.00    +0.005 A 
ATOM     20  C   UNL     1      -0.108   8.096   0.048  0.00  0.00    -0.035 A 
ATOM     21  C   UNL     1      -1.298   7.391   0.055  0.00  0.00    +0.005 A 
ATOM     22  C   UNL     1      -1.285   6.011   0.047  0.00  0.00    +0.009 A 
BRANCH  17  26
ATOM     23  C   UNL     1      -0.013   1.076   0.008  0.00  0.00    +0.000 A 
ATOM     24  C   UNL     1      -1.221   1.748   0.017  0.00  0.00    +0.001 A 
ATOM     25  C   UNL     1      -1.246   3.128   0.031  0.00  0.00    +0.008 A 
ATOM     26  C   UNL     1      -0.050   3.844   0.023  0.00  0.00    -0.018 A 
ATOM     27  C   UNL     1       1.164   3.161   0.008  0.00  0.00    +0.008 A 
ATOM     28  C   UNL     1       1.177   1.781   0.000  0.00  0.00    +0.001 A 
ENDBRANCH  17  26
ENDBRANCH   1  20
BRANCH   7  29
ATOM     29  O   UNL     1      -1.064   9.659  -2.951  0.00  0.00    -0.491 OA
ATOM     30  H   UNL     1      -1.120   9.792  -3.940  0.00  0.00    +0.294 HD
ENDBRANCH   7  29
TORSDOF 3
