REMARK  Name = ZINC34187140
REMARK  7 active torsions:
REMARK  status: ('A' for Active; 'I' for Inactive)
REMARK    1  A    between atoms: C_1  and  O_2
REMARK    2  A    between atoms: O_2  and  C_3
REMARK    3  A    between atoms: N_7  and  C1*_13
REMARK    4  A    between atoms: C2*_15  and  O2*_25
REMARK    5  A    between atoms: C3*_17  and  O3*_24
REMARK    6  A    between atoms: C4*_19  and  C5*_22
REMARK    7  A    between atoms: C5*_22  and  O5*_23
REMARK                            x       y       z     vdW  Elec       q    Type
REMARK                         _______ _______ _______ _____ _____    ______ ____
ROOT
ATOM      1  C   UNL     1      -1.196  -0.635   0.010  0.00  0.00    +0.228 A 
ATOM      2  C   UNL     1      -1.269  -2.035   0.009  0.00  0.00    +0.080 A 
ATOM      3  C   UNL     1      -0.290  -3.122   0.001  0.00  0.00    +0.034 A 
ATOM      4  C   UNL     1      -0.984  -4.270   0.005  0.00  0.00    +0.091 A 
ATOM      5  N   UNL     1      -2.330  -4.000   0.015  0.00  0.00    -0.303 N 
ATOM      6  C   UNL     1      -2.536  -2.648   0.018  0.00  0.00    +0.152 A 
ATOM      7  N   UNL     1      -3.619  -1.874   0.026  0.00  0.00    -0.196 NA
ATOM      8  C   UNL     1      -3.505  -0.557   0.026  0.00  0.00    +0.218 A 
ATOM      9  N   UNL     1      -2.328   0.057   0.025  0.00  0.00    -0.179 NA
ATOM     10  N   UNL     1      -4.658   0.212   0.035  0.00  0.00    -0.327 N 
ATOM     11  H   UNL     1      -5.527  -0.218   0.041  0.00  0.00    +0.145 HD
ATOM     12  H   UNL     1      -4.595   1.180   0.035  0.00  0.00    +0.145 HD
ENDROOT
BRANCH   5  13
ATOM     13  C1* UNL     1      -3.390  -5.012   0.021  0.00  0.00    +0.252 C 
ATOM     14  C2* UNL     1      -3.829  -5.321   1.470  0.00  0.00    +0.195 C 
ATOM     15  C3* UNL     1      -4.106  -6.841   1.461  0.00  0.00    +0.178 C 
ATOM     16  C4* UNL     1      -3.802  -7.270   0.009  0.00  0.00    +0.177 C 
ATOM     17  O4* UNL     1      -2.891  -6.266  -0.492  0.00  0.00    -0.346 OA
BRANCH  15  18
ATOM     18  O3* UNL     1      -3.240  -7.513   2.377  0.00  0.00    -0.386 OA
ATOM     19  H3* UNL     1      -3.371  -8.470   2.412  0.00  0.00    +0.210 HD
ENDBRANCH  15  18
BRANCH  14  20
ATOM     20  O2* UNL     1      -2.781  -5.005   2.389  0.00  0.00    -0.385 OA
ATOM     21  H2* UNL     1      -3.003  -5.181   3.313  0.00  0.00    +0.210 HD
ENDBRANCH  14  20
BRANCH  16  22
ATOM     22  C5* UNL     1      -3.142  -8.650  -0.012  0.00  0.00    +0.190 C 
BRANCH  22  23
ATOM     23  O5* UNL     1      -2.975  -9.079  -1.365  0.00  0.00    -0.392 OA
ATOM     24  H5* UNL     1      -2.562  -9.948  -1.454  0.00  0.00    +0.210 HD
ENDBRANCH  22  23
ENDBRANCH  16  22
ENDBRANCH   5  13
BRANCH   1  26
ATOM     25  C   UNL     1      -0.017   1.425   0.010  0.00  0.00    +0.279 C 
ATOM     26  O   UNL     1       0.002  -0.004   0.002  0.00  0.00    -0.479 OA
ENDBRANCH   1  26
TORSDOF 6
