REMARK  Name = ZINC39227132
REMARK  3 active torsions:
REMARK  status: ('A' for Active; 'I' for Inactive)
REMARK    1  A    between atoms: N_18  and  C_21
REMARK    2  A    between atoms: C_21  and  C_22
REMARK    3  A    between atoms: C_25  and  C_28
REMARK                            x       y       z     vdW  Elec       q    Type
REMARK                         _______ _______ _______ _____ _____    ______ ____
ROOT
ATOM      1  C   UNL     1      -0.016   1.358   0.009  0.00  0.00    +0.001 A 
ATOM      2  C   UNL     1       1.167   2.091   0.002  0.00  0.00    +0.001 A 
ATOM      3  C   UNL     1       2.378   1.463  -0.014  0.00  0.00    +0.009 A 
ATOM      4  C   UNL     1       2.434   0.066  -0.023  0.00  0.00    -0.004 A 
ATOM      5  C   UNL     1       1.231  -0.682  -0.013  0.00  0.00    -0.017 A 
ATOM      6  C   UNL     1       0.002  -0.004   0.002  0.00  0.00    +0.008 A 
ATOM      7  C   UNL     1       1.292  -2.088  -0.015  0.00  0.00    +0.012 A 
ATOM      8  C   UNL     1       2.483  -2.740  -0.024  0.00  0.00    +0.047 A 
ATOM      9  C   UNL     1       3.700  -2.053  -0.037  0.00  0.00    +0.132 A 
ATOM     10  C   UNL     1       3.704  -0.654  -0.043  0.00  0.00    +0.067 A 
ATOM     11  C   UNL     1       4.981   0.063  -0.075  0.00  0.00    +0.171 C 
ATOM     12  O   UNL     1       5.037   1.256  -0.295  0.00  0.00    -0.292 OA
ATOM     13  C   UNL     1       6.231  -0.761   0.180  0.00  0.00    +0.127 C 
ATOM     14  C   UNL     1       6.039  -2.105  -0.535  0.00  0.00    +0.114 C 
ATOM     15  O   UNL     1       4.863  -2.744  -0.040  0.00  0.00    -0.485 OA
ATOM     16  C   UNL     1       5.902  -1.864  -2.040  0.00  0.00    +0.030 C 
ATOM     17  C   UNL     1       5.798  -3.211  -2.759  0.00  0.00    -0.074 C 
ATOM     18  N   UNL     1       7.005  -4.004  -2.494  0.00  0.00    +0.383 N 
ATOM     19  C   UNL     1       7.103  -4.300  -1.060  0.00  0.00    -0.074 C 
ATOM     20  C   UNL     1       7.257  -2.995  -0.276  0.00  0.00    +0.030 C 
ATOM     21  H   UNL     1       7.819  -3.484  -2.786  0.00  0.00    -0.081 HD
ENDROOT
BRANCH  18  22
ATOM     22  C   UNL     1       6.936  -5.263  -3.249  0.00  0.00    -0.043 C 
BRANCH  22  23
ATOM     23  C   UNL     1       8.226  -6.023  -3.076  0.00  0.00    -0.064 A 
ATOM     24  C   UNL     1       9.271  -5.814  -3.958  0.00  0.00    +0.003 A 
ATOM     25  C   UNL     1      10.455  -6.506  -3.806  0.00  0.00    +0.019 A 
ATOM     26  C   UNL     1      10.596  -7.420  -2.759  0.00  0.00    +0.052 A 
ATOM     27  C   UNL     1       9.536  -7.626  -1.873  0.00  0.00    +0.019 A 
ATOM     28  C   UNL     1       8.360  -6.923  -2.034  0.00  0.00    +0.003 A 
BRANCH  26  29
ATOM     29  C   UNL     1      11.821  -8.143  -2.596  0.00  0.00    +0.099 C 
ATOM     30  N   UNL     1      12.793  -8.716  -2.466  0.00  0.00    -0.191 NA
ENDBRANCH  26  29
ENDBRANCH  22  23
ENDBRANCH  18  22
TORSDOF 3
