REMARK  Name = ZINC36493838
REMARK  13 active torsions:
REMARK  status: ('A' for Active; 'I' for Inactive)
REMARK    1  A    between atoms: C_1  and  C_2
REMARK    2  A    between atoms: C_2  and  C_3
REMARK    3  A    between atoms: C_2  and  C_4
REMARK    4  A    between atoms: C_2  and  N_5
REMARK    5  A    between atoms: C_6  and  C_8
REMARK    6  A    between atoms: C_8  and  C_10
REMARK    7  A    between atoms: C_8  and  N_17
REMARK    8  A    between atoms: C_15  and  O_16
REMARK    9  A    between atoms: N_17  and  C_18
REMARK   10  A    between atoms: C_18  and  C_19
REMARK   11  A    between atoms: C_24  and  C_26
REMARK   12  A    between atoms: C_26  and  C_34
REMARK   13  A    between atoms: C_27  and  C_28
REMARK                            x       y       z     vdW  Elec       q    Type
REMARK                         _______ _______ _______ _____ _____    ______ ____
ROOT
ATOM      1  N   UNL     1       2.439   0.144  -2.190  0.00  0.00    -0.274 N 
ATOM      2  C   UNL     1       3.308   0.423  -3.181  0.00  0.00    +0.248 C 
ATOM      3  O   UNL     1       4.497   0.512  -2.940  0.00  0.00    -0.270 OA
ENDROOT
BRANCH   2   4
ATOM      4  C   UNL     1       2.820   0.619  -4.556  0.00  0.00    +0.045 C 
ATOM      5  C   UNL     1       2.525  -0.458  -5.332  0.00  0.00    +0.021 C 
BRANCH   5   6
ATOM      6  C   UNL     1       2.854  -1.812  -4.867  0.00  0.00    -0.024 A 
ATOM      7  C   UNL     1       2.014  -2.886  -5.179  0.00  0.00    +0.008 A 
ATOM      8  C   UNL     1       2.330  -4.154  -4.739  0.00  0.00    +0.001 A 
ATOM      9  C   UNL     1       3.475  -4.365  -3.990  0.00  0.00    +0.000 A 
ATOM     10  C   UNL     1       4.311  -3.308  -3.677  0.00  0.00    +0.001 A 
ATOM     11  C   UNL     1       4.013  -2.035  -4.114  0.00  0.00    +0.008 A 
ENDBRANCH   5   6
BRANCH   4  12
ATOM     12  C   UNL     1       2.649   1.988  -5.092  0.00  0.00    -0.013 A 
ATOM     13  C   UNL     1       3.765   2.793  -5.326  0.00  0.00    +0.008 A 
ATOM     14  C   UNL     1       3.599   4.068  -5.826  0.00  0.00    +0.001 A 
ATOM     15  C   UNL     1       2.331   4.549  -6.096  0.00  0.00    +0.000 A 
ATOM     16  C   UNL     1       1.220   3.756  -5.866  0.00  0.00    +0.001 A 
ATOM     17  C   UNL     1       1.373   2.477  -5.372  0.00  0.00    +0.008 A 
ENDBRANCH   4  12
ENDBRANCH   2   4
BRANCH   1  18
ATOM     18  C   UNL     1       0.998   0.146  -2.457  0.00  0.00    +0.196 C 
BRANCH  18  19
ATOM     19  C   UNL     1       0.465  -1.259  -2.348  0.00  0.00    +0.023 A 
ATOM     20  C   UNL     1       1.160  -2.208  -1.623  0.00  0.00    +0.009 A 
ATOM     21  C   UNL     1       0.672  -3.497  -1.523  0.00  0.00    +0.001 A 
ATOM     22  C   UNL     1      -0.514  -3.840  -2.146  0.00  0.00    +0.004 A 
ATOM     23  C   UNL     1      -1.213  -2.895  -2.871  0.00  0.00    +0.046 A 
ATOM     24  C   UNL     1      -0.728  -1.599  -2.969  0.00  0.00    +0.122 A 
BRANCH  24  25
ATOM     25  O   UNL     1      -1.417  -0.666  -3.677  0.00  0.00    -0.506 OA
ATOM     26  H   UNL     1      -1.172  -0.621  -4.611  0.00  0.00    +0.292 HD
ENDBRANCH  24  25
ENDBRANCH  18  19
BRANCH  18  28
ATOM     27  N   UNL     1      -1.035   1.182  -1.504  0.00  0.00    -0.309 N 
ATOM     28  C   UNL     1       0.302   1.028  -1.453  0.00  0.00    +0.239 C 
ATOM     29  O   UNL     1       0.946   1.598  -0.597  0.00  0.00    -0.273 OA
ATOM     30  H   UNL     1      -1.550   0.726  -2.188  0.00  0.00    +0.149 HD
BRANCH  27  32
ATOM     31  C   UNL     1      -1.170   3.466  -0.639  0.00  0.00    +0.031 C 
ATOM     32  C   UNL     1      -1.712   2.039  -0.527  0.00  0.00    +0.026 C 
ATOM     33  C   UNL     1      -1.456   1.505   0.883  0.00  0.00    +0.031 C 
ATOM     34  C   UNL     1      -3.216   2.042  -0.807  0.00  0.00    +0.031 C 
ENDBRANCH  27  32
ENDBRANCH  18  28
ENDBRANCH   1  18
BRANCH   1  35
ATOM     35  C   UNL     1       2.934  -0.162  -0.846  0.00  0.00    +0.183 C 
BRANCH  35  36
ATOM     36  C   UNL     1       3.610   1.056  -0.270  0.00  0.00    +0.122 A 
ATOM     37  C   UNL     1       3.053   1.936   0.582  0.00  0.00    +0.046 A 
ATOM     38  C   UNL     1       4.035   2.914   0.860  0.00  0.00    +0.041 A 
ATOM     39  C   UNL     1       5.133   2.574   0.161  0.00  0.00    +0.195 A 
ATOM     40  O   UNL     1       4.871   1.445  -0.517  0.00  0.00    -0.466 OA
ENDBRANCH  35  36
ENDBRANCH   1  35
TORSDOF 10
