REMARK  Name = ZINC52636702
REMARK  4 active torsions:
REMARK  status: ('A' for Active; 'I' for Inactive)
REMARK    1  A    between atoms: C_1  and  C_2
REMARK    2  A    between atoms: N_8  and  S_9
REMARK    3  A    between atoms: S_9  and  C_12
REMARK    4  A    between atoms: C_21  and  C_23
REMARK                            x       y       z     vdW  Elec       q    Type
REMARK                         _______ _______ _______ _____ _____    ______ ____
ROOT
ATOM      1  C   UNL     1      -0.382   1.956  -0.307  0.00  0.00    +0.027 C 
ATOM      2  C   UNL     1      -0.026   0.481  -0.113  0.00  0.00    +0.094 C 
ATOM      3  C   UNL     1      -1.310  -0.340   0.061  0.00  0.00    +0.128 C 
ATOM      4  N   UNL     1      -1.900  -0.016   1.368  0.00  0.00    -0.293 N 
ATOM      5  C   UNL     1      -1.076  -0.170   2.575  0.00  0.00    +0.125 C 
ATOM      6  C   UNL     1       0.207   0.651   2.400  0.00  0.00    +0.129 C 
ATOM      7  N   UNL     1       0.801   0.327   1.092  0.00  0.00    -0.171 NA
ATOM      8  C   UNL     1      -3.174   0.415   1.457  0.00  0.00    +0.266 C 
ATOM      9  O   UNL     1      -3.803   0.666   0.447  0.00  0.00    -0.268 OA
ENDROOT
BRANCH   8  10
ATOM     10  C   UNL     1      -3.804   0.583   2.777  0.00  0.00    +0.134 A 
ATOM     11  C   UNL     1      -5.028   1.177   2.926  0.00  0.00    +0.080 A 
ATOM     12  S   UNL     1      -5.264   1.109   4.588  0.00  0.00    -0.068 S 
ATOM     13  C   UNL     1      -3.837   0.346   5.035  0.00  0.00    +0.144 A 
ATOM     14  N   UNL     1      -3.216   0.157   3.901  0.00  0.00    -0.228 NA
ATOM     15 BR   UNL     1      -3.265  -0.134   6.772  0.00  0.00    -0.021 Br
ENDBRANCH   8  10
BRANCH   7  16
ATOM     16  S   UNL     1       2.366  -0.203   0.978  0.00  0.00    +0.060 S 
ATOM     17  O   UNL     1       2.696  -0.769   2.239  0.00  0.00    -0.153 OA
ATOM     18  O   UNL     1       2.458  -0.938  -0.235  0.00  0.00    -0.153 OA
BRANCH  16  19
ATOM     19  C   UNL     1       3.386   1.221   0.783  0.00  0.00    +0.112 C 
ATOM     20  C   UNL     1       4.256   1.728   1.685  0.00  0.00    +0.041 A 
ATOM     21  C   UNL     1       4.641   1.317   3.041  0.00  0.00    +0.014 A 
ATOM     22  C   UNL     1       5.571   2.070   3.687  0.00  0.00    +0.020 A 
ATOM     23  C   UNL     1       6.133   3.192   3.070  0.00  0.00    +0.113 A 
ATOM     24  N   UNL     1       5.815   3.587   1.867  0.00  0.00    -0.238 NA
ATOM     25  C   UNL     1       4.906   2.930   1.115  0.00  0.00    +0.136 A 
ATOM     26  N   UNL     1       4.453   3.157  -0.094  0.00  0.00    -0.364 N 
ATOM     27  C   UNL     1       3.470   2.121  -0.430  0.00  0.00    +0.171 C 
ATOM     28  H   UNL     1       4.725   3.887  -0.672  0.00  0.00    +0.161 HD
ENDBRANCH  16  19
ENDBRANCH   7  16
TORSDOF 3
