REMARK  Name = ZINC03059000
REMARK  10 active torsions:
REMARK  status: ('A' for Active; 'I' for Inactive)
REMARK    1  A    between atoms: C_1  and  C_2
REMARK    2  A    between atoms: C_7  and  N_8
REMARK    3  A    between atoms: N_8  and  C_9
REMARK    4  A    between atoms: C_9  and  S_22
REMARK    5  A    between atoms: C_10  and  C_11
REMARK    6  A    between atoms: C_10  and  C_13
REMARK    7  A    between atoms: N_15  and  C_16
REMARK    8  A    between atoms: C_16  and  C_17
REMARK    9  A    between atoms: S_22  and  C_23
REMARK   10  A    between atoms: C_23  and  C_24
REMARK                            x       y       z     vdW  Elec       q    Type
REMARK                         _______ _______ _______ _____ _____    ______ ____
ROOT
ATOM      1  C   UNL     1       0.065  -0.793   3.551  0.00  0.00    +0.088 C 
ATOM      2  C   UNL     1       0.004  -0.178   4.805  0.00  0.00    +0.141 C 
ENDROOT
BRANCH   2   3
ATOM      3  C   UNL     1      -0.184   1.268   4.901  0.00  0.00    +0.257 C 
ATOM      4  O   UNL     1      -0.387   1.924   3.896  0.00  0.00    -0.269 OA
ATOM      5  N   UNL     1      -0.132   1.876   6.103  0.00  0.00    -0.304 N 
ATOM      6  H   UNL     1       0.030   1.354   6.904  0.00  0.00    +0.149 HD
BRANCH   5   7
ATOM      7  C   UNL     1      -0.319   3.326   6.200  0.00  0.00    +0.179 C 
BRANCH   7   8
ATOM      8  C   UNL     1      -0.215   3.751   7.642  0.00  0.00    +0.122 A 
ATOM      9  C   UNL     1       0.913   4.125   8.272  0.00  0.00    +0.046 A 
ATOM     10  C   UNL     1       0.554   4.439   9.603  0.00  0.00    +0.041 A 
ATOM     11  C   UNL     1      -0.772   4.237   9.707  0.00  0.00    +0.195 A 
ATOM     12  O   UNL     1      -1.233   3.826   8.514  0.00  0.00    -0.466 OA
ENDBRANCH   7   8
ENDBRANCH   5   7
ENDBRANCH   2   3
BRANCH   1  13
ATOM     13  N   UNL     1       0.071  -0.031   2.416  0.00  0.00    -0.308 N 
ATOM     14  H   UNL     1      -0.761   0.157   1.954  0.00  0.00    +0.153 HD
BRANCH  13  21
ATOM     15  C   UNL     1       0.026   1.353  -0.069  0.00  0.00    +0.045 C 
ATOM     16  C   UNL     1       1.300   1.158   0.712  0.00  0.00    -0.029 A 
ATOM     17  C   UNL     1       2.491   1.663   0.228  0.00  0.00    +0.005 A 
ATOM     18  C   UNL     1       3.660   1.485   0.944  0.00  0.00    +0.000 A 
ATOM     19  C   UNL     1       3.642   0.801   2.146  0.00  0.00    +0.002 A 
ATOM     20  C   UNL     1       2.454   0.293   2.635  0.00  0.00    +0.023 A 
ATOM     21  C   UNL     1       1.276   0.476   1.921  0.00  0.00    +0.035 A 
ENDBRANCH  13  21
ENDBRANCH   1  13
BRANCH   2  22
ATOM     22  C   UNL     1       0.124  -0.965   5.995  0.00  0.00    +0.107 C 
ATOM     23  N   UNL     1       0.220  -1.589   6.940  0.00  0.00    -0.191 NA
ENDBRANCH   2  22
BRANCH   1  24
ATOM     24  S   UNL     1       0.135  -2.550   3.434  0.00  0.00    -0.104 S 
BRANCH  24  25
ATOM     25  C   UNL     1       0.044  -2.874   1.652  0.00  0.00    +0.110 C 
BRANCH  25  26
ATOM     26  C   UNL     1      -0.029  -4.361   1.415  0.00  0.00    -0.036 A 
ATOM     27  C   UNL     1       1.132  -5.094   1.261  0.00  0.00    +0.004 A 
ATOM     28  C   UNL     1       1.065  -6.458   1.044  0.00  0.00    +0.001 A 
ATOM     29  C   UNL     1      -0.163  -7.089   0.981  0.00  0.00    +0.015 A 
ATOM     30  C   UNL     1      -1.325  -6.355   1.136  0.00  0.00    +0.018 A 
ATOM     31  C   UNL     1      -1.258  -4.991   1.358  0.00  0.00    +0.019 A 
ATOM     32 BR   UNL     1      -3.006  -7.217   1.049  0.00  0.00    -0.050 Br
ENDBRANCH  25  26
ENDBRANCH  24  25
ENDBRANCH   1  24
TORSDOF 9
