REMARK  Name = ZINC22110957
REMARK  10 active torsions:
REMARK  status: ('A' for Active; 'I' for Inactive)
REMARK    1  A    between atoms: C_1  and  C_2
REMARK    2  A    between atoms: C_2  and  O_3
REMARK    3  A    between atoms: O_3  and  C_4
REMARK    4  A    between atoms: C_6  and  C_20
REMARK    5  A    between atoms: C_9  and  O_10
REMARK    6  A    between atoms: O_10  and  C_11
REMARK    7  A    between atoms: C_11  and  C_12
REMARK    8  A    between atoms: C_20  and  N_21
REMARK    9  A    between atoms: N_21  and  N_22
REMARK   10  A    between atoms: C_23  and  C_28
REMARK                            x       y       z     vdW  Elec       q    Type
REMARK                         _______ _______ _______ _____ _____    ______ ____
ROOT
ATOM      1  C   UNL     1      -5.540   2.049  -0.899  0.00  0.00    +0.164 A 
ATOM      2  C   UNL     1      -6.753   1.382  -0.817  0.00  0.00    +0.054 A 
ATOM      3  C   UNL     1      -7.507   1.459   0.339  0.00  0.00    -0.024 A 
ATOM      4  C   UNL     1      -7.052   2.195   1.417  0.00  0.00    +0.029 A 
ATOM      5  C   UNL     1      -5.841   2.858   1.344  0.00  0.00    +0.086 A 
ATOM      6  C   UNL     1      -5.080   2.785   0.188  0.00  0.00    +0.181 A 
ATOM      7 CL   UNL     1      -5.273   3.781   2.701  0.00  0.00    -0.080 Cl
ENDROOT
BRANCH   1   8
ATOM      8  O   UNL     1      -4.800   1.980  -2.038  0.00  0.00    -0.489 OA
BRANCH   8  10
ATOM      9  C   UNL     1      -4.371   1.245  -4.300  0.00  0.00    +0.048 C 
ATOM     10  C   UNL     1      -5.336   1.206  -3.113  0.00  0.00    +0.226 C 
ENDBRANCH   8  10
ENDBRANCH   1   8
BRANCH   6  11
ATOM     11  O   UNL     1      -3.888   3.437   0.113  0.00  0.00    -0.482 OA
BRANCH  11  12
ATOM     12  C   UNL     1      -2.727   2.716   0.532  0.00  0.00    +0.266 C 
BRANCH  12  13
ATOM     13  C   UNL     1      -1.510   3.592   0.381  0.00  0.00    +0.008 A 
ATOM     14  C   UNL     1      -1.642   4.882  -0.100  0.00  0.00    +0.008 A 
ATOM     15  C   UNL     1      -0.525   5.683  -0.244  0.00  0.00    +0.000 A 
ATOM     16  C   UNL     1       0.724   5.197   0.097  0.00  0.00    +0.001 A 
ATOM     17  C   UNL     1       0.856   3.910   0.582  0.00  0.00    +0.020 A 
ATOM     18  C   UNL     1      -0.262   3.107   0.726  0.00  0.00    +0.047 A 
ATOM     19 CL   UNL     1      -0.096   1.490   1.335  0.00  0.00    -0.083 Cl
ENDBRANCH  12  13
ENDBRANCH  11  12
ENDBRANCH   6  11
BRANCH   3  20
ATOM     20  C   UNL     1      -8.828   0.738   0.423  0.00  0.00    +0.156 C 
BRANCH  20  21
ATOM     21  N   UNL     1      -9.901   1.627  -0.043  0.00  0.00    -0.277 N 
ATOM     22  H   UNL     1      -9.663   2.646  -0.382  0.00  0.00    +0.167 HD
BRANCH  21  23
ATOM     23  N   UNL     1     -11.115   1.003   0.021  0.00  0.00    -0.222 N 
ATOM     24  C   UNL     1     -12.005   1.022   1.070  0.00  0.00    +0.180 A 
ATOM     25  N   UNL     1     -13.038   0.296   0.712  0.00  0.00    -0.152 NA
ATOM     26  N   UNL     1     -12.858  -0.170  -0.472  0.00  0.00    -0.253 N 
ATOM     27  C   UNL     1     -11.700   0.237  -0.945  0.00  0.00    +0.193 A 
ATOM     28  S   UNL     1     -11.027  -0.141  -2.529  0.00  0.00    -0.010 S 
ATOM     29  H   UNL     1     -13.625  -0.808  -0.935  0.00  0.00    +0.191 HD
BRANCH  24  30
ATOM     30  C   UNL     1     -11.830   1.726   2.357  0.00  0.00    +0.024 A 
ATOM     31  C   UNL     1     -10.569   2.178   2.766  0.00  0.00    +0.031 A 
ATOM     32  C   UNL     1     -10.453   2.835   3.972  0.00  0.00    +0.111 A 
ATOM     33  N   UNL     1     -11.507   3.031   4.742  0.00  0.00    -0.263 NA
ATOM     34  C   UNL     1     -12.712   2.618   4.398  0.00  0.00    +0.111 A 
ATOM     35  C   UNL     1     -12.920   1.956   3.206  0.00  0.00    +0.031 A 
ENDBRANCH  24  30
ENDBRANCH  21  23
ENDBRANCH  20  21
ENDBRANCH   3  20
TORSDOF 9
