REMARK  Name = ZINC64353004
REMARK  9 active torsions:
REMARK  status: ('A' for Active; 'I' for Inactive)
REMARK    1  A    between atoms: C_1  and  C_2
REMARK    2  A    between atoms: C_2  and  C_3
REMARK    3  A    between atoms: C_2  and  C_4
REMARK    4  A    between atoms: C_4  and  C_6
REMARK    5  A    between atoms: C_4  and  N_13
REMARK    6  A    between atoms: C_14  and  C_16
REMARK    7  A    between atoms: C_16  and  N_17
REMARK    8  A    between atoms: C_20  and  C_25
REMARK    9  A    between atoms: C_25  and  C_26
REMARK                            x       y       z     vdW  Elec       q    Type
REMARK                         _______ _______ _______ _____ _____    ______ ____
ROOT
ATOM      1  N   UNL     1      -1.131  -4.678   2.527  0.00  0.00    -0.216 N 
ATOM      2  C   UNL     1       0.051  -4.913   3.130  0.00  0.00    +0.244 C 
ATOM      3  O   UNL     1       1.157  -4.761   2.657  0.00  0.00    -0.273 OA
ATOM      4  C   UNL     1      -0.290  -5.405   4.522  0.00  0.00    +0.165 C 
ATOM      5  N   UNL     1      -1.763  -5.390   4.544  0.00  0.00    -0.287 N 
ATOM      6  C   UNL     1      -2.161  -4.947   3.338  0.00  0.00    +0.310 C 
ATOM      7  O   UNL     1      -3.325  -4.809   3.019  0.00  0.00    -0.252 OA
ATOM      8  H   UNL     1      -2.334  -5.646   5.284  0.00  0.00    +0.151 HD
ENDROOT
BRANCH   1   9
ATOM      9  C   UNL     1      -1.271  -4.184   1.155  0.00  0.00    +0.213 C 
BRANCH   9  11
ATOM     10  N   UNL     1      -1.413  -1.998   0.005  0.00  0.00    -0.307 N 
ATOM     11  C   UNL     1      -1.292  -2.677   1.163  0.00  0.00    +0.231 C 
ATOM     12  O   UNL     1      -1.198  -2.075   2.212  0.00  0.00    -0.274 OA
ATOM     13  H   UNL     1      -1.488  -2.480  -0.834  0.00  0.00    +0.149 HD
BRANCH  10  14
ATOM     14  C   UNL     1      -1.433  -0.534   0.013  0.00  0.00    +0.106 C 
BRANCH  14  15
ATOM     15  C   UNL     1      -2.162  -0.034  -1.208  0.00  0.00    -0.027 A 
ATOM     16  C   UNL     1      -1.981  -0.663  -2.426  0.00  0.00    +0.008 A 
ATOM     17  C   UNL     1      -2.650  -0.207  -3.546  0.00  0.00    +0.038 A 
ATOM     18  C   UNL     1      -3.500   0.881  -3.448  0.00  0.00    +0.123 A 
ATOM     19  C   UNL     1      -3.681   1.510  -2.228  0.00  0.00    +0.038 A 
ATOM     20  C   UNL     1      -3.015   1.049  -1.108  0.00  0.00    +0.008 A 
ATOM     21  F   UNL     1      -4.154   1.329  -4.543  0.00  0.00    -0.205 F 
ENDBRANCH  14  15
BRANCH  14  23
ATOM     22  C   UNL     1      -0.019   1.526   0.010  0.00  0.00    +0.009 C 
ATOM     23  C   UNL     1       0.002  -0.004   0.002  0.00  0.00    +0.008 C 
ATOM     24  C   UNL     1       0.742  -0.511   1.242  0.00  0.00    +0.009 C 
ENDBRANCH  14  23
ENDBRANCH  10  14
ENDBRANCH   9  11
ENDBRANCH   1   9
BRANCH   4  25
ATOM     25  C   UNL     1       0.240  -6.825   4.736  0.00  0.00    +0.065 C 
BRANCH  25  26
ATOM     26  C   UNL     1      -0.004  -7.243   6.163  0.00  0.00    -0.039 C 
ATOM     27  C   UNL     1      -1.052  -7.957   6.633  0.00  0.00    -0.001 A 
ATOM     28  C   UNL     1      -2.234  -8.534   5.983  0.00  0.00    +0.010 A 
ATOM     29  C   UNL     1      -3.131  -9.212   6.734  0.00  0.00    +0.001 A 
ATOM     30  C   UNL     1      -2.961  -9.375   8.116  0.00  0.00    +0.002 A 
ATOM     31  C   UNL     1      -1.902  -8.873   8.785  0.00  0.00    +0.026 A 
ATOM     32  C   UNL     1      -0.895  -8.143   8.094  0.00  0.00    +0.043 A 
ATOM     33  N   UNL     1       0.206  -7.567   8.509  0.00  0.00    -0.380 N 
ATOM     34  C   UNL     1       0.877  -6.954   7.358  0.00  0.00    +0.144 C 
ATOM     35  H   UNL     1       0.526  -7.552   9.425  0.00  0.00    +0.160 HD
ENDBRANCH  25  26
ENDBRANCH   4  25
TORSDOF 7
