REMARK  Name = ZINC64775172
REMARK  12 active torsions:
REMARK  status: ('A' for Active; 'I' for Inactive)
REMARK    1  A    between atoms: C_1  and  C_2
REMARK    2  A    between atoms: C_5  and  S_26
REMARK    3  A    between atoms: C_10  and  C_11
REMARK    4  A    between atoms: C_13  and  C_16
REMARK    5  A    between atoms: C_18  and  O_24
REMARK    6  A    between atoms: C_20  and  O_22
REMARK    7  A    between atoms: O_22  and  C_23
REMARK    8  A    between atoms: O_24  and  C_25
REMARK    9  A    between atoms: S_26  and  N_29
REMARK   10  A    between atoms: N_29  and  C_30
REMARK   11  A    between atoms: C_33  and  O_36
REMARK   12  A    between atoms: O_36  and  C_37
REMARK                            x       y       z     vdW  Elec       q    Type
REMARK                         _______ _______ _______ _____ _____    ______ ____
ROOT
ATOM      1  C   UNL     1       2.033  -1.080   0.973  0.00  0.00    +0.048 C 
ATOM      2  C   UNL     1       2.453  -2.346   0.271  0.00  0.00    +0.008 A 
ATOM      3  C   UNL     1       2.153  -2.728  -1.109  0.00  0.00    +0.026 A 
ATOM      4  C   UNL     1       1.450  -2.126  -2.155  0.00  0.00    +0.040 A 
ATOM      5  C   UNL     1       1.351  -2.763  -3.360  0.00  0.00    +0.109 A 
ATOM      6  C   UNL     1       1.944  -4.004  -3.550  0.00  0.00    +0.032 A 
ATOM      7  C   UNL     1       2.642  -4.614  -2.530  0.00  0.00    +0.049 A 
ATOM      8  C   UNL     1       2.756  -3.985  -1.296  0.00  0.00    +0.136 A 
ATOM      9  O   UNL     1       3.360  -4.323  -0.139  0.00  0.00    -0.450 OA
ATOM     10  C   UNL     1       3.192  -3.360   0.790  0.00  0.00    +0.196 A 
ENDROOT
BRANCH  10  11
ATOM     11  C   UNL     1       3.725  -3.404   2.159  0.00  0.00    +0.294 A 
ATOM     12  N   UNL     1       4.446  -4.375   2.676  0.00  0.00    -0.184 NA
ATOM     13  C   UNL     1       4.761  -4.084   3.947  0.00  0.00    +0.203 A 
ATOM     14  N   UNL     1       4.243  -2.920   4.257  0.00  0.00    -0.056 NA
ATOM     15  O   UNL     1       3.565  -2.454   3.100  0.00  0.00    -0.329 OA
BRANCH  13  16
ATOM     16  C   UNL     1       5.564  -4.940   4.855  0.00  0.00    +0.029 A 
ATOM     17  C   UNL     1       6.066  -6.158   4.404  0.00  0.00    +0.057 A 
ATOM     18  C   UNL     1       6.816  -6.955   5.253  0.00  0.00    +0.124 A 
ATOM     19  C   UNL     1       7.068  -6.541   6.553  0.00  0.00    +0.091 A 
ATOM     20  C   UNL     1       6.569  -5.328   7.006  0.00  0.00    +0.124 A 
ATOM     21  C   UNL     1       5.823  -4.524   6.159  0.00  0.00    +0.057 A 
BRANCH  20  22
ATOM     22  O   UNL     1       6.818  -4.926   8.280  0.00  0.00    -0.495 OA
ATOM     23  C   UNL     1       7.599  -5.801   9.096  0.00  0.00    +0.277 C 
ENDBRANCH  20  22
BRANCH  18  24
ATOM     24  O   UNL     1       7.306  -8.144   4.813  0.00  0.00    -0.495 OA
ATOM     25  C   UNL     1       8.071  -8.915   5.742  0.00  0.00    +0.277 C 
ENDBRANCH  18  24
ENDBRANCH  13  16
ENDBRANCH  10  11
BRANCH   5  26
ATOM     26  S   UNL     1       0.463  -2.006  -4.680  0.00  0.00    +0.072 S 
ATOM     27  O   UNL     1      -0.057  -3.061  -5.477  0.00  0.00    -0.150 OA
ATOM     28  O   UNL     1      -0.367  -1.013  -4.094  0.00  0.00    -0.150 OA
BRANCH  26  29
ATOM     29  N   UNL     1       1.569  -1.206  -5.617  0.00  0.00    -0.216 N 
ATOM     30  H   UNL     1       1.703  -1.469  -6.541  0.00  0.00    +0.174 HD
BRANCH  29  31
ATOM     31  C   UNL     1       2.310  -0.149  -5.077  0.00  0.00    +0.048 A 
ATOM     32  C   UNL     1       1.709   1.086  -4.869  0.00  0.00    +0.028 A 
ATOM     33  C   UNL     1       2.441   2.128  -4.335  0.00  0.00    +0.047 A 
ATOM     34  C   UNL     1       3.776   1.942  -4.006  0.00  0.00    +0.120 A 
ATOM     35  C   UNL     1       4.377   0.710  -4.214  0.00  0.00    +0.047 A 
ATOM     36  C   UNL     1       3.645  -0.335  -4.743  0.00  0.00    +0.028 A 
BRANCH  34  37
ATOM     37  O   UNL     1       4.495   2.969  -3.480  0.00  0.00    -0.495 OA
ATOM     38  C   UNL     1       5.865   2.708  -3.166  0.00  0.00    +0.277 C 
ENDBRANCH  34  37
ENDBRANCH  29  31
ENDBRANCH  26  29
ENDBRANCH   5  26
TORSDOF 8
