REMARK  Name = ZINC31783328
REMARK  8 active torsions:
REMARK  status: ('A' for Active; 'I' for Inactive)
REMARK    1  A    between atoms: C_1  and  C_2
REMARK    2  A    between atoms: N_13  and  C_16
REMARK    3  A    between atoms: C_16  and  C_18
REMARK    4  A    between atoms: C_16  and  C_19
REMARK    5  A    between atoms: N_21  and  N_22
REMARK    6  A    between atoms: C_23  and  C_24
REMARK    7  A    between atoms: C_27  and  O_31
REMARK    8  A    between atoms: O_31  and  C_32
REMARK                            x       y       z     vdW  Elec       q    Type
REMARK                         _______ _______ _______ _____ _____    ______ ____
ROOT
ATOM      1  C   UNL     1      -4.770   0.434  -0.252  0.00  0.00    +0.176 C 
ATOM      2  C   UNL     1      -3.849  -0.064  -1.368  0.00  0.00    +0.041 C 
ENDROOT
BRANCH   1  14
ATOM      3  C   UNL     1     -11.555  -4.609   3.423  0.00  0.00    +0.008 C 
ATOM      4  C   UNL     1     -10.713  -3.507   2.776  0.00  0.00    -0.009 C 
ATOM      5  C   UNL     1      -9.232  -3.891   2.834  0.00  0.00    +0.008 C 
ATOM      6  C   UNL     1      -8.369  -2.699   2.419  0.00  0.00    +0.037 C 
ATOM      7  C   UNL     1      -8.862  -2.179   1.071  0.00  0.00    -0.023 A 
ATOM      8  C   UNL     1     -10.094  -2.495   0.620  0.00  0.00    -0.004 A 
ATOM      9  S   UNL     1     -10.229  -1.687  -0.952  0.00  0.00    -0.073 S 
ATOM     10  C   UNL     1      -8.627  -0.925  -0.997  0.00  0.00    +0.116 A 
ATOM     11  C   UNL     1      -8.040  -1.327   0.213  0.00  0.00    +0.076 A 
ATOM     12  C   UNL     1      -6.710  -0.846   0.447  0.00  0.00    +0.263 A 
ATOM     13  O   UNL     1      -6.115  -1.141   1.470  0.00  0.00    -0.267 OA
ATOM     14  N   UNL     1      -6.129  -0.064  -0.481  0.00  0.00    -0.287 N 
ATOM     15  C   UNL     1      -6.778   0.279  -1.624  0.00  0.00    +0.204 A 
ATOM     16  N   UNL     1      -7.988  -0.149  -1.868  0.00  0.00    -0.230 NA
ATOM     17  C   UNL     1     -11.121  -3.345   1.304  0.00  0.00    +0.046 C 
ENDBRANCH   1  14
BRANCH   1  18
ATOM     18  C   UNL     1      -4.781   1.940  -0.244  0.00  0.00    +0.255 C 
ATOM     19  O   UNL     1      -5.822   2.540  -0.413  0.00  0.00    -0.272 OA
ATOM     20  N   UNL     1      -3.635   2.622  -0.048  0.00  0.00    -0.205 N 
ATOM     21  H   UNL     1      -2.691   2.078   0.105  0.00  0.00    +0.177 HD
BRANCH  20  22
ATOM     22  N   UNL     1      -3.645   4.023  -0.041  0.00  0.00    -0.188 NA
ATOM     23  C   UNL     1      -2.527   4.680   0.020  0.00  0.00    +0.138 C 
BRANCH  23  24
ATOM     24  C   UNL     1      -1.282   4.064  -0.475  0.00  0.00    -0.004 A 
ATOM     25  C   UNL     1      -1.337   2.924  -1.281  0.00  0.00    +0.013 A 
ATOM     26  C   UNL     1      -0.171   2.351  -1.742  0.00  0.00    +0.047 A 
ATOM     27  C   UNL     1       1.057   2.906  -1.407  0.00  0.00    +0.134 A 
ATOM     28  C   UNL     1       1.117   4.040  -0.606  0.00  0.00    +0.060 A 
ATOM     29  C   UNL     1      -0.045   4.616  -0.136  0.00  0.00    +0.028 A 
ATOM     30 BR   UNL     1       2.793   4.790  -0.153  0.00  0.00    -0.046 Br
BRANCH  27  31
ATOM     31  O   UNL     1       2.204   2.338  -1.863  0.00  0.00    -0.494 OA
ATOM     32  C   UNL     1       2.071   1.175  -2.681  0.00  0.00    +0.277 C 
ENDBRANCH  27  31
ENDBRANCH  23  24
ENDBRANCH  20  22
ENDBRANCH   1  18
TORSDOF 5
