REMARK  Name = ZINC04093493
REMARK  8 active torsions:
REMARK  status: ('A' for Active; 'I' for Inactive)
REMARK    1  A    between atoms: C_1  and  C_2
REMARK    2  A    between atoms: C_6  and  N_9
REMARK    3  A    between atoms: C_7  and  C_8
REMARK    4  A    between atoms: C_14  and  C_16
REMARK    5  A    between atoms: C_14  and  C_22
REMARK    6  A    between atoms: C_14  and  N_64
REMARK    7  A    between atoms: N_26  and  C_27
REMARK    8  A    between atoms: C_27  and  C_28
REMARK                            x       y       z     vdW  Elec       q    Type
REMARK                         _______ _______ _______ _____ _____    ______ ____
ROOT
ATOM      1  C   UNL     1       2.490   1.048  -0.016  0.00  0.00    +0.033 C 
ENDROOT
BRANCH   1   7
ATOM      2  N   UNL     1       5.894   3.247   1.178  0.00  0.00    -0.333 N 
ATOM      3  C   UNL     1       5.753   1.872   1.675  0.00  0.00    +0.086 C 
ATOM      4  C   UNL     1       4.777   1.105   0.780  0.00  0.00    -0.058 C 
ATOM      5  C   UNL     1       3.619   3.170   0.276  0.00  0.00    -0.058 C 
ATOM      6  C   UNL     1       4.596   3.937   1.171  0.00  0.00    +0.086 C 
ATOM      7  N   UNL     1       3.470   1.796   0.800  0.00  0.00    +0.391 N 
ATOM      8  H   UNL     1       3.132   1.843   1.768  0.00  0.00    -0.080 HD
BRANCH   2  14
ATOM      9  C   UNL     1      10.111   5.761   1.388  0.00  0.00    +0.044 C 
ATOM     10  C   UNL     1       8.888   5.188   2.056  0.00  0.00    -0.046 A 
ATOM     11  C   UNL     1       8.695   5.365   3.414  0.00  0.00    +0.004 A 
ATOM     12  C   UNL     1       7.575   4.841   4.030  0.00  0.00    +0.002 A 
ATOM     13  C   UNL     1       6.641   4.143   3.291  0.00  0.00    +0.023 A 
ATOM     14  C   UNL     1       6.834   3.958   1.928  0.00  0.00    +0.033 A 
ATOM     15  C   UNL     1       7.961   4.486   1.311  0.00  0.00    -0.027 A 
ATOM     16  C   UNL     1       8.172   4.293  -0.169  0.00  0.00    +0.046 C 
ENDBRANCH   2  14
ENDBRANCH   1   7
BRANCH   1  17
ATOM     17  C   UNL     1       1.171   1.775   0.014  0.00  0.00    -0.054 A 
ATOM     18  C   UNL     1       0.401   1.857  -1.131  0.00  0.00    +0.002 A 
ATOM     19  C   UNL     1      -0.807   2.529  -1.105  0.00  0.00    +0.000 A 
ATOM     20  C   UNL     1      -1.250   3.110   0.068  0.00  0.00    +0.000 A 
ATOM     21  C   UNL     1      -0.481   3.026   1.214  0.00  0.00    +0.000 A 
ATOM     22  C   UNL     1       0.730   2.359   1.187  0.00  0.00    +0.002 A 
ENDBRANCH   1  17
BRANCH   1  23
ATOM     23  C   UNL     1       2.968   0.932  -1.440  0.00  0.00    +0.142 A 
ATOM     24  N   UNL     1       3.484   1.888  -2.173  0.00  0.00    -0.115 NA
ATOM     25  N   UNL     1       3.767   1.396  -3.329  0.00  0.00    -0.023 NA
ATOM     26  N   UNL     1       3.444   0.150  -3.353  0.00  0.00    -0.044 NA
ATOM     27  N   UNL     1       2.953  -0.175  -2.205  0.00  0.00    -0.228 N 
BRANCH  27  28
ATOM     28  C   UNL     1       2.468  -1.500  -1.810  0.00  0.00    +0.178 C 
BRANCH  28  29
ATOM     29  C   UNL     1       0.979  -1.618  -2.143  0.00  0.00    +0.140 C 
ATOM     30  C   UNL     1       0.432  -2.966  -1.627  0.00  0.00    +0.035 C 
ATOM     31  C   UNL     1      -0.532  -3.389  -2.768  0.00  0.00    +0.031 C 
ATOM     32  C   UNL     1       0.212  -2.829  -4.005  0.00  0.00    +0.160 C 
ATOM     33  O   UNL     1       0.796  -1.592  -3.564  0.00  0.00    -0.375 OA
ENDBRANCH  28  29
ENDBRANCH  27  28
ENDBRANCH   1  23
TORSDOF 6
