REMARK  Name = ZINC13810811
REMARK  11 active torsions:
REMARK  status: ('A' for Active; 'I' for Inactive)
REMARK    1  A    between atoms: C_1  and  C_2
REMARK    2  A    between atoms: C_5  and  C_36
REMARK    3  A    between atoms: N_8  and  S_10
REMARK    4  A    between atoms: S_10  and  C_13
REMARK    5  A    between atoms: C_17  and  C_19
REMARK    6  A    between atoms: N_23  and  C_24
REMARK    7  A    between atoms: N_30  and  C_31
REMARK    8  A    between atoms: C_31  and  C_32
REMARK    9  A    between atoms: C_32  and  C_33
REMARK   10  A    between atoms: C_33  and  O_34
REMARK   11  A    between atoms: O_34  and  C_35
REMARK                            x       y       z     vdW  Elec       q    Type
REMARK                         _______ _______ _______ _____ _____    ______ ____
ROOT
ATOM      1  C   UNL     1       0.075  -0.301   0.435  0.00  0.00    +0.058 A 
ATOM      2  C   UNL     1       1.110  -0.346   1.299  0.00  0.00    +0.075 A 
ATOM      3  S   UNL     1       2.176   0.942   0.673  0.00  0.00    -0.059 S 
ATOM      4  C   UNL     1       1.164   1.454  -0.706  0.00  0.00    +0.152 A 
ATOM      5  N   UNL     1       1.389   2.397  -1.602  0.00  0.00    -0.336 N 
ATOM      6  N   UNL     1       0.087   0.607  -0.589  0.00  0.00    -0.321 N 
ATOM      7  H   UNL     1       2.360   2.913  -1.624  0.00  0.00    +0.168 HD
ENDROOT
BRANCH   1  12
ATOM      8  C   UNL     1      -1.907  -3.454   0.921  0.00  0.00    +0.106 A 
ATOM      9  C   UNL     1      -3.202  -2.966   0.888  0.00  0.00    +0.028 A 
ATOM     10  C   UNL     1      -3.433  -1.614   0.708  0.00  0.00    +0.003 A 
ATOM     11  C   UNL     1      -2.373  -0.743   0.565  0.00  0.00    +0.010 A 
ATOM     12  C   UNL     1      -1.065  -1.229   0.592  0.00  0.00    +0.001 A 
ATOM     13  C   UNL     1      -0.839  -2.594   0.775  0.00  0.00    +0.038 A 
BRANCH   8  14
ATOM     14  S   UNL     1      -1.623  -5.178   1.151  0.00  0.00    +0.061 S 
ATOM     15  O   UNL     1      -2.801  -5.845   0.718  0.00  0.00    -0.153 OA
ATOM     16  O   UNL     1      -0.344  -5.456   0.599  0.00  0.00    -0.153 OA
BRANCH  14  22
ATOM     17  C   UNL     1       0.992  -4.392   5.430  0.00  0.00    +0.009 C 
ATOM     18  C   UNL     1      -0.313  -4.385   4.632  0.00  0.00    +0.002 C 
ATOM     19  C   UNL     1      -1.469  -4.814   5.540  0.00  0.00    +0.009 C 
ATOM     20  C   UNL     1      -2.780  -4.775   4.752  0.00  0.00    +0.002 C 
ATOM     21  C   UNL     1      -2.696  -5.758   3.579  0.00  0.00    +0.112 C 
ATOM     22  N   UNL     1      -1.503  -5.441   2.782  0.00  0.00    -0.176 NA
ATOM     23  C   UNL     1      -0.200  -5.369   3.458  0.00  0.00    +0.112 C 
ATOM     24  C   UNL     1      -3.939  -5.172   5.668  0.00  0.00    +0.009 C 
ENDBRANCH  14  22
ENDBRANCH   8  14
ENDBRANCH   1  12
BRANCH   5  25
ATOM     25  C   UNL     1       0.416   2.732  -2.501  0.00  0.00    +0.041 A 
ATOM     26  C   UNL     1       0.423   2.176  -3.783  0.00  0.00    +0.025 A 
ATOM     27  C   UNL     1      -0.566   2.514  -4.684  0.00  0.00    +0.002 A 
ATOM     28  C   UNL     1      -1.556   3.411  -4.324  0.00  0.00    +0.000 A 
ATOM     29  C   UNL     1      -1.567   3.970  -3.058  0.00  0.00    +0.002 A 
ATOM     30  C   UNL     1      -0.588   3.637  -2.145  0.00  0.00    +0.025 A 
ENDBRANCH   5  25
BRANCH   6  31
ATOM     31  C   UNL     1      -1.022   0.671  -1.544  0.00  0.00    +0.126 C 
BRANCH  31  32
ATOM     32  C   UNL     1      -1.138  -0.664  -2.281  0.00  0.00    +0.050 C 
BRANCH  32  33
ATOM     33  C   UNL     1      -2.215  -0.558  -3.363  0.00  0.00    +0.161 C 
BRANCH  33  34
ATOM     34  O   UNL     1      -2.405  -1.836  -3.972  0.00  0.00    -0.383 OA
ATOM     35  C   UNL     1      -3.313  -1.824  -5.076  0.00  0.00    +0.193 C 
ENDBRANCH  33  34
ENDBRANCH  32  33
ENDBRANCH  31  32
ENDBRANCH   6  31
TORSDOF 8
