REMARK  Name = ZINC46141354
REMARK  10 active torsions:
REMARK  status: ('A' for Active; 'I' for Inactive)
REMARK    1  A    between atoms: C_1  and  C_2
REMARK    2  A    between atoms: C_3  and  S_19
REMARK    3  A    between atoms: C_5  and  C_7
REMARK    4  A    between atoms: C_9  and  C_12
REMARK    5  A    between atoms: S_19  and  N_22
REMARK    6  A    between atoms: N_22  and  C_23
REMARK    7  A    between atoms: C_23  and  C_24
REMARK    8  A    between atoms: C_24  and  C_25
REMARK    9  A    between atoms: C_25  and  N_26
REMARK   10  A    between atoms: C_30  and  C_33
REMARK                            x       y       z     vdW  Elec       q    Type
REMARK                         _______ _______ _______ _____ _____    ______ ____
ROOT
ATOM      1  C   UNL     1      -1.299  -2.078   2.324  0.00  0.00    +0.053 C 
ATOM      2  C   UNL     1      -0.495  -1.549   1.164  0.00  0.00    +0.014 A 
ATOM      3  C   UNL     1      -0.941  -0.849   0.094  0.00  0.00    +0.116 A 
ATOM      4  C   UNL     1      -0.039  -0.452  -0.868  0.00  0.00    +0.049 A 
ATOM      5  C   UNL     1       1.278  -0.817  -0.644  0.00  0.00    +0.079 A 
ATOM      6  S   UNL     1       1.159  -1.687   0.907  0.00  0.00    -0.087 S 
ENDROOT
BRANCH   5   7
ATOM      7  C   UNL     1       2.464  -0.551  -1.468  0.00  0.00    +0.265 A 
ATOM      8  N   UNL     1       3.694  -0.934  -1.197  0.00  0.00    -0.187 NA
ATOM      9  C   UNL     1       4.525  -0.520  -2.165  0.00  0.00    +0.202 A 
ATOM     10  N   UNL     1       3.833   0.134  -3.068  0.00  0.00    -0.056 NA
ATOM     11  O   UNL     1       2.481   0.121  -2.635  0.00  0.00    -0.332 OA
BRANCH   9  12
ATOM     12  C   UNL     1       5.989  -0.761  -2.208  0.00  0.00    +0.023 A 
ATOM     13  C   UNL     1       6.609  -1.477  -1.187  0.00  0.00    +0.013 A 
ATOM     14  C   UNL     1       7.970  -1.699  -1.231  0.00  0.00    +0.021 A 
ATOM     15  C   UNL     1       8.719  -1.212  -2.288  0.00  0.00    +0.041 A 
ATOM     16  C   UNL     1       8.108  -0.499  -3.305  0.00  0.00    +0.021 A 
ATOM     17  C   UNL     1       6.746  -0.277  -3.272  0.00  0.00    +0.013 A 
ATOM     18 CL   UNL     1      10.431  -1.494  -2.338  0.00  0.00    -0.084 Cl
ENDBRANCH   9  12
ENDBRANCH   5   7
BRANCH   3  19
ATOM     19  S   UNL     1      -2.650  -0.452  -0.066  0.00  0.00    +0.059 S 
ATOM     20  O   UNL     1      -2.781   0.310  -1.258  0.00  0.00    -0.153 OA
ATOM     21  O   UNL     1      -3.369  -1.659   0.150  0.00  0.00    -0.153 OA
BRANCH  19  22
ATOM     22  N   UNL     1      -3.037   0.560   1.187  0.00  0.00    -0.190 NA
ATOM     23  H   UNL     1      -3.671   0.274   1.863  0.00  0.00    +0.148 HD
BRANCH  22  24
ATOM     24  C   UNL     1      -2.421   1.886   1.274  0.00  0.00    +0.104 C 
BRANCH  24  25
ATOM     25  C   UNL     1      -3.191   2.740   2.284  0.00  0.00    -0.002 C 
BRANCH  25  26
ATOM     26  C   UNL     1      -2.548   4.126   2.375  0.00  0.00    -0.078 C 
BRANCH  26  27
ATOM     27  N   UNL     1      -3.288   4.946   3.344  0.00  0.00    +0.380 N 
ATOM     28  C   UNL     1      -3.154   4.358   4.682  0.00  0.00    -0.079 C 
ATOM     29  C   UNL     1      -3.989   5.162   5.682  0.00  0.00    -0.018 C 
ATOM     30  C   UNL     1      -3.490   6.610   5.706  0.00  0.00    -0.001 C 
ATOM     31  C   UNL     1      -3.564   7.189   4.291  0.00  0.00    -0.031 C 
ATOM     32  C   UNL     1      -2.745   6.310   3.342  0.00  0.00    -0.076 C 
ATOM     33  C   UNL     1      -2.996   8.610   4.289  0.00  0.00    +0.005 C 
ATOM     34  H   UNL     1      -4.263   4.972   3.086  0.00  0.00    -0.082 HD
ENDBRANCH  26  27
ENDBRANCH  25  26
ENDBRANCH  24  25
ENDBRANCH  22  24
ENDBRANCH  19  22
ENDBRANCH   3  19
TORSDOF 8
