REMARK  Name = ZINC12833096
REMARK  9 active torsions:
REMARK  status: ('A' for Active; 'I' for Inactive)
REMARK    1  A    between atoms: C_1  and  C_2
REMARK    2  A    between atoms: C_5  and  C_32
REMARK    3  A    between atoms: C_9  and  C_14
REMARK    4  A    between atoms: C_14  and  N_60
REMARK    5  A    between atoms: C_15  and  C_16
REMARK    6  A    between atoms: C_15  and  N_60
REMARK    7  A    between atoms: C_21  and  C_22
REMARK    8  A    between atoms: C_21  and  N_60
REMARK    9  A    between atoms: N_26  and  C_27
REMARK                            x       y       z     vdW  Elec       q    Type
REMARK                         _______ _______ _______ _____ _____    ______ ____
ROOT
ATOM      1  N   UNL     1       1.364   3.985   1.435  0.00  0.00    +0.392 N 
ATOM      2  H   UNL     1       2.204   3.510   1.787  0.00  0.00    -0.080 HD
ENDROOT
BRANCH   1   3
ATOM      3  C   UNL     1       1.179   3.640   0.010  0.00  0.00    -0.036 C 
BRANCH   3  12
ATOM      4  C   UNL     1       4.878   0.126  -1.034  0.00  0.00    +0.044 C 
ATOM      5  C   UNL     1       5.350   1.449  -1.579  0.00  0.00    -0.041 A 
ATOM      6  C   UNL     1       6.560   1.540  -2.207  0.00  0.00    +0.004 A 
ATOM      7  C   UNL     1       7.005   2.753  -2.713  0.00  0.00    +0.005 A 
ATOM      8  C   UNL     1       6.236   3.890  -2.591  0.00  0.00    -0.026 A 
ATOM      9  C   UNL     1       5.001   3.823  -1.954  0.00  0.00    +0.052 A 
ATOM     10  C   UNL     1       4.553   2.590  -1.442  0.00  0.00    +0.002 A 
ATOM     11  C   UNL     1       3.252   2.530  -0.774  0.00  0.00    +0.017 A 
ATOM     12  C   UNL     1       2.523   3.668  -0.672  0.00  0.00    +0.001 A 
ATOM     13  C   UNL     1       3.017   4.879  -1.202  0.00  0.00    +0.251 A 
ATOM     14  O   UNL     1       2.345   5.891  -1.100  0.00  0.00    -0.268 OA
ATOM     15  N   UNL     1       4.211   4.945  -1.817  0.00  0.00    -0.322 N 
ATOM     16  H   UNL     1       4.521   5.793  -2.171  0.00  0.00    +0.169 HD
ATOM     17  C   UNL     1       6.731   5.202  -3.144  0.00  0.00    +0.046 C 
ENDBRANCH   3  12
ENDBRANCH   1   3
BRANCH   1  18
ATOM     18  C   UNL     1       0.194   3.537   2.220  0.00  0.00    -0.002 C 
BRANCH  18  19
ATOM     19  C   UNL     1       0.293   2.047   2.426  0.00  0.00    +0.089 A 
ATOM     20  C   UNL     1       0.994   1.432   3.395  0.00  0.00    +0.042 A 
ATOM     21  C   UNL     1       0.808   0.042   3.215  0.00  0.00    +0.041 A 
ATOM     22  C   UNL     1       0.005  -0.109   2.147  0.00  0.00    +0.195 A 
ATOM     23  O   UNL     1      -0.308   1.109   1.676  0.00  0.00    -0.470 OA
ENDBRANCH  18  19
ENDBRANCH   1  18
BRANCH   1  24
ATOM     24  C   UNL     1       1.542   5.445   1.583  0.00  0.00    +0.001 C 
BRANCH  24  25
ATOM     25  C   UNL     1       1.946   5.744   3.004  0.00  0.00    +0.135 A 
ATOM     26  N   UNL     1       1.144   6.017   4.004  0.00  0.00    -0.115 NA
ATOM     27  N   UNL     1       1.868   6.211   5.052  0.00  0.00    -0.023 NA
ATOM     28  N   UNL     1       3.111   6.077   4.745  0.00  0.00    -0.044 NA
ATOM     29  N   UNL     1       3.200   5.789   3.490  0.00  0.00    -0.228 N 
BRANCH  29  30
ATOM     30  C   UNL     1       4.434   5.554   2.737  0.00  0.00    +0.111 C 
ATOM     31  C   UNL     1       5.230   4.396   3.374  0.00  0.00    +0.027 C 
ATOM     32  C   UNL     1       6.711   4.827   3.226  0.00  0.00    +0.002 C 
ATOM     33  C   UNL     1       6.651   6.354   3.479  0.00  0.00    +0.002 C 
ATOM     34  C   UNL     1       5.337   6.798   2.804  0.00  0.00    +0.027 C 
ENDBRANCH  29  30
ENDBRANCH  24  25
ENDBRANCH   1  24
TORSDOF 7
