REMARK  Name = ZINC21240460
REMARK  9 active torsions:
REMARK  status: ('A' for Active; 'I' for Inactive)
REMARK    1  A    between atoms: C_1  and  C_2
REMARK    2  A    between atoms: C_11  and  N_27
REMARK    3  A    between atoms: C_13  and  S_15
REMARK    4  A    between atoms: S_15  and  C_16
REMARK    5  A    between atoms: C_16  and  C_17
REMARK    6  A    between atoms: N_19  and  C_20
REMARK    7  A    between atoms: C_20  and  C_21
REMARK    8  A    between atoms: C_20  and  C_22
REMARK    9  A    between atoms: C_20  and  C_24
REMARK                            x       y       z     vdW  Elec       q    Type
REMARK                         _______ _______ _______ _____ _____    ______ ____
ROOT
ATOM      1  C   UNL     1       9.482   4.444  -2.295  0.00  0.00    +0.008 C 
ATOM      2  C   UNL     1       8.089   3.843  -2.099  0.00  0.00    -0.009 C 
ATOM      3  C   UNL     1       8.142   2.768  -1.009  0.00  0.00    +0.008 C 
ATOM      4  C   UNL     1       6.822   1.996  -0.978  0.00  0.00    +0.037 C 
ATOM      5  C   UNL     1       5.671   2.992  -0.866  0.00  0.00    -0.025 A 
ATOM      6  C   UNL     1       5.850   4.290  -1.180  0.00  0.00    -0.004 A 
ATOM      7  S   UNL     1       4.275   5.055  -0.903  0.00  0.00    -0.073 S 
ATOM      8  C   UNL     1       3.374   3.625  -0.365  0.00  0.00    +0.115 A 
ATOM      9  C   UNL     1       4.334   2.595  -0.418  0.00  0.00    +0.051 A 
ATOM     10  C   UNL     1       3.874   1.306  -0.028  0.00  0.00    +0.129 A 
ATOM     11  N   UNL     1       2.616   1.157   0.353  0.00  0.00    -0.207 NA
ATOM     12  C   UNL     1       1.760   2.172   0.374  0.00  0.00    +0.191 A 
ATOM     13  N   UNL     1       2.135   3.395   0.022  0.00  0.00    -0.214 NA
ATOM     14  C   UNL     1       7.112   4.942  -1.659  0.00  0.00    +0.046 C 
ENDROOT
BRANCH  10  15
ATOM     15  N   UNL     1       4.733   0.222  -0.042  0.00  0.00    -0.343 N 
ATOM     16  H   UNL     1       4.371  -0.771   0.260  0.00  0.00    +0.144 HD
ATOM     17  H   UNL     1       5.779   0.354  -0.356  0.00  0.00    +0.144 HD
ENDBRANCH  10  15
BRANCH  12  18
ATOM     18  S   UNL     1       0.099   1.890   0.887  0.00  0.00    -0.077 S 
BRANCH  18  19
ATOM     19  C   UNL     1       0.172   0.115   1.230  0.00  0.00    +0.173 C 
BRANCH  19  20
ATOM     20  C   UNL     1      -1.179  -0.363   1.697  0.00  0.00    +0.224 C 
ATOM     21  O   UNL     1      -2.100   0.420   1.790  0.00  0.00    -0.275 OA
ATOM     22  N   UNL     1      -1.363  -1.660   2.013  0.00  0.00    -0.297 N 
ATOM     23  H   UNL     1      -0.527  -2.370   1.929  0.00  0.00    +0.150 HD
BRANCH  22  24
ATOM     24  C   UNL     1      -2.676  -2.124   2.468  0.00  0.00    +0.121 C 
ATOM     25  C   UNL     1      -3.716  -1.858   1.378  0.00  0.00    +0.048 C 
BRANCH  24  26
ATOM     26  C   UNL     1      -2.614  -3.625   2.757  0.00  0.00    +0.026 C 
ATOM     27  C   UNL     1      -3.482  -4.547   1.899  0.00  0.00    +0.007 C 
ATOM     28  C   UNL     1      -3.859  -4.281   3.358  0.00  0.00    +0.007 C 
ENDBRANCH  24  26
BRANCH  24  29
ATOM     29  C   UNL     1      -3.054  -1.403   3.694  0.00  0.00    +0.088 C 
ATOM     30  N   UNL     1      -3.345  -0.846   4.640  0.00  0.00    -0.194 NA
ENDBRANCH  24  29
ENDBRANCH  22  24
ENDBRANCH  19  20
ENDBRANCH  18  19
ENDBRANCH  12  18
TORSDOF 7
