REMARK  Name = ZINC38596180
REMARK  10 active torsions:
REMARK  status: ('A' for Active; 'I' for Inactive)
REMARK    1  A    between atoms: C_1  and  C_2
REMARK    2  A    between atoms: C_2  and  C_4
REMARK    3  A    between atoms: C_2  and  N_24
REMARK    4  A    between atoms: C_4  and  C_6
REMARK    5  A    between atoms: C_4  and  N_11
REMARK    6  A    between atoms: N_14  and  C_17
REMARK    7  A    between atoms: C_17  and  C_18
REMARK    8  A    between atoms: N_24  and  S_25
REMARK    9  A    between atoms: S_25  and  C_28
REMARK   10  A    between atoms: C_33  and  N_34
REMARK                            x       y       z     vdW  Elec       q    Type
REMARK                         _______ _______ _______ _____ _____    ______ ____
ROOT
ATOM      1  C   UNL     1      -3.221   0.608   1.549  0.00  0.00    +0.112 C 
ENDROOT
BRANCH   1   2
ATOM      2  N   UNL     1      -4.598   1.097   1.699  0.00  0.00    -0.297 NA
ATOM      3  C   UNL     1      -4.707   2.502   1.282  0.00  0.00    +0.066 C 
ATOM      4  C   UNL     1      -6.164   2.954   1.397  0.00  0.00    -0.063 C 
ATOM      5  N   UNL     1      -6.616   2.801   2.785  0.00  0.00    +0.384 N 
ATOM      6  C   UNL     1      -6.525   1.389   3.179  0.00  0.00    -0.063 C 
ATOM      7  C   UNL     1      -5.071   0.924   3.079  0.00  0.00    +0.066 C 
ATOM      8  H   UNL     1      -6.033   3.357   3.392  0.00  0.00    -0.081 HD
BRANCH   5   9
ATOM      9  C   UNL     1      -8.010   3.252   2.899  0.00  0.00    -0.043 C 
BRANCH   9  10
ATOM     10  C   UNL     1      -8.435   3.211   4.344  0.00  0.00    -0.064 A 
ATOM     11  C   UNL     1      -9.001   2.062   4.866  0.00  0.00    +0.002 A 
ATOM     12  C   UNL     1      -9.391   2.025   6.191  0.00  0.00    +0.000 A 
ATOM     13  C   UNL     1      -9.215   3.136   6.995  0.00  0.00    +0.000 A 
ATOM     14  C   UNL     1      -8.648   4.283   6.474  0.00  0.00    +0.000 A 
ATOM     15  C   UNL     1      -8.254   4.319   5.149  0.00  0.00    +0.002 A 
ENDBRANCH   9  10
ENDBRANCH   5   9
ENDBRANCH   1   2
BRANCH   1  16
ATOM     16  C   UNL     1      -3.145  -0.827   2.002  0.00  0.00    +0.008 A 
ATOM     17  C   UNL     1      -2.175  -1.446   2.719  0.00  0.00    +0.013 A 
ATOM     18  C   UNL     1      -2.318  -2.786   3.024  0.00  0.00    +0.008 A 
ATOM     19  C   UNL     1      -3.425  -3.443   2.597  0.00  0.00    +0.045 A 
ATOM     20  S   UNL     1      -4.312  -2.152   1.741  0.00  0.00    -0.100 S 
ENDBRANCH   1  16
BRANCH   1  22
ATOM     21  C   UNL     1      -1.318   0.358  -0.052  0.00  0.00    +0.027 C 
ATOM     22  C   UNL     1      -2.804   0.702   0.080  0.00  0.00    +0.095 C 
BRANCH  22  23
ATOM     23  N   UNL     1      -3.595  -0.242  -0.714  0.00  0.00    -0.185 NA
ATOM     24  H   UNL     1      -3.820  -1.112  -0.350  0.00  0.00    +0.148 HD
BRANCH  23  25
ATOM     25  S   UNL     1      -4.106   0.178  -2.232  0.00  0.00    +0.061 S 
ATOM     26  O   UNL     1      -4.790  -0.952  -2.757  0.00  0.00    -0.153 OA
ATOM     27  O   UNL     1      -4.719   1.454  -2.116  0.00  0.00    -0.153 OA
BRANCH  25  28
ATOM     28  C   UNL     1      -2.666   0.399  -3.223  0.00  0.00    +0.135 A 
ATOM     29  C   UNL     1      -2.307   1.665  -3.648  0.00  0.00    +0.031 A 
ATOM     30  C   UNL     1      -1.177   1.839  -4.425  0.00  0.00    +0.002 A 
ATOM     31  C   UNL     1      -0.406   0.747  -4.778  0.00  0.00    +0.002 A 
ATOM     32  C   UNL     1      -0.764  -0.518  -4.352  0.00  0.00    +0.035 A 
ATOM     33  C   UNL     1      -1.891  -0.692  -3.571  0.00  0.00    +0.152 A 
BRANCH  33  34
ATOM     34  N   UNL     1      -2.272  -2.046  -3.111  0.00  0.00    +0.058 N 
ATOM     35  O   UNL     1      -2.124  -2.997  -3.844  0.00  0.00    -0.126 OA
ATOM     36  O   UNL     1      -2.731  -2.202  -2.004  0.00  0.00    -0.126 OA
ENDBRANCH  33  34
ENDBRANCH  25  28
ENDBRANCH  23  25
ENDBRANCH  22  23
ENDBRANCH   1  22
TORSDOF 9
