REMARK  Name = ZINC60371359
REMARK  5 active torsions:
REMARK  status: ('A' for Active; 'I' for Inactive)
REMARK    1  A    between atoms: C_6  and  S_7
REMARK    2  A    between atoms: S_7  and  N_10
REMARK    3  A    between atoms: C_19  and  C_21
REMARK    4  A    between atoms: C_21  and  N_22
REMARK    5  A    between atoms: C_27  and  C_29
REMARK                            x       y       z     vdW  Elec       q    Type
REMARK                         _______ _______ _______ _____ _____    ______ ____
ROOT
ATOM      1  C   UNL     1       0.048   1.284   0.094  0.00  0.00    +0.030 A 
ATOM      2  C   UNL     1       1.225   2.005   0.059  0.00  0.00    +0.026 A 
ATOM      3  C   UNL     1       2.427   1.361  -0.210  0.00  0.00    +0.039 A 
ATOM      4  C   UNL     1       2.446  -0.006  -0.442  0.00  0.00    -0.024 A 
ATOM      5  C   UNL     1       1.261  -0.721  -0.407  0.00  0.00    +0.034 A 
ATOM      6  C   UNL     1       0.067  -0.079  -0.140  0.00  0.00    +0.106 A 
ATOM      7  C   UNL     1       3.731  -0.738  -0.726  0.00  0.00    +0.038 C 
ATOM      8  C   UNL     1       4.804   0.234  -1.215  0.00  0.00    +0.024 C 
ATOM      9  C   UNL     1       4.899   1.406  -0.229  0.00  0.00    +0.114 C 
ATOM     10  N   UNL     1       3.611   2.111  -0.245  0.00  0.00    -0.273 N 
ATOM     11  C   UNL     1       3.567   3.458  -0.293  0.00  0.00    +0.203 C 
ATOM     12  O   UNL     1       2.503   4.026  -0.418  0.00  0.00    -0.277 OA
ENDROOT
BRANCH   6  13
ATOM     13  S   UNL     1      -1.435  -0.998  -0.099  0.00  0.00    +0.061 S 
ATOM     14  O   UNL     1      -1.080  -2.344   0.189  0.00  0.00    -0.153 OA
ATOM     15  O   UNL     1      -2.341  -0.260   0.710  0.00  0.00    -0.153 OA
BRANCH  13  16
ATOM     16  N   UNL     1      -2.057  -0.991  -1.633  0.00  0.00    -0.177 NA
ATOM     17  C   UNL     1      -2.979   0.016  -2.179  0.00  0.00    +0.109 C 
ATOM     18  C   UNL     1      -3.305  -0.400  -3.629  0.00  0.00    +0.018 C 
ATOM     19  C   UNL     1      -2.996  -1.920  -3.633  0.00  0.00    +0.018 C 
ATOM     20  C   UNL     1      -1.773  -1.989  -2.680  0.00  0.00    +0.109 C 
ENDBRANCH  13  16
ENDBRANCH   6  13
BRANCH  11  21
ATOM     21  C   UNL     1       4.841   4.257  -0.193  0.00  0.00    +0.020 C 
BRANCH  21  22
ATOM     22  N   UNL     1       4.546   5.678  -0.416  0.00  0.00    +0.391 N 
ATOM     23  C   UNL     1       4.067   5.867  -1.790  0.00  0.00    -0.078 C 
ATOM     24  C   UNL     1       3.681   7.333  -2.003  0.00  0.00    -0.019 C 
ATOM     25  C   UNL     1       4.908   8.218  -1.762  0.00  0.00    -0.003 C 
ATOM     26  C   UNL     1       5.443   7.958  -0.351  0.00  0.00    -0.010 C 
ATOM     27  C   UNL     1       5.764   6.469  -0.200  0.00  0.00    -0.011 C 
ATOM     28  H   UNL     1       3.832   5.978   0.231  0.00  0.00    -0.081 HD
BRANCH  27  29
ATOM     29  C   UNL     1       6.300   6.204   1.209  0.00  0.00    +0.237 C 
ATOM     30  O   UNL     1       5.314   6.592   2.181  0.00  0.00    -0.351 OA
ATOM     31  C   UNL     1       6.078   7.129   3.288  0.00  0.00    +0.191 C 
ATOM     32  C   UNL     1       7.243   7.838   2.552  0.00  0.00    +0.191 C 
ATOM     33  O   UNL     1       7.489   6.975   1.424  0.00  0.00    -0.351 OA
ENDBRANCH  27  29
ENDBRANCH  21  22
ENDBRANCH  11  21
TORSDOF 5
