REMARK  Name = ZINC53632596
REMARK  7 active torsions:
REMARK  status: ('A' for Active; 'I' for Inactive)
REMARK    1  A    between atoms: C_1  and  C_2
REMARK    2  A    between atoms: C_2  and  N_25
REMARK    3  A    between atoms: C_4  and  C_19
REMARK    4  A    between atoms: N_6  and  C_9
REMARK    5  A    between atoms: N_25  and  C_26
REMARK    6  A    between atoms: C_26  and  C_27
REMARK    7  A    between atoms: C_27  and  C_28
REMARK                            x       y       z     vdW  Elec       q    Type
REMARK                         _______ _______ _______ _____ _____    ______ ____
ROOT
ATOM      1  C   UNL     1      -0.035   1.511  -0.027  0.00  0.00    +0.061 C 
ATOM      2  C   UNL     1       0.010   0.005  -0.004  0.00  0.00    +0.015 C 
ATOM      3  C   UNL     1       0.032  -0.668   1.204  0.00  0.00    +0.082 C 
ATOM      4  C   UNL     1      -0.042  -2.127   1.414  0.00  0.00    +0.103 C 
ATOM      5  N   UNL     1       0.011  -2.334   2.704  0.00  0.00    -0.174 NA
ATOM      6  N   UNL     1       0.116  -1.118   3.383  0.00  0.00    -0.157 N 
ATOM      7  C   UNL     1       0.137  -0.099   2.503  0.00  0.00    +0.272 C 
ATOM      8  O   UNL     1       0.225   1.088   2.771  0.00  0.00    -0.268 OA
ENDROOT
BRANCH   6   9
ATOM      9  C   UNL     1       0.197  -0.974   4.838  0.00  0.00    +0.249 C 
ATOM     10  N   UNL     1      -0.953  -1.606   5.498  0.00  0.00    -0.315 N 
ATOM     11  C   UNL     1      -0.697  -2.665   6.367  0.00  0.00    +0.043 A 
ATOM     12  C   UNL     1      -1.666  -3.389   7.084  0.00  0.00    +0.024 A 
ATOM     13  C   UNL     1      -1.310  -4.421   7.920  0.00  0.00    +0.002 A 
ATOM     14  C   UNL     1       0.015  -4.784   8.083  0.00  0.00    +0.001 A 
ATOM     15  C   UNL     1       0.991  -4.089   7.389  0.00  0.00    +0.016 A 
ATOM     16  C   UNL     1       0.633  -3.055   6.553  0.00  0.00    +0.032 A 
ATOM     17  S   UNL     1       1.587  -1.961   5.524  0.00  0.00    -0.080 S 
ATOM     18  H   UNL     1      -1.859  -1.297   5.335  0.00  0.00    +0.149 HD
ENDBRANCH   6   9
BRANCH   4  19
ATOM     19  C   UNL     1      -0.155  -3.164   0.361  0.00  0.00    +0.003 A 
ATOM     20  C   UNL     1       0.988  -3.799  -0.121  0.00  0.00    +0.010 A 
ATOM     21  C   UNL     1       0.876  -4.764  -1.102  0.00  0.00    +0.001 A 
ATOM     22  C   UNL     1      -0.367  -5.100  -1.607  0.00  0.00    +0.000 A 
ATOM     23  C   UNL     1      -1.505  -4.472  -1.132  0.00  0.00    +0.001 A 
ATOM     24  C   UNL     1      -1.406  -3.511  -0.147  0.00  0.00    +0.010 A 
ENDBRANCH   4  19
BRANCH   2  25
ATOM     25  N   UNL     1       0.029  -0.688  -1.162  0.00  0.00    -0.346 N 
ATOM     26  H   UNL     1      -0.017  -1.656  -1.149  0.00  0.00    +0.146 HD
BRANCH  25  27
ATOM     27  C   UNL     1       0.119   0.024  -2.439  0.00  0.00    +0.107 C 
BRANCH  27  28
ATOM     28  C   UNL     1       0.123  -0.987  -3.587  0.00  0.00    +0.073 C 
BRANCH  28  29
ATOM     29  C   UNL     1       0.216  -0.255  -4.901  0.00  0.00    +0.035 A 
ATOM     30  H   UNL     1       1.578   1.180  -7.314  0.00  0.00    +0.166 HD
ATOM     31  C   UNL     1       1.350   0.161  -5.497  0.00  0.00    +0.105 A 
ATOM     32  N   UNL     1       0.982   0.775  -6.663  0.00  0.00    -0.352 N 
ATOM     33  C   UNL     1      -0.365   0.713  -6.740  0.00  0.00    +0.171 A 
ATOM     34  N   UNL     1      -0.816   0.091  -5.686  0.00  0.00    -0.350 N 
ATOM     35  H   UNL     1      -1.750  -0.091  -5.497  0.00  0.00    +0.166 HD
ENDBRANCH  28  29
ENDBRANCH  27  28
ENDBRANCH  25  27
ENDBRANCH   2  25
TORSDOF 6
