REMARK  Name = ZINC39694961
REMARK  6 active torsions:
REMARK  status: ('A' for Active; 'I' for Inactive)
REMARK    1  A    between atoms: C_1  and  C_2
REMARK    2  A    between atoms: C_3  and  C_9
REMARK    3  A    between atoms: C_9  and  N_10
REMARK    4  A    between atoms: C_11  and  C_13
REMARK    5  A    between atoms: C_24  and  C_26
REMARK    6  A    between atoms: C_32  and  C_34
REMARK                            x       y       z     vdW  Elec       q    Type
REMARK                         _______ _______ _______ _____ _____    ______ ____
ROOT
ATOM      1  C   UNL     1       2.959   1.739  -4.246  0.00  0.00    +0.100 C 
ATOM      2  C   UNL     1       3.941   0.548  -4.324  0.00  0.00    +0.121 C 
ATOM      3  N   UNL     1       4.002   0.207  -5.764  0.00  0.00    -0.299 N 
ATOM      4  C   UNL     1       3.993   1.518  -6.455  0.00  0.00    +0.115 C 
ATOM      5  C   UNL     1       2.999   2.376  -5.646  0.00  0.00    -0.004 C 
ATOM      6  C   UNL     1       3.494   3.816  -5.557  0.00  0.00    -0.010 C 
ATOM      7  C   UNL     1       3.470   4.446  -6.953  0.00  0.00    -0.082 C 
ATOM      8  N   UNL     1       2.102   4.409  -7.484  0.00  0.00    +0.379 N 
ATOM      9  C   UNL     1       1.668   3.017  -7.654  0.00  0.00    -0.082 C 
ATOM     10  C   UNL     1       1.617   2.327  -6.288  0.00  0.00    -0.010 C 
ATOM     11  C   UNL     1       4.054  -1.020  -6.321  0.00  0.00    +0.236 C 
ATOM     12  O   UNL     1       4.102  -1.137  -7.527  0.00  0.00    -0.274 OA
ATOM     13  H   UNL     1       1.480   4.878  -6.843  0.00  0.00    -0.086 HD
ATOM     14  H   UNL     1       2.077   4.879  -8.377  0.00  0.00    -0.086 HD
ENDROOT
BRANCH  11  15
ATOM     15  C   UNL     1       4.054  -2.246  -5.445  0.00  0.00    +0.162 C 
ATOM     16  C   UNL     1       5.472  -2.494  -4.889  0.00  0.00    +0.033 C 
ATOM     17  C   UNL     1       5.597  -4.040  -4.932  0.00  0.00    +0.021 C 
ATOM     18  C   UNL     1       4.809  -4.380  -6.221  0.00  0.00    +0.109 C 
ATOM     19  N   UNL     1       3.680  -3.426  -6.237  0.00  0.00    -0.283 N 
ATOM     20  C   UNL     1       2.504  -3.607  -6.870  0.00  0.00    +0.320 C 
ATOM     21  O   UNL     1       1.647  -2.751  -6.813  0.00  0.00    -0.266 OA
BRANCH  20  22
ATOM     22  C   UNL     1       2.254  -4.872  -7.650  0.00  0.00    +0.470 C 
ATOM     23  F   UNL     1       0.974  -4.828  -8.213  0.00  0.00    -0.162 F 
ATOM     24  F   UNL     1       3.208  -4.989  -8.667  0.00  0.00    -0.162 F 
ATOM     25  F   UNL     1       2.349  -5.974  -6.793  0.00  0.00    -0.162 F 
ENDBRANCH  20  22
ENDBRANCH  11  15
BRANCH   1  27
ATOM     26  N   UNL     1       0.709   2.053  -3.269  0.00  0.00    -0.311 N 
ATOM     27  C   UNL     1       1.568   1.253  -3.930  0.00  0.00    +0.218 C 
ATOM     28  O   UNL     1       1.222   0.142  -4.271  0.00  0.00    -0.275 OA
ATOM     29  H   UNL     1       0.986   2.942  -2.996  0.00  0.00    +0.149 HD
BRANCH  26  30
ATOM     30  C   UNL     1      -0.643   1.581  -2.962  0.00  0.00    +0.139 C 
BRANCH  30  33
ATOM     31  C   UNL     1      -1.820   3.780  -4.420  0.00  0.00    +0.045 C 
ATOM     32  C   UNL     1      -1.959   3.710  -2.921  0.00  0.00    -0.027 A 
ATOM     33  C   UNL     1      -1.396   2.658  -2.224  0.00  0.00    -0.026 A 
ATOM     34  C   UNL     1      -1.524   2.593  -0.849  0.00  0.00    +0.005 A 
ATOM     35  C   UNL     1      -2.214   3.580  -0.171  0.00  0.00    +0.002 A 
ATOM     36  C   UNL     1      -2.778   4.632  -0.867  0.00  0.00    +0.020 A 
ATOM     37  C   UNL     1      -2.646   4.701  -2.243  0.00  0.00    +0.044 A 
ATOM     38 CL   UNL     1      -3.348   6.026  -3.118  0.00  0.00    -0.083 Cl
ENDBRANCH  30  33
ENDBRANCH  26  30
ENDBRANCH   1  27
TORSDOF 5
