REMARK  Name = ZINC23351853
REMARK  7 active torsions:
REMARK  status: ('A' for Active; 'I' for Inactive)
REMARK    1  A    between atoms: C_1  and  C_2
REMARK    2  A    between atoms: C_2  and  C_4
REMARK    3  A    between atoms: C_2  and  N_18
REMARK    4  A    between atoms: N_10  and  C_11
REMARK    5  A    between atoms: N_21  and  C_24
REMARK    6  A    between atoms: C_24  and  C_25
REMARK    7  A    between atoms: C_28  and  C_30
REMARK                            x       y       z     vdW  Elec       q    Type
REMARK                         _______ _______ _______ _____ _____    ______ ____
ROOT
ATOM      1  C   UNL     1       5.335   0.851   1.679  0.00  0.00    -0.005 C 
ATOM      2  C   UNL     1       4.776   0.752   0.259  0.00  0.00    -0.002 C 
ENDROOT
BRANCH   2   3
ATOM      3  C   UNL     1       3.499   1.546   0.164  0.00  0.00    +0.123 A 
ATOM      4  N   UNL     1       3.546   2.866   0.118  0.00  0.00    -0.201 NA
ATOM      5  C   UNL     1       2.420   3.572   0.035  0.00  0.00    +0.217 A 
ATOM      6  N   UNL     1       1.248   2.947  -0.002  0.00  0.00    -0.181 NA
ATOM      7  C   UNL     1       1.205   1.620   0.045  0.00  0.00    +0.224 A 
ATOM      8  N   UNL     1       2.335   0.922   0.134  0.00  0.00    -0.201 NA
ATOM      9  N   UNL     1      -0.011   0.966   0.007  0.00  0.00    -0.284 N 
ATOM     10  N   UNL     1       2.470   4.950  -0.014  0.00  0.00    -0.327 N 
ATOM     11  H   UNL     1      -0.053  -0.126   0.139  0.00  0.00    +0.155 HD
ATOM     12  H   UNL     1       1.540   5.532  -0.083  0.00  0.00    +0.145 HD
ATOM     13  H   UNL     1       3.441   5.466   0.016  0.00  0.00    +0.145 HD
BRANCH   9  14
ATOM     14  C   UNL     1      -1.189   1.691  -0.198  0.00  0.00    +0.034 A 
ATOM     15  C   UNL     1      -2.354   1.328   0.465  0.00  0.00    +0.023 A 
ATOM     16  C   UNL     1      -3.514   2.050   0.264  0.00  0.00    +0.002 A 
ATOM     17  C   UNL     1      -3.520   3.126  -0.605  0.00  0.00    +0.000 A 
ATOM     18  C   UNL     1      -2.362   3.486  -1.272  0.00  0.00    +0.002 A 
ATOM     19  C   UNL     1      -1.198   2.772  -1.071  0.00  0.00    +0.023 A 
ENDBRANCH   9  14
ENDBRANCH   2   3
BRANCH   2  20
ATOM     20  N   UNL     1       5.758   1.289  -0.693  0.00  0.00    +0.388 N 
ATOM     21  C   UNL     1       5.220   1.293  -2.060  0.00  0.00    -0.062 C 
ATOM     22  C   UNL     1       6.240   1.931  -3.006  0.00  0.00    +0.066 C 
ATOM     23  N   UNL     1       7.501   1.179  -2.941  0.00  0.00    -0.300 NA
ATOM     24  C   UNL     1       8.039   1.175  -1.574  0.00  0.00    +0.066 C 
ATOM     25  C   UNL     1       7.019   0.537  -0.629  0.00  0.00    -0.062 C 
ATOM     26  H   UNL     1       5.969   2.330  -0.408  0.00  0.00    -0.081 HD
BRANCH  23  27
ATOM     27  C   UNL     1       8.483   1.716  -3.893  0.00  0.00    +0.140 C 
BRANCH  27  28
ATOM     28  C   UNL     1       8.000   1.480  -5.300  0.00  0.00    +0.063 A 
ATOM     29  C   UNL     1       7.315   2.454  -5.958  0.00  0.00    +0.071 A 
ATOM     30  S   UNL     1       7.011   1.644  -7.523  0.00  0.00    -0.075 S 
ATOM     31  C   UNL     1       7.826   0.102  -7.132  0.00  0.00    +0.109 A 
ATOM     32  N   UNL     1       8.244   0.337  -5.896  0.00  0.00    -0.243 NA
BRANCH  31  33
ATOM     33  C   UNL     1       7.994  -1.109  -7.965  0.00  0.00    +0.007 A 
ATOM     34  C   UNL     1       8.679  -2.216  -7.463  0.00  0.00    +0.010 A 
ATOM     35  C   UNL     1       8.828  -3.343  -8.243  0.00  0.00    +0.001 A 
ATOM     36  C   UNL     1       8.311  -3.374  -9.526  0.00  0.00    +0.000 A 
ATOM     37  C   UNL     1       7.635  -2.278 -10.032  0.00  0.00    +0.001 A 
ATOM     38  C   UNL     1       7.474  -1.146  -9.259  0.00  0.00    +0.010 A 
ENDBRANCH  31  33
ENDBRANCH  27  28
ENDBRANCH  23  27
ENDBRANCH   2  20
TORSDOF 6
