REMARK  Name = ZINC22841137
REMARK  7 active torsions:
REMARK  status: ('A' for Active; 'I' for Inactive)
REMARK    1  A    between atoms: C_1  and  C_2
REMARK    2  A    between atoms: C_5  and  C_8
REMARK    3  A    between atoms: C_10  and  C_13
REMARK    4  A    between atoms: C_13  and  N_14
REMARK    5  A    between atoms: N_17  and  C_20
REMARK    6  A    between atoms: C_20  and  C_21
REMARK    7  A    between atoms: C_30  and  C_32
REMARK                            x       y       z     vdW  Elec       q    Type
REMARK                         _______ _______ _______ _____ _____    ______ ____
ROOT
ATOM      1  N   UNL     1      -0.701   1.560   1.216  0.00  0.00    -0.297 NA
ATOM      2  C   UNL     1      -0.013   1.086   0.008  0.00  0.00    +0.066 C 
ATOM      3  C   UNL     1      -0.754   1.593  -1.231  0.00  0.00    -0.063 C 
ATOM      4  N   UNL     1      -0.806   3.062  -1.200  0.00  0.00    +0.384 N 
ATOM      5  C   UNL     1      -1.495   3.536   0.008  0.00  0.00    -0.063 C 
ATOM      6  C   UNL     1      -0.754   3.029   1.247  0.00  0.00    +0.066 C 
ATOM      7  H   UNL     1       0.227   3.438  -1.172  0.00  0.00    -0.081 HD
ENDROOT
BRANCH   1   8
ATOM      8  C   UNL     1      -0.062   1.031   2.429  0.00  0.00    +0.183 C 
BRANCH   8  11
ATOM      9  C   UNL     1      -1.808   2.261   5.320  0.00  0.00    +0.202 A 
ATOM     10  N   UNL     1      -1.673   1.343   4.337  0.00  0.00    -0.190 NA
ATOM     11  C   UNL     1      -0.631   1.724   3.640  0.00  0.00    +0.242 A 
ATOM     12  O   UNL     1      -0.164   2.840   4.208  0.00  0.00    -0.336 OA
ATOM     13  N   UNL     1      -0.850   3.138   5.163  0.00  0.00    -0.056 NA
BRANCH   9  18
ATOM     14  C   UNL     1      -5.850   2.309   9.422  0.00  0.00    +0.044 C 
ATOM     15  C   UNL     1      -4.792   2.296   8.349  0.00  0.00    -0.050 A 
ATOM     16  C   UNL     1      -3.837   3.296   8.312  0.00  0.00    +0.004 A 
ATOM     17  C   UNL     1      -2.866   3.289   7.331  0.00  0.00    +0.012 A 
ATOM     18  C   UNL     1      -2.849   2.273   6.377  0.00  0.00    +0.022 A 
ATOM     19  C   UNL     1      -3.817   1.272   6.417  0.00  0.00    +0.012 A 
ATOM     20  C   UNL     1      -4.781   1.286   7.405  0.00  0.00    +0.004 A 
ENDBRANCH   9  18
ENDBRANCH   8  11
ENDBRANCH   1   8
BRANCH   4  21
ATOM     21  C   UNL     1      -1.445   3.591  -2.413  0.00  0.00    -0.042 C 
BRANCH  21  22
ATOM     22  C   UNL     1      -1.263   5.086  -2.464  0.00  0.00    -0.046 A 
ATOM     23  C   UNL     1      -2.264   5.923  -2.091  0.00  0.00    +0.094 A 
ATOM     24  C   UNL     1      -2.067   7.320  -2.146  0.00  0.00    +0.337 A 
ATOM     25  O   UNL     1      -2.972   8.060  -1.804  0.00  0.00    -0.245 OA
ATOM     26  O   UNL     1      -0.910   7.853  -2.567  0.00  0.00    -0.422 OA
ATOM     27  C   UNL     1       0.124   7.076  -2.957  0.00  0.00    +0.140 A 
ATOM     28  C   UNL     1      -0.002   5.676  -2.925  0.00  0.00    +0.020 A 
ATOM     29  C   UNL     1       1.065   4.870  -3.329  0.00  0.00    +0.032 A 
ATOM     30  C   UNL     1       2.237   5.455  -3.757  0.00  0.00    +0.045 A 
ATOM     31  C   UNL     1       2.359   6.838  -3.789  0.00  0.00    -0.029 A 
ATOM     32  C   UNL     1       1.313   7.645  -3.393  0.00  0.00    +0.051 A 
ATOM     33  C   UNL     1       3.647   7.463  -4.260  0.00  0.00    +0.045 C 
ATOM     34 CL   UNL     1       3.567   4.459  -4.261  0.00  0.00    -0.083 Cl
ENDBRANCH  21  22
ENDBRANCH   4  21
TORSDOF 5
