REMARK  Name = ZINC39326691
REMARK  11 active torsions:
REMARK  status: ('A' for Active; 'I' for Inactive)
REMARK    1  A    between atoms: C_1  and  C_2
REMARK    2  A    between atoms: C_2  and  O_3
REMARK    3  A    between atoms: O_3  and  C_4
REMARK    4  A    between atoms: C_7  and  C_10
REMARK    5  A    between atoms: C_18  and  N_33
REMARK    6  A    between atoms: C_19  and  C_31
REMARK    7  A    between atoms: C_20  and  C_22
REMARK    8  A    between atoms: C_25  and  O_28
REMARK    9  A    between atoms: O_28  and  C_29
REMARK   10  A    between atoms: C_29  and  C_30
REMARK   11  A    between atoms: C_34  and  C_36
REMARK                            x       y       z     vdW  Elec       q    Type
REMARK                         _______ _______ _______ _____ _____    ______ ____
ROOT
ATOM      1  C   UNL     1      -2.023  -6.052  -0.059  0.00  0.00    +0.016 C 
ATOM      2  C   UNL     1      -3.252  -6.586   0.060  0.00  0.00    +0.013 C 
ATOM      3  C   UNL     1      -4.481  -5.703   0.084  0.00  0.00    +0.147 C 
ATOM      4  N   UNL     1      -5.404  -6.310   1.062  0.00  0.00    -0.293 N 
ATOM      5  C   UNL     1      -5.804  -7.703   0.845  0.00  0.00    +0.143 C 
ATOM      6  C   UNL     1      -4.605  -8.566   0.539  0.00  0.00    +0.003 C 
ATOM      7  C   UNL     1      -3.435  -8.047   0.164  0.00  0.00    +0.136 C 
ATOM      8  O   UNL     1      -2.369  -8.836  -0.128  0.00  0.00    -0.441 OA
ATOM      9  C   UNL     1      -2.552 -10.124  -0.462  0.00  0.00    +0.199 C 
ATOM     10  C   UNL     1      -3.691 -10.775  -0.114  0.00  0.00    +0.098 C 
ATOM     11  C   UNL     1      -4.771 -10.063   0.663  0.00  0.00    +0.095 C 
ATOM     12  C   UNL     1      -5.863  -5.609   2.117  0.00  0.00    +0.213 C 
ATOM     13  O   UNL     1      -5.581  -4.435   2.234  0.00  0.00    -0.276 OA
ATOM     14  C   UNL     1      -6.727  -6.283   3.152  0.00  0.00    +0.109 C 
ENDROOT
BRANCH   1  18
ATOM     15  C   UNL     1      -1.577  -1.911  -0.872  0.00  0.00    +0.121 A 
ATOM     16  C   UNL     1      -0.696  -2.545  -0.004  0.00  0.00    +0.046 A 
ATOM     17  C   UNL     1      -0.837  -3.889   0.263  0.00  0.00    +0.011 A 
ATOM     18  C   UNL     1      -1.868  -4.615  -0.341  0.00  0.00    -0.024 A 
ATOM     19  C   UNL     1      -2.752  -3.972  -1.213  0.00  0.00    +0.011 A 
ATOM     20  C   UNL     1      -2.606  -2.626  -1.470  0.00  0.00    +0.046 A 
BRANCH  15  21
ATOM     21  O   UNL     1      -1.434  -0.585  -1.132  0.00  0.00    -0.492 OA
BRANCH  21  23
ATOM     22  C   UNL     1      -0.354   1.564  -0.895  0.00  0.00    +0.048 C 
ATOM     23  C   UNL     1      -0.354   0.091  -0.483  0.00  0.00    +0.225 C 
ENDBRANCH  21  23
ENDBRANCH  15  21
ENDBRANCH   1  18
BRANCH  11  24
ATOM     24  C   UNL     1      -4.699 -10.453   2.117  0.00  0.00    -0.035 A 
ATOM     25  C   UNL     1      -3.561 -10.173   2.852  0.00  0.00    +0.008 A 
ATOM     26  C   UNL     1      -3.493 -10.530   4.184  0.00  0.00    +0.046 A 
ATOM     27  C   UNL     1      -4.567 -11.169   4.786  0.00  0.00    +0.121 A 
ATOM     28  C   UNL     1      -5.707 -11.449   4.047  0.00  0.00    +0.046 A 
ATOM     29  C   UNL     1      -5.773 -11.086   2.716  0.00  0.00    +0.008 A 
BRANCH  27  30
ATOM     30  O   UNL     1      -4.502 -11.522   6.097  0.00  0.00    -0.492 OA
BRANCH  30  31
ATOM     31  C   UNL     1      -5.645 -12.178   6.650  0.00  0.00    +0.225 C 
ATOM     32  C   UNL     1      -5.387 -12.494   8.124  0.00  0.00    +0.048 C 
ENDBRANCH  30  31
ENDBRANCH  27  30
ENDBRANCH  11  24
BRANCH   9  33
ATOM     33  N   UNL     1      -1.577 -10.790  -1.162  0.00  0.00    -0.328 N 
ATOM     34  H   UNL     1      -0.761 -10.329  -1.414  0.00  0.00    +0.145 HD
ATOM     35  H   UNL     1      -1.704 -11.720  -1.406  0.00  0.00    +0.145 HD
ENDBRANCH   9  33
BRANCH  10  36
ATOM     36  C   UNL     1      -3.864 -12.149  -0.479  0.00  0.00    +0.101 C 
ATOM     37  N   UNL     1      -4.001 -13.239  -0.769  0.00  0.00    -0.191 NA
ENDBRANCH  10  36
TORSDOF 8
