REMARK  Name = ZINC01960457
REMARK  7 active torsions:
REMARK  status: ('A' for Active; 'I' for Inactive)
REMARK    1  A    between atoms: C_1  and  C_2
REMARK    2  A    between atoms: C_7  and  N_8
REMARK    3  A    between atoms: C_9  and  C_11
REMARK    4  A    between atoms: C_11  and  C_12
REMARK    5  A    between atoms: C_12  and  C_13
REMARK    6  A    between atoms: N_15  and  N_16
REMARK    7  A    between atoms: C_17  and  C_18
REMARK                            x       y       z     vdW  Elec       q    Type
REMARK                         _______ _______ _______ _____ _____    ______ ____
ROOT
ATOM      1  C   UNL     1       2.457   1.002  -0.033  0.00  0.00    +0.107 C 
ENDROOT
BRANCH   1   2
ATOM      2  C   UNL     1       3.751   1.774  -0.053  0.00  0.00    +0.233 C 
ATOM      3  O   UNL     1       3.734   2.987  -0.053  0.00  0.00    -0.274 OA
ATOM      4  N   UNL     1       4.927   1.116  -0.071  0.00  0.00    -0.207 N 
ATOM      5  H   UNL     1       4.941   0.146  -0.071  0.00  0.00    +0.177 HD
BRANCH   4   6
ATOM      6  N   UNL     1       6.131   1.833  -0.089  0.00  0.00    -0.188 NA
ATOM      7  C   UNL     1       7.263   1.200  -0.107  0.00  0.00    +0.138 C 
BRANCH   7   8
ATOM      8  C   UNL     1       8.530   1.955  -0.126  0.00  0.00    -0.005 A 
ATOM      9  C   UNL     1       8.514   3.352  -0.132  0.00  0.00    +0.010 A 
ATOM     10  C   UNL     1       9.702   4.052  -0.146  0.00  0.00    +0.016 A 
ATOM     11  C   UNL     1      10.909   3.373  -0.164  0.00  0.00    +0.018 A 
ATOM     12  C   UNL     1      10.932   1.989  -0.164  0.00  0.00    +0.016 A 
ATOM     13  C   UNL     1       9.751   1.276  -0.145  0.00  0.00    +0.010 A 
ATOM     14 BR   UNL     1      12.533   4.341  -0.191  0.00  0.00    -0.050 Br
ENDBRANCH   7   8
ENDBRANCH   4   6
ENDBRANCH   1   2
BRANCH   1  15
ATOM     15  C   UNL     1       1.280   1.980  -0.015  0.00  0.00    +0.105 C 
BRANCH  15  17
ATOM     16  N   UNL     1      -1.191   1.867   0.018  0.00  0.00    -0.285 N 
ATOM     17  C   UNL     1      -0.014   1.209   0.005  0.00  0.00    +0.218 C 
ATOM     18  O   UNL     1       0.003  -0.004   0.005  0.00  0.00    -0.275 OA
ATOM     19  H   UNL     1      -1.205   2.833   0.099  0.00  0.00    +0.155 HD
BRANCH  16  26
ATOM     20  C   UNL     1      -3.546   3.040   1.100  0.00  0.00    +0.046 C 
ATOM     21  C   UNL     1      -3.564   1.691   0.428  0.00  0.00    -0.028 A 
ATOM     22  C   UNL     1      -4.748   0.989   0.320  0.00  0.00    +0.019 A 
ATOM     23  C   UNL     1      -4.765  -0.252  -0.290  0.00  0.00    +0.014 A 
ATOM     24  C   UNL     1      -3.597  -0.791  -0.799  0.00  0.00    +0.016 A 
ATOM     25  C   UNL     1      -2.411  -0.091  -0.699  0.00  0.00    +0.024 A 
ATOM     26  C   UNL     1      -2.391   1.155  -0.086  0.00  0.00    +0.036 A 
ATOM     27  I   UNL     1      -6.562  -1.318  -0.444  0.00  0.00    -0.044 I 
ENDBRANCH  16  26
ENDBRANCH  15  17
ENDBRANCH   1  15
TORSDOF 6
