REMARK  Name = ZINC22471646
REMARK  8 active torsions:
REMARK  status: ('A' for Active; 'I' for Inactive)
REMARK    1  A    between atoms: C_1  and  C_2
REMARK    2  A    between atoms: C_3  and  C_16
REMARK    3  A    between atoms: C_5  and  C_7
REMARK    4  A    between atoms: C_7  and  O_8
REMARK    5  A    between atoms: O_8  and  C_9
REMARK    6  A    between atoms: C_16  and  N_18
REMARK    7  A    between atoms: N_25  and  C_28
REMARK    8  A    between atoms: C_28  and  C_29
REMARK                            x       y       z     vdW  Elec       q    Type
REMARK                         _______ _______ _______ _____ _____    ______ ____
ROOT
ATOM      1  N   UNL     1       2.839   6.214  -7.327  0.00  0.00    -0.152 NA
ATOM      2  C   UNL     1       2.776   5.838  -5.991  0.00  0.00    +0.164 A 
ATOM      3  N   UNL     1       3.759   5.681  -5.128  0.00  0.00    -0.339 N 
ATOM      4  C   UNL     1       3.542   5.313  -3.870  0.00  0.00    +0.024 A 
ATOM      5  C   UNL     1       2.243   5.107  -3.523  0.00  0.00    -0.004 A 
ATOM      6  S   UNL     1       1.379   5.454  -5.029  0.00  0.00    -0.059 S 
ATOM      7  C   UNL     1       1.722   4.690  -2.190  0.00  0.00    -0.033 C 
ATOM      8  N   UNL     1       2.859   4.194  -1.388  0.00  0.00    +0.386 N 
ATOM      9  C   UNL     1       3.982   5.141  -1.440  0.00  0.00    -0.072 C 
ATOM     10  C   UNL     1       4.635   5.116  -2.825  0.00  0.00    +0.035 C 
ATOM     11  H   UNL     1       4.799   5.855  -5.441  0.00  0.00    +0.167 HD
ATOM     12  H   UNL     1       3.198   3.240  -1.818  0.00  0.00    -0.081 HD
ENDROOT
BRANCH   1  13
ATOM     13  C   UNL     1       4.032   6.473  -7.898  0.00  0.00    +0.278 C 
ATOM     14  O   UNL     1       5.053   6.378  -7.244  0.00  0.00    -0.267 OA
BRANCH  13  17
ATOM     15  C   UNL     1       6.586   7.150  -9.511  0.00  0.00    +0.067 C 
ATOM     16  C   UNL     1       5.192   7.184 -10.084  0.00  0.00    +0.058 A 
ATOM     17  C   UNL     1       4.098   6.870  -9.308  0.00  0.00    +0.099 A 
ATOM     18  S   UNL     1       2.782   7.090 -10.497  0.00  0.00    -0.064 S 
ATOM     19  C   UNL     1       3.773   7.548 -11.847  0.00  0.00    +0.117 A 
ATOM     20  N   UNL     1       4.986   7.507 -11.335  0.00  0.00    -0.245 NA
BRANCH  19  21
ATOM     21  C   UNL     1       3.352   7.903 -13.250  0.00  0.00    +0.291 C 
BRANCH  21  22
ATOM     22  O   UNL     1       3.328   6.721 -14.053  0.00  0.00    -0.485 OA
BRANCH  22  23
ATOM     23  C   UNL     1       2.966   6.867 -15.355  0.00  0.00    +0.121 A 
ATOM     24  C   UNL     1       2.636   8.121 -15.848  0.00  0.00    +0.048 A 
ATOM     25  C   UNL     1       2.274   8.270 -17.173  0.00  0.00    +0.042 A 
ATOM     26  C   UNL     1       2.229   7.165 -18.006  0.00  0.00    +0.124 A 
ATOM     27  C   UNL     1       2.553   5.912 -17.515  0.00  0.00    +0.042 A 
ATOM     28  C   UNL     1       2.921   5.761 -16.192  0.00  0.00    +0.048 A 
ATOM     29  F   UNL     1       1.871   7.311 -19.301  0.00  0.00    -0.205 F 
ENDBRANCH  22  23
ENDBRANCH  21  22
ENDBRANCH  19  21
ENDBRANCH  13  17
ENDBRANCH   1  13
BRANCH   8  30
ATOM     30  C   UNL     1       2.451   3.937  -0.001  0.00  0.00    -0.043 C 
BRANCH  30  31
ATOM     31  C   UNL     1       1.156   3.165   0.008  0.00  0.00    -0.064 A 
ATOM     32  C   UNL     1       1.175   1.783   0.000  0.00  0.00    +0.002 A 
ATOM     33  C   UNL     1      -0.013   1.076   0.008  0.00  0.00    +0.000 A 
ATOM     34  C   UNL     1      -1.219   1.751   0.017  0.00  0.00    +0.000 A 
ATOM     35  C   UNL     1      -1.238   3.133   0.030  0.00  0.00    +0.000 A 
ATOM     36  C   UNL     1      -0.050   3.840   0.023  0.00  0.00    +0.002 A 
ENDBRANCH  30  31
ENDBRANCH   8  30
TORSDOF 7
