REMARK  Name = ZINC12790824
REMARK  14 active torsions:
REMARK  status: ('A' for Active; 'I' for Inactive)
REMARK    1  A    between atoms: C_1  and  C_2
REMARK    2  A    between atoms: C_3  and  C_36
REMARK    3  A    between atoms: N_4  and  C_29
REMARK    4  A    between atoms: C_5  and  N_9
REMARK    5  A    between atoms: C_6  and  C_7
REMARK    6  A    between atoms: C_10  and  C_12
REMARK    7  A    between atoms: C_12  and  O_13
REMARK    8  A    between atoms: O_13  and  C_14
REMARK    9  A    between atoms: C_14  and  C_16
REMARK   10  A    between atoms: C_16  and  C_17
REMARK   11  A    between atoms: C_17  and  C_18
REMARK   12  A    between atoms: C_17  and  C_24
REMARK   13  A    between atoms: C_17  and  O_28
REMARK   14  A    between atoms: C_29  and  C_30
REMARK                            x       y       z     vdW  Elec       q    Type
REMARK                         _______ _______ _______ _____ _____    ______ ____
ROOT
ATOM      1  N   UNL     1       0.894   1.195  -0.032  0.00  0.00    -0.268 N 
ATOM      2  C   UNL     1       2.043   1.761  -0.452  0.00  0.00    +0.256 C 
ATOM      3  O   UNL     1       2.940   1.067  -0.881  0.00  0.00    -0.272 OA
ATOM      4  H   UNL     1       0.147   1.754   0.231  0.00  0.00    +0.156 HD
ENDROOT
BRANCH   1   9
ATOM      5  C   UNL     1       1.916  -3.738   0.363  0.00  0.00    +0.047 C 
ATOM      6  C   UNL     1       1.206  -2.420   0.191  0.00  0.00    -0.011 A 
ATOM      7  C   UNL     1      -0.108  -2.238  -0.019  0.00  0.00    +0.022 A 
ATOM      8  N   UNL     1      -0.369  -0.898  -0.118  0.00  0.00    -0.327 N 
ATOM      9  C   UNL     1       0.779  -0.186   0.017  0.00  0.00    +0.124 A 
ATOM     10  C   UNL     1       1.817  -1.085   0.220  0.00  0.00    +0.095 A 
ATOM     11  C   UNL     1      -1.134  -3.337  -0.123  0.00  0.00    +0.064 C 
BRANCH  10  12
ATOM     12  C   UNL     1       3.201  -0.775   0.416  0.00  0.00    +0.103 C 
ATOM     13  N   UNL     1       4.299  -0.528   0.572  0.00  0.00    -0.191 NA
ENDBRANCH  10  12
BRANCH   8  14
ATOM     14  C   UNL     1      -1.695  -0.316  -0.341  0.00  0.00    +0.158 C 
BRANCH  14  15
ATOM     15  C   UNL     1      -2.364  -0.067   0.986  0.00  0.00    -0.028 A 
ATOM     16  C   UNL     1      -3.182  -1.033   1.541  0.00  0.00    +0.005 A 
ATOM     17  C   UNL     1      -3.791  -0.806   2.760  0.00  0.00    +0.000 A 
ATOM     18  C   UNL     1      -3.591   0.392   3.420  0.00  0.00    +0.000 A 
ATOM     19  C   UNL     1      -2.778   1.361   2.863  0.00  0.00    +0.000 A 
ATOM     20  C   UNL     1      -2.164   1.131   1.646  0.00  0.00    +0.005 A 
ENDBRANCH  14  15
ENDBRANCH   8  14
ENDBRANCH   1   9
BRANCH   2  21
ATOM     21  C   UNL     1       2.214   3.257  -0.387  0.00  0.00    +0.328 C 
BRANCH  21  22
ATOM     22  O   UNL     1       3.527   3.617  -0.892  0.00  0.00    -0.455 OA
BRANCH  22  23
ATOM     23  C   UNL     1       3.839   4.922  -0.902  0.00  0.00    +0.311 C 
ATOM     24  O   UNL     1       3.042   5.737  -0.502  0.00  0.00    -0.251 OA
BRANCH  23  25
ATOM     25  C   UNL     1       5.184   5.371  -1.412  0.00  0.00    +0.169 C 
BRANCH  25  26
ATOM     26  C   UNL     1       5.325   6.882  -1.218  0.00  0.00    +0.196 C 
BRANCH  26  27
ATOM     27  C   UNL     1       4.216   7.589  -1.953  0.00  0.00    -0.007 A 
ATOM     28  C   UNL     1       3.683   7.033  -3.101  0.00  0.00    +0.007 A 
ATOM     29  C   UNL     1       2.663   7.679  -3.773  0.00  0.00    +0.000 A 
ATOM     30  C   UNL     1       2.180   8.886  -3.302  0.00  0.00    +0.000 A 
ATOM     31  C   UNL     1       2.716   9.445  -2.157  0.00  0.00    +0.000 A 
ATOM     32  C   UNL     1       3.734   8.796  -1.482  0.00  0.00    +0.007 A 
ENDBRANCH  26  27
BRANCH  26  33
ATOM     33  C   UNL     1       6.676   7.343  -1.768  0.00  0.00    +0.423 C 
ATOM     34  F   UNL     1       6.714   7.132  -3.150  0.00  0.00    -0.167 F 
ATOM     35  F   UNL     1       6.848   8.706  -1.500  0.00  0.00    -0.167 F 
ATOM     36  F   UNL     1       7.702   6.615  -1.156  0.00  0.00    -0.167 F 
ENDBRANCH  26  33
BRANCH  26  37
ATOM     37  O   UNL     1       5.247   7.192   0.175  0.00  0.00    -0.375 OA
ATOM     38  H   UNL     1       4.415   6.928   0.591  0.00  0.00    +0.211 HD
ENDBRANCH  26  37
ENDBRANCH  25  26
ENDBRANCH  23  25
ENDBRANCH  22  23
ENDBRANCH  21  22
ENDBRANCH   2  21
TORSDOF 12
