REMARK  Name = ZINC59019832
REMARK  6 active torsions:
REMARK  status: ('A' for Active; 'I' for Inactive)
REMARK    1  A    between atoms: C_3  and  C_8
REMARK    2  A    between atoms: N_9  and  N_10
REMARK    3  A    between atoms: C_13  and  S_16
REMARK    4  A    between atoms: S_16  and  C_17
REMARK    5  A    between atoms: C_17  and  C_18
REMARK    6  A    between atoms: N_20  and  C_21
REMARK                            x       y       z     vdW  Elec       q    Type
REMARK                         _______ _______ _______ _____ _____    ______ ____
ROOT
ATOM      1  N   UNL     1       5.991   2.239  -0.069  0.00  0.00    -0.205 N 
ATOM      2  C   UNL     1       7.197   1.562  -0.082  0.00  0.00    +0.232 A 
ATOM      3  N   UNL     1       7.349   0.254  -0.086  0.00  0.00    -0.186 NA
ATOM      4  C   UNL     1       8.652  -0.046  -0.098  0.00  0.00    +0.211 A 
ATOM      5  N   UNL     1       9.347   1.067  -0.101  0.00  0.00    -0.144 NA
ATOM      6  N   UNL     1       8.424   2.125  -0.097  0.00  0.00    -0.245 N 
ATOM      7  H   UNL     1       5.980   3.209  -0.071  0.00  0.00    +0.177 HD
ATOM      8  H   UNL     1       8.627   3.073  -0.101  0.00  0.00    +0.192 HD
ENDROOT
BRANCH   1  10
ATOM      9  C   UNL     1       3.655   2.161  -0.043  0.00  0.00    +0.138 C 
ATOM     10  N   UNL     1       4.786   1.525  -0.054  0.00  0.00    -0.188 NA
BRANCH   9  13
ATOM     11  C   UNL     1      -0.016   1.381   0.000  0.00  0.00    +0.002 A 
ATOM     12  C   UNL     1       1.167   2.090  -0.014  0.00  0.00    +0.009 A 
ATOM     13  C   UNL     1       2.386   1.409  -0.027  0.00  0.00    -0.004 A 
ATOM     14  C   UNL     1       2.399   0.012  -0.024  0.00  0.00    +0.029 A 
ATOM     15  C   UNL     1       1.208  -0.685  -0.009  0.00  0.00    +0.042 A 
ATOM     16  C   UNL     1       0.002  -0.002   0.003  0.00  0.00    +0.020 A 
ATOM     17 CL   UNL     1       1.220  -2.421  -0.006  0.00  0.00    -0.084 Cl
ENDBRANCH   9  13
ENDBRANCH   1  10
BRANCH   4  18
ATOM     18  S   UNL     1       9.328  -1.674  -0.107  0.00  0.00    -0.075 S 
BRANCH  18  19
ATOM     19  C   UNL     1      11.121  -1.405  -0.123  0.00  0.00    +0.173 C 
BRANCH  19  20
ATOM     20  C   UNL     1      11.829  -2.736  -0.132  0.00  0.00    +0.227 C 
ATOM     21  O   UNL     1      11.186  -3.764  -0.128  0.00  0.00    -0.275 OA
ATOM     22  N   UNL     1      13.176  -2.782  -0.143  0.00  0.00    -0.285 N 
ATOM     23  H   UNL     1      13.689  -1.962  -0.214  0.00  0.00    +0.155 HD
BRANCH  22  24
ATOM     24  C   UNL     1      13.834  -4.014  -0.054  0.00  0.00    +0.036 A 
ATOM     25  C   UNL     1      15.034  -4.113   0.638  0.00  0.00    +0.043 A 
ATOM     26  C   UNL     1      15.682  -5.331   0.725  0.00  0.00    +0.044 A 
ATOM     27  C   UNL     1      15.135  -6.451   0.123  0.00  0.00    +0.040 A 
ATOM     28  C   UNL     1      13.940  -6.355  -0.567  0.00  0.00    +0.044 A 
ATOM     29  C   UNL     1      13.285  -5.141  -0.652  0.00  0.00    +0.043 A 
ATOM     30 CL   UNL     1      13.258  -7.763  -1.320  0.00  0.00    -0.083 Cl
ATOM     31 CL   UNL     1      17.182  -5.455   1.589  0.00  0.00    -0.083 Cl
ENDBRANCH  22  24
ENDBRANCH  19  20
ENDBRANCH  18  19
ENDBRANCH   4  18
TORSDOF 6
