REMARK  Name = ZINC15316695
REMARK  9 active torsions:
REMARK  status: ('A' for Active; 'I' for Inactive)
REMARK    1  A    between atoms: C_1  and  C_2
REMARK    2  A    between atoms: C_2  and  N_3
REMARK    3  A    between atoms: N_3  and  C_4
REMARK    4  A    between atoms: C_7  and  C_13
REMARK    5  A    between atoms: C_9  and  N_10
REMARK    6  A    between atoms: N_15  and  C_16
REMARK    7  A    between atoms: C_18  and  S_23
REMARK    8  A    between atoms: C_21  and  C_22
REMARK    9  A    between atoms: S_23  and  N_26
REMARK                            x       y       z     vdW  Elec       q    Type
REMARK                         _______ _______ _______ _____ _____    ______ ____
ROOT
ATOM      1  C   UNL     1       6.234   1.304  -2.654  0.00  0.00    +0.248 C 
ATOM      2  O   UNL     1       5.416   1.663  -1.830  0.00  0.00    -0.270 OA
ATOM      3  N   UNL     1       6.374  -0.006  -2.939  0.00  0.00    -0.281 N 
ATOM      4  H   UNL     1       7.068  -0.298  -3.551  0.00  0.00    +0.155 HD
ENDROOT
BRANCH   3   5
ATOM      5  C   UNL     1       5.518  -0.944  -2.353  0.00  0.00    +0.038 A 
ATOM      6  C   UNL     1       5.056  -0.751  -1.058  0.00  0.00    +0.052 A 
ATOM      7  C   UNL     1       4.210  -1.679  -0.482  0.00  0.00    +0.107 A 
ATOM      8  C   UNL     1       3.828  -2.802  -1.193  0.00  0.00    +0.029 A 
ATOM      9  C   UNL     1       4.281  -2.994  -2.485  0.00  0.00    +0.007 A 
ATOM     10  C   UNL     1       5.127  -2.070  -3.066  0.00  0.00    -0.029 A 
ATOM     11  C   UNL     1       5.626  -2.284  -4.472  0.00  0.00    +0.045 C 
BRANCH   7  12
ATOM     12  S   UNL     1       3.624  -1.435   1.162  0.00  0.00    +0.061 S 
ATOM     13  O   UNL     1       4.566  -0.589   1.807  0.00  0.00    -0.153 OA
ATOM     14  O   UNL     1       3.283  -2.719   1.665  0.00  0.00    -0.153 OA
BRANCH  12  15
ATOM     15  N   UNL     1       2.212  -0.578   1.056  0.00  0.00    -0.177 NA
ATOM     16  C   UNL     1       0.922  -1.271   0.936  0.00  0.00    +0.109 C 
ATOM     17  C   UNL     1       0.182  -0.728  -0.290  0.00  0.00    +0.017 C 
ATOM     18  C   UNL     1       0.069   0.794  -0.179  0.00  0.00    +0.003 C 
ATOM     19  C   UNL     1       1.469   1.411  -0.148  0.00  0.00    +0.017 C 
ATOM     20  C   UNL     1       2.224   0.891   1.079  0.00  0.00    +0.109 C 
ENDBRANCH  12  15
ENDBRANCH   7  12
ENDBRANCH   3   5
BRANCH   1  24
ATOM     21  C   UNL     1       8.653   4.177  -4.635  0.00  0.00    +0.058 A 
ATOM     22  C   UNL     1       8.799   2.824  -4.931  0.00  0.00    +0.026 A 
ATOM     23  C   UNL     1       8.020   1.890  -4.286  0.00  0.00    +0.015 A 
ATOM     24  C   UNL     1       7.075   2.302  -3.342  0.00  0.00    +0.039 A 
ATOM     25  C   UNL     1       6.931   3.661  -3.047  0.00  0.00    +0.047 A 
ATOM     26  C   UNL     1       7.717   4.590  -3.691  0.00  0.00    +0.148 A 
BRANCH  26  27
ATOM     27  N   UNL     1       7.566   6.029  -3.380  0.00  0.00    +0.058 N 
ATOM     28  O   UNL     1       6.822   6.383  -2.483  0.00  0.00    -0.126 OA
ATOM     29  O   UNL     1       8.184   6.859  -4.022  0.00  0.00    -0.126 OA
ENDBRANCH  26  27
BRANCH  21  30
ATOM     30  N   UNL     1       9.445   5.118  -5.284  0.00  0.00    -0.342 N 
ATOM     31  H   UNL     1       9.291   6.064  -5.138  0.00  0.00    +0.146 HD
BRANCH  30  33
ATOM     32  C   UNL     1      11.226   5.903  -6.766  0.00  0.00    +0.024 C 
ATOM     33  C   UNL     1      10.512   4.679  -6.187  0.00  0.00    +0.098 C 
ENDBRANCH  30  33
ENDBRANCH  21  30
ENDBRANCH   1  24
TORSDOF 7
