REMARK  Name = ZINC36555339
REMARK  14 active torsions:
REMARK  status: ('A' for Active; 'I' for Inactive)
REMARK    1  A    between atoms: C_1  and  C_2
REMARK    2  A    between atoms: C_2  and  C_3
REMARK    3  A    between atoms: C_3  and  C_4
REMARK    4  A    between atoms: C_4  and  N_5
REMARK    5  A    between atoms: C_6  and  C_8
REMARK    6  A    between atoms: C_8  and  C_10
REMARK    7  A    between atoms: C_8  and  N_17
REMARK    8  A    between atoms: C_14  and  O_16
REMARK    9  A    between atoms: N_17  and  C_18
REMARK   10  A    between atoms: C_18  and  C_19
REMARK   11  A    between atoms: C_22  and  C_24
REMARK   12  A    between atoms: C_25  and  C_27
REMARK   13  A    between atoms: C_27  and  C_35
REMARK   14  A    between atoms: C_28  and  C_29
REMARK                            x       y       z     vdW  Elec       q    Type
REMARK                         _______ _______ _______ _____ _____    ______ ____
ROOT
ATOM      1  N   UNL     1       2.723  -6.208  -4.154  0.00  0.00    -0.275 N 
ATOM      2  C   UNL     1       3.766  -5.916  -3.352  0.00  0.00    +0.248 C 
ATOM      3  O   UNL     1       3.853  -6.434  -2.255  0.00  0.00    -0.270 OA
ENDROOT
BRANCH   2   4
ATOM      4  C   UNL     1       4.800  -4.971  -3.804  0.00  0.00    +0.045 C 
ATOM      5  C   UNL     1       6.101  -5.362  -3.862  0.00  0.00    +0.021 C 
BRANCH   5   6
ATOM      6  C   UNL     1       7.151  -4.380  -4.162  0.00  0.00    -0.024 A 
ATOM      7  C   UNL     1       7.025  -3.058  -3.720  0.00  0.00    +0.008 A 
ATOM      8  C   UNL     1       8.015  -2.142  -4.006  0.00  0.00    +0.001 A 
ATOM      9  C   UNL     1       9.132  -2.527  -4.727  0.00  0.00    +0.000 A 
ATOM     10  C   UNL     1       9.265  -3.833  -5.168  0.00  0.00    +0.001 A 
ATOM     11  C   UNL     1       8.286  -4.762  -4.886  0.00  0.00    +0.008 A 
ENDBRANCH   5   6
BRANCH   4  12
ATOM     12  C   UNL     1       4.423  -3.593  -4.194  0.00  0.00    -0.013 A 
ATOM     13  C   UNL     1       3.779  -2.757  -3.282  0.00  0.00    +0.008 A 
ATOM     14  C   UNL     1       3.430  -1.475  -3.652  0.00  0.00    +0.001 A 
ATOM     15  C   UNL     1       3.719  -1.017  -4.925  0.00  0.00    +0.000 A 
ATOM     16  C   UNL     1       4.358  -1.841  -5.835  0.00  0.00    +0.001 A 
ATOM     17  C   UNL     1       4.717  -3.123  -5.475  0.00  0.00    +0.008 A 
ENDBRANCH   4  12
ENDBRANCH   2   4
BRANCH   1  18
ATOM     18  C   UNL     1       2.554  -5.497  -5.424  0.00  0.00    +0.193 C 
BRANCH  18  19
ATOM     19  C   UNL     1       2.768  -6.454  -6.568  0.00  0.00    -0.015 A 
ATOM     20  C   UNL     1       2.160  -7.696  -6.553  0.00  0.00    +0.006 A 
ATOM     21  C   UNL     1       2.355  -8.576  -7.601  0.00  0.00    +0.004 A 
ATOM     22  C   UNL     1       3.158  -8.217  -8.666  0.00  0.00    +0.045 A 
ATOM     23  C   UNL     1       3.769  -6.972  -8.684  0.00  0.00    +0.117 A 
ATOM     24  C   UNL     1       3.567  -6.088  -7.634  0.00  0.00    +0.051 A 
BRANCH  23  25
ATOM     25  O   UNL     1       4.559  -6.616  -9.731  0.00  0.00    -0.507 OA
ATOM     26  H   UNL     1       4.085  -6.174 -10.449  0.00  0.00    +0.292 HD
ENDBRANCH  23  25
ENDBRANCH  18  19
BRANCH  18  28
ATOM     27  N   UNL     1       0.776  -4.228  -6.585  0.00  0.00    -0.313 N 
ATOM     28  C   UNL     1       1.161  -4.928  -5.499  0.00  0.00    +0.238 C 
ATOM     29  O   UNL     1       0.385  -5.099  -4.582  0.00  0.00    -0.273 OA
ATOM     30  H   UNL     1       1.397  -4.091  -7.318  0.00  0.00    +0.149 HD
BRANCH  27  31
ATOM     31  C   UNL     1      -0.578  -3.675  -6.658  0.00  0.00    +0.104 C 
BRANCH  31  32
ATOM     32  C   UNL     1      -0.755  -2.932  -7.984  0.00  0.00    +0.018 C 
BRANCH  32  34
ATOM     33  C   UNL     1      -2.346  -1.612  -9.387  0.00  0.00    +0.004 C 
ATOM     34  C   UNL     1      -2.169  -2.354  -8.061  0.00  0.00    -0.002 C 
ENDBRANCH  32  34
ENDBRANCH  31  32
ENDBRANCH  27  31
ENDBRANCH  18  28
ENDBRANCH   1  18
BRANCH   1  35
ATOM     35  C   UNL     1       1.758  -7.236  -3.756  0.00  0.00    +0.183 C 
BRANCH  35  36
ATOM     36  C   UNL     1       2.408  -8.594  -3.840  0.00  0.00    +0.122 A 
ATOM     37  C   UNL     1       2.985  -9.254  -2.820  0.00  0.00    +0.046 A 
ATOM     38  C   UNL     1       3.461 -10.479  -3.342  0.00  0.00    +0.045 A 
ATOM     39  C   UNL     1       3.146 -10.493  -4.650  0.00  0.00    +0.102 A 
ATOM     40  O   UNL     1       2.503  -9.352  -4.945  0.00  0.00    -0.463 OA
ATOM     41  C   UNL     1       3.457 -11.605  -5.619  0.00  0.00    +0.086 C 
ENDBRANCH  35  36
ENDBRANCH   1  35
TORSDOF 12
