REMARK  Name = ZINC39696039
REMARK  7 active torsions:
REMARK  status: ('A' for Active; 'I' for Inactive)
REMARK    1  A    between atoms: C_1  and  C_2
REMARK    2  A    between atoms: C_2  and  C_3
REMARK    3  A    between atoms: C_6  and  C_9
REMARK    4  A    between atoms: C_9  and  C_11
REMARK    5  A    between atoms: C_9  and  N_12
REMARK    6  A    between atoms: C_13  and  C_15
REMARK    7  A    between atoms: C_26  and  C_28
REMARK                            x       y       z     vdW  Elec       q    Type
REMARK                         _______ _______ _______ _____ _____    ______ ____
ROOT
ATOM      1  C   UNL     1       5.341  -0.040  -6.420  0.00  0.00    +0.100 C 
ATOM      2  C   UNL     1       5.490   1.422  -5.941  0.00  0.00    +0.121 C 
ATOM      3  N   UNL     1       6.430   2.038  -6.907  0.00  0.00    -0.296 N 
ATOM      4  C   UNL     1       6.036   1.469  -8.219  0.00  0.00    +0.115 C 
ATOM      5  C   UNL     1       5.699  -0.004  -7.915  0.00  0.00    -0.004 C 
ATOM      6  C   UNL     1       4.509  -0.457  -8.755  0.00  0.00    -0.010 C 
ATOM      7  C   UNL     1       4.908  -0.469 -10.233  0.00  0.00    -0.082 C 
ATOM      8  N   UNL     1       6.043  -1.379 -10.428  0.00  0.00    +0.379 N 
ATOM      9  C   UNL     1       7.213  -0.885  -9.690  0.00  0.00    -0.082 C 
ATOM     10  C   UNL     1       6.911  -0.890  -8.189  0.00  0.00    -0.010 C 
ATOM     11  C   UNL     1       7.419   2.917  -6.652  0.00  0.00    +0.247 C 
ATOM     12  O   UNL     1       7.692   3.207  -5.503  0.00  0.00    -0.270 OA
ATOM     13  H   UNL     1       5.798  -2.297 -10.091  0.00  0.00    -0.086 HD
ATOM     14  H   UNL     1       6.265  -1.432 -11.411  0.00  0.00    -0.086 HD
ENDROOT
BRANCH  11  15
ATOM     15  C   UNL     1       8.172   3.528  -7.768  0.00  0.00    +0.038 A 
ATOM     16  C   UNL     1       7.615   3.574  -9.047  0.00  0.00    +0.013 A 
ATOM     17  C   UNL     1       8.322   4.145 -10.084  0.00  0.00    +0.002 A 
ATOM     18  C   UNL     1       9.581   4.673  -9.859  0.00  0.00    +0.020 A 
ATOM     19  C   UNL     1      10.139   4.632  -8.593  0.00  0.00    +0.042 A 
ATOM     20  C   UNL     1       9.440   4.067  -7.545  0.00  0.00    +0.033 A 
ATOM     21 CL   UNL     1      11.720   5.297  -8.321  0.00  0.00    -0.084 Cl
ENDBRANCH  11  15
BRANCH   1  23
ATOM     22  N   UNL     1       3.669  -1.818  -6.021  0.00  0.00    -0.308 N 
ATOM     23  C   UNL     1       3.922  -0.511  -6.232  0.00  0.00    +0.219 C 
ATOM     24  O   UNL     1       3.008   0.285  -6.270  0.00  0.00    -0.275 OA
ATOM     25  H   UNL     1       4.400  -2.455  -5.990  0.00  0.00    +0.149 HD
BRANCH  22  26
ATOM     26  C   UNL     1       2.289  -2.277  -5.838  0.00  0.00    +0.100 C 
ATOM     27  C   UNL     1       1.649  -2.524  -7.205  0.00  0.00    +0.033 C 
BRANCH  26  31
ATOM     28  C   UNL     1       2.281  -5.907  -3.586  0.00  0.00    -0.048 A 
ATOM     29  C   UNL     1       1.320  -4.943  -3.347  0.00  0.00    +0.004 A 
ATOM     30  C   UNL     1       1.322  -3.768  -4.075  0.00  0.00    +0.006 A 
ATOM     31  C   UNL     1       2.287  -3.557  -5.043  0.00  0.00    -0.027 A 
ATOM     32  C   UNL     1       3.249  -4.521  -5.281  0.00  0.00    +0.006 A 
ATOM     33  C   UNL     1       3.249  -5.694  -4.550  0.00  0.00    +0.004 A 
BRANCH  28  35
ATOM     34  C   UNL     1       3.129  -7.009  -1.532  0.00  0.00    +0.009 C 
ATOM     35  C   UNL     1       2.278  -7.187  -2.791  0.00  0.00    +0.032 C 
ENDBRANCH  28  35
ENDBRANCH  26  31
ENDBRANCH  22  26
ENDBRANCH   1  23
TORSDOF 5
