REMARK  Name = ZINC08858832
REMARK  10 active torsions:
REMARK  status: ('A' for Active; 'I' for Inactive)
REMARK    1  A    between atoms: C_1  and  C_2
REMARK    2  A    between atoms: C_2  and  C_3
REMARK    3  A    between atoms: C_3  and  C_4
REMARK    4  A    between atoms: C_4  and  O_5
REMARK    5  A    between atoms: O_5  and  C_6
REMARK    6  A    between atoms: C_9  and  C_12
REMARK    7  A    between atoms: N_13  and  N_14
REMARK    8  A    between atoms: C_15  and  C_24
REMARK    9  A    between atoms: N_16  and  C_17
REMARK   10  A    between atoms: C_20  and  C_23
REMARK                            x       y       z     vdW  Elec       q    Type
REMARK                         _______ _______ _______ _____ _____    ______ ____
ROOT
ATOM      1  N   UNL     1       1.769   2.822   1.041  0.00  0.00    -0.262 N 
ATOM      2  C   UNL     1       1.297   3.891   0.313  0.00  0.00    +0.143 C 
ATOM      3  N   UNL     1       0.019   3.977   0.027  0.00  0.00    -0.298 N 
ATOM      4  H   UNL     1       1.087   2.007   1.326  0.00  0.00    +0.190 HD
ATOM      5  H   UNL     1      -0.375   4.879  -0.464  0.00  0.00    +0.154 HD
ENDROOT
BRANCH   2   6
ATOM      6  C   UNL     1       2.230   4.943  -0.146  0.00  0.00    +0.104 A 
ATOM      7  C   UNL     1       1.716   6.094  -0.765  0.00  0.00    +0.032 A 
ATOM      8  C   UNL     1       2.566   7.071  -1.192  0.00  0.00    +0.012 A 
ATOM      9  C   UNL     1       3.948   6.887  -0.994  0.00  0.00    +0.000 A 
ATOM     10  C   UNL     1       4.878   7.853  -1.409  0.00  0.00    +0.010 A 
ATOM     11  C   UNL     1       6.207   7.641  -1.201  0.00  0.00    +0.001 A 
ATOM     12  C   UNL     1       6.659   6.478  -0.581  0.00  0.00    +0.002 A 
ATOM     13  C   UNL     1       5.786   5.520  -0.166  0.00  0.00    +0.028 A 
ATOM     14  C   UNL     1       4.404   5.701  -0.362  0.00  0.00    +0.072 A 
ATOM     15  N   UNL     1       3.527   4.781   0.040  0.00  0.00    -0.244 NA
ENDBRANCH   2   6
BRANCH   3  16
ATOM     16  C   UNL     1      -0.822   2.945   0.338  0.00  0.00    +0.032 A 
ATOM     17  C   UNL     1      -0.592   1.670  -0.186  0.00  0.00    +0.023 A 
ATOM     18  C   UNL     1      -1.442   0.633   0.137  0.00  0.00    +0.005 A 
ATOM     19  C   UNL     1      -2.526   0.855   0.968  0.00  0.00    -0.050 A 
ATOM     20  C   UNL     1      -2.762   2.116   1.486  0.00  0.00    +0.005 A 
ATOM     21  C   UNL     1      -1.918   3.162   1.177  0.00  0.00    +0.023 A 
ATOM     22  C   UNL     1      -3.453  -0.283   1.311  0.00  0.00    +0.044 C 
ENDBRANCH   3  16
BRANCH   1  24
ATOM     23  C   UNL     1       3.587   1.716   2.009  0.00  0.00    +0.140 C 
ATOM     24  N   UNL     1       3.117   2.772   1.418  0.00  0.00    -0.180 NA
BRANCH  23  28
ATOM     25  C   UNL     1       7.703   1.509   3.029  0.00  0.00    +0.121 A 
ATOM     26  C   UNL     1       6.884   0.405   3.227  0.00  0.00    +0.046 A 
ATOM     27  C   UNL     1       5.548   0.467   2.898  0.00  0.00    +0.013 A 
ATOM     28  C   UNL     1       5.016   1.644   2.363  0.00  0.00    -0.005 A 
ATOM     29  C   UNL     1       5.845   2.751   2.160  0.00  0.00    +0.013 A 
ATOM     30  C   UNL     1       7.179   2.681   2.498  0.00  0.00    +0.046 A 
BRANCH  25  31
ATOM     31  O   UNL     1       9.020   1.443   3.355  0.00  0.00    -0.492 OA
BRANCH  31  32
ATOM     32  C   UNL     1       9.805   2.615   3.125  0.00  0.00    +0.229 C 
BRANCH  32  33
ATOM     33  C   UNL     1      11.251   2.351   3.550  0.00  0.00    +0.041 C 
BRANCH  33  35
ATOM     34  C   UNL     1      13.537   3.342   3.729  0.00  0.00    +0.004 C 
ATOM     35  C   UNL     1      12.091   3.606   3.304  0.00  0.00    -0.000 C 
ENDBRANCH  33  35
ENDBRANCH  32  33
ENDBRANCH  31  32
ENDBRANCH  25  31
ENDBRANCH  23  28
ENDBRANCH   1  24
TORSDOF 8
