REMARK  Name = ZINC39324851
REMARK  8 active torsions:
REMARK  status: ('A' for Active; 'I' for Inactive)
REMARK    1  A    between atoms: C_1  and  O_2
REMARK    2  A    between atoms: O_2  and  C_3
REMARK    3  A    between atoms: C_10  and  C_15
REMARK    4  A    between atoms: C_15  and  N_16
REMARK    5  A    between atoms: N_16  and  C_17
REMARK    6  A    between atoms: N_16  and  S_24
REMARK    7  A    between atoms: C_17  and  C_18
REMARK    8  A    between atoms: S_24  and  C_27
REMARK                            x       y       z     vdW  Elec       q    Type
REMARK                         _______ _______ _______ _____ _____    ______ ____
ROOT
ATOM      1  N   UNL     1      -5.620  -6.300  -1.141  0.00  0.00    -0.171 NA
ENDROOT
BRANCH   1   2
ATOM      2  S   UNL     1      -5.409  -7.754  -0.377  0.00  0.00    +0.062 S 
ATOM      3  O   UNL     1      -6.460  -8.602  -0.819  0.00  0.00    -0.153 OA
ATOM      4  O   UNL     1      -4.038  -8.097  -0.529  0.00  0.00    -0.153 OA
BRANCH   2   5
ATOM      5  C   UNL     1      -5.672  -7.481   1.344  0.00  0.00    +0.119 A 
ATOM      6  C   UNL     1      -6.770  -8.038   1.972  0.00  0.00    +0.029 A 
ATOM      7  C   UNL     1      -6.976  -7.824   3.322  0.00  0.00    +0.002 A 
ATOM      8  C   UNL     1      -6.084  -7.054   4.045  0.00  0.00    +0.001 A 
ATOM      9  C   UNL     1      -4.986  -6.498   3.418  0.00  0.00    +0.017 A 
ATOM     10  C   UNL     1      -4.776  -6.715   2.068  0.00  0.00    +0.044 A 
ATOM     11 BR   UNL     1      -3.269  -5.960   1.211  0.00  0.00    -0.048 Br
ENDBRANCH   2   5
ENDBRANCH   1   2
BRANCH   1  12
ATOM     12  C   UNL     1      -4.456  -5.536  -1.598  0.00  0.00    +0.126 C 
BRANCH  12  20
ATOM     13  C   UNL     1       0.050  -4.957  -5.264  0.00  0.00    +0.121 A 
ATOM     14  C   UNL     1       0.172  -6.344  -5.407  0.00  0.00    +0.047 A 
ATOM     15  C   UNL     1      -0.778  -7.211  -4.971  0.00  0.00    +0.027 A 
ATOM     16  C   UNL     1      -1.946  -6.737  -4.345  0.00  0.00    +0.041 A 
ATOM     17  N   UNL     1      -2.870  -7.599  -3.921  0.00  0.00    -0.284 N 
ATOM     18  C   UNL     1      -3.989  -7.223  -3.325  0.00  0.00    +0.225 C 
ATOM     19  O   UNL     1      -4.796  -8.057  -2.959  0.00  0.00    -0.275 OA
ATOM     20  C   UNL     1      -4.263  -5.753  -3.100  0.00  0.00    +0.114 C 
ATOM     21  C   UNL     1      -3.215  -4.769  -3.580  0.00  0.00    -0.003 C 
ATOM     22  C   UNL     1      -2.103  -5.281  -4.179  0.00  0.00    -0.004 A 
ATOM     23  C   UNL     1      -1.040  -4.401  -4.666  0.00  0.00    +0.055 A 
ATOM     24  H   UNL     1      -2.714  -8.547  -4.056  0.00  0.00    +0.155 HD
BRANCH  13  26
ATOM     25  C   UNL     1       2.162  -4.786  -6.344  0.00  0.00    +0.277 C 
ATOM     26  O   UNL     1       1.041  -4.150  -5.726  0.00  0.00    -0.495 OA
ENDBRANCH  13  26
ENDBRANCH  12  20
ENDBRANCH   1  12
BRANCH   1  27
ATOM     27  C   UNL     1      -6.971  -5.777  -1.359  0.00  0.00    +0.146 C 
BRANCH  27  28
ATOM     28  C   UNL     1      -7.462  -6.205  -2.718  0.00  0.00    -0.014 A 
ATOM     29  C   UNL     1      -7.224  -5.414  -3.832  0.00  0.00    +0.008 A 
ATOM     30  C   UNL     1      -7.694  -5.847  -5.062  0.00  0.00    +0.020 A 
ATOM     31  C   UNL     1      -8.380  -7.045  -5.136  0.00  0.00    +0.111 A 
ATOM     32  N   UNL     1      -8.588  -7.771  -4.056  0.00  0.00    -0.263 NA
ATOM     33  C   UNL     1      -8.150  -7.393  -2.871  0.00  0.00    +0.115 A 
ENDBRANCH  27  28
ENDBRANCH   1  27
TORSDOF 7
