REMARK  Name = ZINC64746361
REMARK  7 active torsions:
REMARK  status: ('A' for Active; 'I' for Inactive)
REMARK    1  A    between atoms: C_3  and  N_25
REMARK    2  A    between atoms: C_6  and  C_7
REMARK    3  A    between atoms: C_9  and  C_12
REMARK    4  A    between atoms: N_14  and  C_15
REMARK    5  A    between atoms: C_15  and  C_16
REMARK    6  A    between atoms: C_16  and  C_17
REMARK    7  A    between atoms: C_17  and  N_18
REMARK                            x       y       z     vdW  Elec       q    Type
REMARK                         _______ _______ _______ _____ _____    ______ ____
ROOT
ATOM      1  C   UNL     1      -1.052  -1.175  -0.288  0.00  0.00    +0.203 A 
ATOM      2  N   UNL     1      -1.292  -2.493  -0.222  0.00  0.00    -0.183 NA
ATOM      3  C   UNL     1      -2.583  -2.712  -0.210  0.00  0.00    +0.314 A 
ATOM      4  O   UNL     1      -3.214  -1.526  -0.269  0.00  0.00    -0.328 OA
ATOM      5  N   UNL     1      -2.197  -0.536  -0.313  0.00  0.00    -0.055 NA
ENDROOT
BRANCH   1  11
ATOM      6  C   UNL     1       0.407   0.845  -0.383  0.00  0.00    +0.013 A 
ATOM      7  C   UNL     1       1.654   1.431  -0.413  0.00  0.00    +0.024 A 
ATOM      8  C   UNL     1       2.796   0.638  -0.381  0.00  0.00    +0.030 A 
ATOM      9  C   UNL     1       2.682  -0.747  -0.318  0.00  0.00    +0.024 A 
ATOM     10  C   UNL     1       1.436  -1.336  -0.287  0.00  0.00    +0.013 A 
ATOM     11  C   UNL     1       0.290  -0.542  -0.320  0.00  0.00    +0.023 A 
BRANCH   8  12
ATOM     12  N   UNL     1       4.057   1.232  -0.411  0.00  0.00    -0.330 N 
ATOM     13  C   UNL     1       5.271   0.420  -0.252  0.00  0.00    +0.105 C 
ATOM     14  C   UNL     1       6.208   0.697  -1.432  0.00  0.00    +0.019 C 
ATOM     15  C   UNL     1       6.467   2.203  -1.529  0.00  0.00    +0.003 C 
ATOM     16  C   UNL     1       5.146   2.934  -1.779  0.00  0.00    +0.019 C 
ATOM     17  C   UNL     1       4.197   2.681  -0.610  0.00  0.00    +0.105 C 
ENDBRANCH   8  12
ENDBRANCH   1  11
BRANCH   3  18
ATOM     18  C   UNL     1      -3.237  -4.041  -0.144  0.00  0.00    +0.302 C 
ATOM     19  O   UNL     1      -2.561  -5.049  -0.095  0.00  0.00    -0.265 OA
ATOM     20  N   UNL     1      -4.582  -4.131  -0.139  0.00  0.00    -0.307 N 
ATOM     21  H   UNL     1      -5.122  -3.326  -0.178  0.00  0.00    +0.149 HD
BRANCH  20  22
ATOM     22  C   UNL     1      -5.228  -5.444  -0.073  0.00  0.00    +0.103 C 
BRANCH  22  23
ATOM     23  C   UNL     1      -6.748  -5.265  -0.082  0.00  0.00    +0.000 C 
BRANCH  23  24
ATOM     24  C   UNL     1      -7.423  -6.637  -0.013  0.00  0.00    -0.077 C 
BRANCH  24  25
ATOM     25  N   UNL     1      -8.878  -6.472  -0.127  0.00  0.00    +0.380 N 
ATOM     26  C   UNL     1      -9.526  -7.761   0.186  0.00  0.00    -0.079 C 
ATOM     27  C   UNL     1     -10.930  -7.482   0.660  0.00  0.00    -0.019 C 
ATOM     28  C   UNL     1     -11.949  -7.613  -0.488  0.00  0.00    -0.002 C 
ATOM     29  C   UNL     1     -11.412  -7.008  -1.801  0.00  0.00    -0.002 C 
ATOM     30  C   UNL     1     -10.682  -5.708  -1.577  0.00  0.00    -0.019 C 
ATOM     31  C   UNL     1      -9.177  -5.999  -1.406  0.00  0.00    -0.079 C 
ATOM     32  H   UNL     1      -9.180  -5.788   0.550  0.00  0.00    -0.082 HD
ENDBRANCH  24  25
ENDBRANCH  23  24
ENDBRANCH  22  23
ENDBRANCH  20  22
ENDBRANCH   3  18
TORSDOF 7
