REMARK  Name = ZINC00918271
REMARK  13 active torsions:
REMARK  status: ('A' for Active; 'I' for Inactive)
REMARK    1  A    between atoms: C_1  and  O_2
REMARK    2  A    between atoms: O_2  and  C_3
REMARK    3  A    between atoms: C_6  and  C_9
REMARK    4  A    between atoms: C_9  and  N_10
REMARK    5  A    between atoms: N_10  and  C_11
REMARK    6  A    between atoms: N_10  and  S_26
REMARK    7  A    between atoms: C_11  and  C_12
REMARK    8  A    between atoms: C_16  and  O_24
REMARK    9  A    between atoms: O_24  and  C_25
REMARK   10  A    between atoms: S_26  and  C_29
REMARK   11  A    between atoms: C_32  and  C_35
REMARK   12  A    between atoms: C_35  and  O_37
REMARK   13  A    between atoms: O_37  and  C_38
REMARK                            x       y       z     vdW  Elec       q    Type
REMARK                         _______ _______ _______ _____ _____    ______ ____
ROOT
ATOM      1  N   UNL     1      -7.675   2.783   4.761  0.00  0.00    -0.168 NA
ENDROOT
BRANCH   1   2
ATOM      2  S   UNL     1      -7.094   4.286   5.141  0.00  0.00    +0.061 S 
ATOM      3  O   UNL     1      -8.222   5.147   5.229  0.00  0.00    -0.153 OA
ATOM      4  O   UNL     1      -6.185   4.109   6.218  0.00  0.00    -0.153 OA
BRANCH   2   5
ATOM      5  C   UNL     1      -6.144   4.841   3.765  0.00  0.00    +0.106 A 
ATOM      6  C   UNL     1      -4.790   4.562   3.707  0.00  0.00    +0.029 A 
ATOM      7  C   UNL     1      -4.040   4.989   2.630  0.00  0.00    +0.017 A 
ATOM      8  C   UNL     1      -4.649   5.713   1.603  0.00  0.00    +0.059 A 
ATOM      9  C   UNL     1      -6.015   5.995   1.671  0.00  0.00    +0.017 A 
ATOM     10  C   UNL     1      -6.753   5.557   2.751  0.00  0.00    +0.029 A 
BRANCH   8  11
ATOM     11  C   UNL     1      -3.852   6.178   0.449  0.00  0.00    +0.339 C 
ATOM     12  O   UNL     1      -4.385   6.807  -0.443  0.00  0.00    -0.245 OA
BRANCH  11  13
ATOM     13  O   UNL     1      -2.534   5.905   0.387  0.00  0.00    -0.464 OA
ATOM     14  C   UNL     1      -1.814   6.393  -0.775  0.00  0.00    +0.280 C 
ENDBRANCH  11  13
ENDBRANCH   8  11
ENDBRANCH   2   5
ENDBRANCH   1   2
BRANCH   1  15
ATOM     15  C   UNL     1      -8.970   2.646   4.088  0.00  0.00    +0.145 C 
BRANCH  15  19
ATOM     16  C   UNL     1     -12.023   1.969   7.001  0.00  0.00    +0.120 A 
ATOM     17  C   UNL     1     -11.700   3.264   6.620  0.00  0.00    +0.046 A 
ATOM     18  C   UNL     1     -10.713   3.480   5.679  0.00  0.00    +0.008 A 
ATOM     19  C   UNL     1     -10.046   2.407   5.115  0.00  0.00    -0.031 A 
ATOM     20  C   UNL     1     -10.370   1.116   5.488  0.00  0.00    +0.008 A 
ATOM     21  C   UNL     1     -11.353   0.895   6.434  0.00  0.00    +0.046 A 
BRANCH  16  23
ATOM     22  C   UNL     1     -13.273   0.395   8.270  0.00  0.00    +0.277 C 
ATOM     23  O   UNL     1     -12.994   1.754   7.927  0.00  0.00    -0.495 OA
ENDBRANCH  16  23
ENDBRANCH  15  19
ENDBRANCH   1  15
BRANCH   1  24
ATOM     24  C   UNL     1      -6.895   1.589   5.096  0.00  0.00    +0.150 C 
BRANCH  24  25
ATOM     25  C   UNL     1      -6.069   1.177   3.905  0.00  0.00    +0.033 A 
ATOM     26  C   UNL     1      -4.784   1.593   3.797  0.00  0.00    +0.020 A 
ATOM     27  C   UNL     1      -4.008   1.176   2.627  0.00  0.00    +0.002 A 
ATOM     28  C   UNL     1      -2.676   1.570   2.466  0.00  0.00    +0.055 A 
ATOM     29  C   UNL     1      -1.976   1.163   1.348  0.00  0.00    +0.121 A 
ATOM     30  C   UNL     1      -2.586   0.356   0.391  0.00  0.00    +0.047 A 
ATOM     31  C   UNL     1      -3.896  -0.043   0.541  0.00  0.00    +0.030 A 
ATOM     32  C   UNL     1      -4.621   0.361   1.657  0.00  0.00    +0.049 A 
ATOM     33  N   UNL     1      -5.935  -0.029   1.826  0.00  0.00    -0.322 N 
ATOM     34  H   UNL     1      -6.369  -0.608   1.137  0.00  0.00    +0.169 HD
ATOM     35  C   UNL     1      -6.638   0.360   2.904  0.00  0.00    +0.254 A 
ATOM     36  O   UNL     1      -7.795  -0.004   3.021  0.00  0.00    -0.268 OA
BRANCH  29  37
ATOM     37  O   UNL     1      -0.682   1.547   1.184  0.00  0.00    -0.495 OA
ATOM     38  C   UNL     1      -0.013   1.086   0.008  0.00  0.00    +0.277 C 
ENDBRANCH  29  37
ENDBRANCH  24  25
ENDBRANCH   1  24
TORSDOF 10
