REMARK  Name = ZINC39912607
REMARK  15 active torsions:
REMARK  status: ('A' for Active; 'I' for Inactive)
REMARK    1  A    between atoms: C_1  and  C_2
REMARK    2  A    between atoms: C_2  and  C_3
REMARK    3  A    between atoms: C_3  and  C_4
REMARK    4  A    between atoms: C_4  and  O_5
REMARK    5  A    between atoms: O_5  and  C_6
REMARK    6  A    between atoms: C_9  and  C_12
REMARK    7  A    between atoms: C_15  and  C_33
REMARK    8  A    between atoms: N_22  and  C_23
REMARK    9  A    between atoms: C_23  and  C_24
REMARK   10  A    between atoms: C_24  and  C_25
REMARK   11  A    between atoms: C_28  and  O_31
REMARK   12  A    between atoms: O_31  and  C_32
REMARK   13  A    between atoms: C_35  and  C_41
REMARK   14  A    between atoms: C_37  and  C_40
REMARK   15  A    between atoms: C_38  and  O_39
REMARK                            x       y       z     vdW  Elec       q    Type
REMARK                         _______ _______ _______ _____ _____    ______ ____
ROOT
ATOM      1  C   UNL     1      -3.639  -7.725   0.160  0.00  0.00    +0.141 C 
ATOM      2  C   UNL     1      -3.745  -8.468   1.463  0.00  0.00    +0.035 A 
ATOM      3  C   UNL     1      -3.159  -8.777   2.695  0.00  0.00    +0.102 A 
ATOM      4  N   UNL     1      -3.984  -9.584   3.333  0.00  0.00    -0.173 NA
ATOM      5  N   UNL     1      -5.032  -9.816   2.625  0.00  0.00    -0.272 N 
ATOM      6  H   UNL     1      -5.772 -10.382   2.895  0.00  0.00    +0.189 HD
ATOM      7  C   UNL     1      -4.948  -9.146   1.438  0.00  0.00    +0.126 A 
ATOM      8  C   UNL     1      -5.617  -8.863   0.163  0.00  0.00    +0.265 C 
ATOM      9  O   UNL     1      -6.698  -9.311  -0.169  0.00  0.00    -0.268 OA
ATOM     10  N   UNL     1      -4.864  -8.038  -0.589  0.00  0.00    -0.285 N 
ENDROOT
BRANCH   3  11
ATOM     11  C   UNL     1      -1.850  -8.286   3.193  0.00  0.00    +0.044 A 
ATOM     12  C   UNL     1      -1.024  -7.533   2.363  0.00  0.00    +0.017 A 
ATOM     13  C   UNL     1       0.193  -7.078   2.831  0.00  0.00    -0.049 A 
ATOM     14  C   UNL     1       0.595  -7.368   4.123  0.00  0.00    +0.010 A 
ATOM     15  C   UNL     1      -0.217  -8.115   4.955  0.00  0.00    -0.008 A 
ATOM     16  C   UNL     1      -1.444  -8.572   4.500  0.00  0.00    +0.129 A 
ATOM     17  C   UNL     1       0.228  -8.428   6.360  0.00  0.00    +0.047 C 
ATOM     18  C   UNL     1       1.086  -6.264   1.932  0.00  0.00    +0.044 C 
BRANCH  16  19
ATOM     19  O   UNL     1      -2.246  -9.301   5.319  0.00  0.00    -0.506 OA
ATOM     20  H   UNL     1      -2.093 -10.255   5.273  0.00  0.00    +0.292 HD
ENDBRANCH  16  19
ENDBRANCH   3  11
BRANCH   1  24
ATOM     21  C   UNL     1      -3.389  -3.520   0.880  0.00  0.00    +0.121 A 
ATOM     22  C   UNL     1      -4.569  -4.201   1.144  0.00  0.00    +0.046 A 
ATOM     23  C   UNL     1      -4.647  -5.561   0.910  0.00  0.00    +0.009 A 
ATOM     24  C   UNL     1      -3.551  -6.242   0.413  0.00  0.00    -0.022 A 
ATOM     25  C   UNL     1      -2.375  -5.565   0.150  0.00  0.00    +0.009 A 
ATOM     26  C   UNL     1      -2.293  -4.205   0.377  0.00  0.00    +0.046 A 
BRANCH  21  27
ATOM     27  O   UNL     1      -3.310  -2.183   1.109  0.00  0.00    -0.492 OA
BRANCH  27  28
ATOM     28  C   UNL     1      -4.478  -1.543   1.628  0.00  0.00    +0.229 C 
BRANCH  28  29
ATOM     29  C   UNL     1      -4.199  -0.051   1.820  0.00  0.00    +0.041 C 
BRANCH  29  31
ATOM     30  C   UNL     1      -5.171   2.126   2.566  0.00  0.00    +0.004 C 
ATOM     31  C   UNL     1      -5.450   0.634   2.375  0.00  0.00    -0.000 C 
ENDBRANCH  29  31
ENDBRANCH  28  29
ENDBRANCH  27  28
ENDBRANCH  21  27
ENDBRANCH   1  24
BRANCH  10  32
ATOM     32  C   UNL     1      -5.206  -7.537  -1.922  0.00  0.00    +0.114 C 
BRANCH  32  33
ATOM     33  C   UNL     1      -4.670  -8.501  -2.982  0.00  0.00    +0.054 C 
BRANCH  33  34
ATOM     34  C   UNL     1      -5.022  -7.986  -4.354  0.00  0.00    -0.046 A 
ATOM     35  C   UNL     1      -6.216  -8.356  -4.945  0.00  0.00    +0.007 A 
ATOM     36  C   UNL     1      -6.541  -7.886  -6.203  0.00  0.00    +0.046 A 
ATOM     37  C   UNL     1      -5.668  -7.040  -6.872  0.00  0.00    +0.120 A 
ATOM     38  C   UNL     1      -4.471  -6.670  -6.277  0.00  0.00    +0.046 A 
ATOM     39  C   UNL     1      -4.153  -7.139  -5.017  0.00  0.00    +0.007 A 
BRANCH  37  40
ATOM     40  O   UNL     1      -5.986  -6.576  -8.110  0.00  0.00    -0.495 OA
ATOM     41  C   UNL     1      -5.040  -5.710  -8.740  0.00  0.00    +0.277 C 
ENDBRANCH  37  40
ENDBRANCH  33  34
ENDBRANCH  32  33
ENDBRANCH  10  32
TORSDOF 11
