REMARK  Name = ZINC56956086
REMARK  12 active torsions:
REMARK  status: ('A' for Active; 'I' for Inactive)
REMARK    1  A    between atoms: C_1  and  C_2
REMARK    2  A    between atoms: C_3  and  C_35
REMARK    3  A    between atoms: C_4  and  C_26
REMARK    4  A    between atoms: C_6  and  C_17
REMARK    5  A    between atoms: C_7  and  C_16
REMARK    6  A    between atoms: N_8  and  C_9
REMARK    7  A    between atoms: C_9  and  C_10
REMARK    8  A    between atoms: C_17  and  O_19
REMARK    9  A    between atoms: O_19  and  C_20
REMARK   10  A    between atoms: C_30  and  N_32
REMARK   11  A    between atoms: C_35  and  O_37
REMARK   12  A    between atoms: O_37  and  C_38
REMARK                            x       y       z     vdW  Elec       q    Type
REMARK                         _______ _______ _______ _____ _____    ______ ____
ROOT
ATOM      1  C   UNL     1       0.346   1.395  -0.680  0.00  0.00    +0.061 C 
ATOM      2  C   UNL     1       0.179  -0.061  -0.328  0.00  0.00    +0.019 C 
ATOM      3  C   UNL     1       0.144  -0.981  -1.308  0.00  0.00    +0.065 C 
ATOM      4  C   UNL     1      -0.029  -2.442  -1.004  0.00  0.00    +0.096 C 
ATOM      5  C   UNL     1       0.243  -2.720   0.448  0.00  0.00    +0.065 C 
ATOM      6  C   UNL     1       0.274  -1.730   1.357  0.00  0.00    +0.019 C 
ATOM      7  N   UNL     1       0.071  -0.431   0.985  0.00  0.00    -0.302 N 
ATOM      8  C   UNL     1       0.542  -2.056   2.803  0.00  0.00    +0.061 C 
ENDROOT
BRANCH   4   9
ATOM      9  C   UNL     1      -1.442  -2.853  -1.330  0.00  0.00    -0.033 A 
ATOM     10  C   UNL     1      -2.505  -2.242  -0.690  0.00  0.00    +0.005 A 
ATOM     11  C   UNL     1      -3.800  -2.618  -0.989  0.00  0.00    +0.003 A 
ATOM     12  C   UNL     1      -4.034  -3.605  -1.929  0.00  0.00    +0.033 A 
ATOM     13  C   UNL     1      -2.972  -4.216  -2.569  0.00  0.00    +0.126 A 
ATOM     14  C   UNL     1      -1.676  -3.836  -2.273  0.00  0.00    +0.037 A 
BRANCH  13  15
ATOM     15  N   UNL     1      -3.222  -5.273  -3.574  0.00  0.00    +0.056 N 
ATOM     16  O   UNL     1      -4.356  -5.603  -3.835  0.00  0.00    -0.126 OA
ATOM     17  O   UNL     1      -2.293  -5.807  -4.134  0.00  0.00    -0.126 OA
ENDBRANCH  13  15
ENDBRANCH   4   9
BRANCH   5  18
ATOM     18  C   UNL     1       0.471  -4.051   0.866  0.00  0.00    +0.338 C 
ATOM     19  O   UNL     1       1.564  -4.562   0.703  0.00  0.00    -0.245 OA
BRANCH  18  20
ATOM     20  O   UNL     1      -0.522  -4.756   1.447  0.00  0.00    -0.460 OA
BRANCH  20  21
ATOM     21  C   UNL     1      -0.222  -6.095   1.845  0.00  0.00    +0.158 C 
ATOM     22  C   UNL     1      -0.593  -7.086   0.718  0.00  0.00    +0.024 C 
ATOM     23  C   UNL     1      -1.185  -8.288   1.496  0.00  0.00    -0.079 C 
ATOM     24  N   UNL     1      -1.932  -7.642   2.605  0.00  0.00    +0.381 N 
ATOM     25  C   UNL     1      -1.093  -6.503   3.047  0.00  0.00    -0.037 C 
ATOM     26  H   UNL     1      -2.825  -7.309   2.275  0.00  0.00    -0.086 HD
ATOM     27  H   UNL     1      -2.060  -8.293   3.365  0.00  0.00    -0.086 HD
ENDBRANCH  20  21
ENDBRANCH  18  20
ENDBRANCH   5  18
BRANCH   3  28
ATOM     28  C   UNL     1       0.273  -0.565  -2.653  0.00  0.00    +0.337 C 
ATOM     29  O   UNL     1      -0.716  -0.455  -3.353  0.00  0.00    -0.245 OA
BRANCH  28  30
ATOM     30  O   UNL     1       1.493  -0.289  -3.160  0.00  0.00    -0.465 OA
ATOM     31  C   UNL     1       1.548   0.126  -4.526  0.00  0.00    +0.280 C 
ENDBRANCH  28  30
ENDBRANCH   3  28
BRANCH   7  32
ATOM     32  C   UNL     1      -0.270   0.571   1.998  0.00  0.00    +0.145 C 
BRANCH  32  33
ATOM     33  C   UNL     1      -1.767   0.637   2.155  0.00  0.00    -0.030 A 
ATOM     34  C   UNL     1      -2.506   1.506   1.373  0.00  0.00    +0.005 A 
ATOM     35  C   UNL     1      -3.880   1.567   1.516  0.00  0.00    +0.000 A 
ATOM     36  C   UNL     1      -4.515   0.759   2.441  0.00  0.00    +0.000 A 
ATOM     37  C   UNL     1      -3.776  -0.111   3.221  0.00  0.00    +0.000 A 
ATOM     38  C   UNL     1      -2.403  -0.175   3.075  0.00  0.00    +0.005 A 
ENDBRANCH  32  33
ENDBRANCH   7  32
TORSDOF 9
