REMARK  Name = ZINC13572770
REMARK  4 active torsions:
REMARK  status: ('A' for Active; 'I' for Inactive)
REMARK    1  A    between atoms: C_9  and  C_11
REMARK    2  A    between atoms: N_13  and  N_14
REMARK    3  A    between atoms: N_22  and  C_25
REMARK    4  A    between atoms: C_25  and  N_26
REMARK                            x       y       z     vdW  Elec       q    Type
REMARK                         _______ _______ _______ _____ _____    ______ ____
ROOT
ATOM      1  N   UNL     1       7.382  -2.428  -0.083  0.00  0.00    -0.174 NA
ATOM      2  C   UNL     1       8.474  -1.703  -0.090  0.00  0.00    +0.153 C 
ATOM      3  C   UNL     1       9.876  -2.182  -0.112  0.00  0.00    +0.028 A 
ATOM      4  C   UNL     1      10.448  -3.449  -0.131  0.00  0.00    +0.012 A 
ATOM      5  C   UNL     1      11.822  -3.579  -0.149  0.00  0.00    +0.001 A 
ATOM      6  C   UNL     1      12.626  -2.451  -0.149  0.00  0.00    +0.002 A 
ATOM      7  C   UNL     1      12.067  -1.190  -0.130  0.00  0.00    +0.024 A 
ATOM      8  C   UNL     1      10.685  -1.039  -0.111  0.00  0.00    +0.044 A 
ATOM      9  N   UNL     1       9.880   0.095  -0.091  0.00  0.00    -0.282 N 
ATOM     10  C   UNL     1       8.575  -0.229  -0.084  0.00  0.00    +0.270 C 
ATOM     11  O   UNL     1       7.643   0.553  -0.072  0.00  0.00    -0.268 OA
ENDROOT
BRANCH   1  14
ATOM     12  C   UNL     1       5.005  -2.551  -0.060  0.00  0.00    +0.282 C 
ATOM     13  O   UNL     1       5.080  -3.763  -0.067  0.00  0.00    -0.267 OA
ATOM     14  N   UNL     1       6.127  -1.805  -0.068  0.00  0.00    -0.201 N 
ATOM     15  H   UNL     1       6.066  -0.837  -0.062  0.00  0.00    +0.178 HD
BRANCH  12  24
ATOM     16  C   UNL     1      -0.016   1.357   0.009  0.00  0.00    +0.001 A 
ATOM     17  C   UNL     1       1.170   2.090   0.002  0.00  0.00    +0.002 A 
ATOM     18  C   UNL     1       2.379   1.468  -0.013  0.00  0.00    +0.028 A 
ATOM     19  C   UNL     1       2.441   0.061  -0.021  0.00  0.00    +0.072 A 
ATOM     20  C   UNL     1       1.232  -0.682  -0.013  0.00  0.00    +0.000 A 
ATOM     21  C   UNL     1       0.002  -0.004   0.002  0.00  0.00    +0.010 A 
ATOM     22  C   UNL     1       1.291  -2.088  -0.021  0.00  0.00    +0.012 A 
ATOM     23  C   UNL     1       2.519  -2.683  -0.037  0.00  0.00    +0.034 A 
ATOM     24  C   UNL     1       3.678  -1.892  -0.044  0.00  0.00    +0.128 A 
ATOM     25  N   UNL     1       3.612  -0.574  -0.036  0.00  0.00    -0.242 NA
ENDBRANCH  12  24
ENDBRANCH   1  14
BRANCH   9  26
ATOM     26  C   UNL     1      10.389   1.468  -0.084  0.00  0.00    +0.039 C 
BRANCH  26  27
ATOM     27  N   UNL     1      10.542   1.941  -1.466  0.00  0.00    +0.390 N 
ATOM     28  C   UNL     1      11.516   1.074  -2.157  0.00  0.00    -0.077 C 
ATOM     29  C   UNL     1      11.240   1.139  -3.638  0.00  0.00    -0.019 C 
ATOM     30  C   UNL     1      12.146   2.171  -4.336  0.00  0.00    -0.002 C 
ATOM     31  C   UNL     1      12.305   3.454  -3.495  0.00  0.00    -0.002 C 
ATOM     32  C   UNL     1      11.009   3.887  -2.858  0.00  0.00    -0.019 C 
ATOM     33  C   UNL     1      10.918   3.285  -1.441  0.00  0.00    -0.077 C 
ATOM     34  H   UNL     1       9.652   1.862  -1.935  0.00  0.00    -0.080 HD
ENDBRANCH  26  27
ENDBRANCH   9  26
TORSDOF 4
