REMARK  Name = ZINC03175646
REMARK  8 active torsions:
REMARK  status: ('A' for Active; 'I' for Inactive)
REMARK    1  A    between atoms: C_1  and  C_2
REMARK    2  A    between atoms: C_2  and  C_32
REMARK    3  A    between atoms: C_4  and  N_66
REMARK    4  A    between atoms: N_9  and  C_21
REMARK    5  A    between atoms: P_10  and  O_12
REMARK    6  A    between atoms: O_12  and  C_13
REMARK    7  A    between atoms: C_13  and  C_14
REMARK    8  A    between atoms: C_14  and  C_15
REMARK                            x       y       z     vdW  Elec       q    Type
REMARK                         _______ _______ _______ _____ _____    ______ ____
ROOT
ATOM      1  C   UNL     1      -3.558  -0.387  -5.731  0.00  0.00    +0.015 C 
ATOM      2  C   UNL     1      -2.415  -0.362  -4.714  0.00  0.00    -0.010 C 
ATOM      3  C   UNL     1      -2.845   0.468  -3.513  0.00  0.00    +0.060 C 
ATOM      4  C   UNL     1      -1.875   0.311  -2.359  0.00  0.00    +0.005 C 
ATOM      5  C   UNL     1      -1.272  -0.853  -2.232  0.00  0.00    +0.063 C 
ATOM      6  C   UNL     1      -1.435  -1.997  -3.172  0.00  0.00    +0.055 C 
ATOM      7  C   UNL     1      -2.058  -1.780  -4.348  0.00  0.00    +0.005 C 
ATOM      8  N   UNL     1      -0.937  -3.163  -2.645  0.00  0.00    -0.258 N 
ATOM      9  N   UNL     1      -0.071  -3.111  -1.545  0.00  0.00    -0.200 N 
ATOM     10  P   UNL     1      -0.162  -1.551  -0.974  0.00  0.00    +0.180 P 
ATOM     11  S   UNL     1       1.504  -0.717  -0.999  0.00  0.00    -0.011 S 
ATOM     12  C   UNL     1      -1.196   0.300  -5.360  0.00  0.00    +0.015 C 
ATOM     13  H   UNL     1      -1.183  -4.018  -3.031  0.00  0.00    +0.171 HD
ENDROOT
BRANCH   4  19
ATOM     14  C   UNL     1      -2.722   1.941  -0.697  0.00  0.00    +0.085 C 
ATOM     15  C   UNL     1      -2.727   3.457  -0.922  0.00  0.00    +0.017 C 
ATOM     16  C   UNL     1      -1.341   4.021  -0.600  0.00  0.00    +0.003 C 
ATOM     17  C   UNL     1      -0.301   3.395  -1.532  0.00  0.00    +0.017 C 
ATOM     18  C   UNL     1      -0.270   1.879  -1.310  0.00  0.00    +0.085 C 
ATOM     19  N   UNL     1      -1.569   1.112  -1.216  0.00  0.00    -0.396 NA
ATOM     20  H   UNL     1      -1.401   0.419  -0.477  0.00  0.00    +0.126 HD
ENDBRANCH   4  19
BRANCH   9  21
ATOM     21  C   UNL     1       0.707  -4.153  -1.035  0.00  0.00    +0.055 A 
ATOM     22  C   UNL     1       1.525  -3.935   0.067  0.00  0.00    +0.025 A 
ATOM     23  C   UNL     1       2.290  -4.968   0.572  0.00  0.00    +0.002 A 
ATOM     24  C   UNL     1       2.250  -6.215  -0.024  0.00  0.00    +0.000 A 
ATOM     25  C   UNL     1       1.441  -6.434  -1.124  0.00  0.00    +0.002 A 
ATOM     26  C   UNL     1       0.670  -5.407  -1.631  0.00  0.00    +0.025 A 
ENDBRANCH   9  21
BRANCH  10  27
ATOM     27  O   UNL     1      -0.821  -1.498   0.494  0.00  0.00    -0.332 OA
BRANCH  27  28
ATOM     28  C   UNL     1      -0.891  -0.302   1.273  0.00  0.00    +0.173 C 
BRANCH  28  29
ATOM     29  C   UNL     1      -1.415  -0.634   2.672  0.00  0.00    +0.084 C 
BRANCH  29  30
ATOM     30  C   UNL     1      -1.389   0.608   3.526  0.00  0.00    +0.043 A 
ATOM     31  C   UNL     1      -2.546   1.032   4.151  0.00  0.00    +0.023 A 
ATOM     32  C   UNL     1      -2.510   2.172   4.939  0.00  0.00    +0.003 A 
ATOM     33  C   UNL     1      -1.308   2.852   5.061  0.00  0.00    +0.020 A 
ATOM     34  C   UNL     1      -0.192   2.371   4.402  0.00  0.00    +0.111 A 
ATOM     35  N   UNL     1      -0.263   1.279   3.665  0.00  0.00    -0.260 NA
ENDBRANCH  29  30
ENDBRANCH  28  29
ENDBRANCH  27  28
ENDBRANCH  10  27
TORSDOF 6
