REMARK  Name = ZINC33369262
REMARK  8 active torsions:
REMARK  status: ('A' for Active; 'I' for Inactive)
REMARK    1  A    between atoms: C_1  and  C_2
REMARK    2  A    between atoms: C_2  and  O_3
REMARK    3  A    between atoms: O_3  and  C_4
REMARK    4  A    between atoms: C_4  and  C_6
REMARK    5  A    between atoms: C_6  and  C_30
REMARK    6  A    between atoms: N_8  and  C_24
REMARK    7  A    between atoms: C_21  and  N_23
REMARK    8  A    between atoms: C_30  and  C_32
REMARK                            x       y       z     vdW  Elec       q    Type
REMARK                         _______ _______ _______ _____ _____    ______ ____
ROOT
ATOM      1  C   UNL     1      -1.382   4.045   2.648  0.00  0.00    +0.129 C 
ATOM      2  C   UNL     1      -0.605   3.204   1.839  0.00  0.00    +0.092 C 
ATOM      3  N   UNL     1      -0.745   1.845   1.900  0.00  0.00    -0.282 N 
ATOM      4  C   UNL     1       0.062   0.975   1.040  0.00  0.00    +0.152 C 
ATOM      5  C   UNL     1      -0.123  -0.453   1.485  0.00  0.00    +0.020 A 
ATOM      6  C   UNL     1      -1.402  -0.903   1.766  0.00  0.00    +0.009 A 
ATOM      7  C   UNL     1      -1.608  -2.205   2.178  0.00  0.00    +0.001 A 
ATOM      8  C   UNL     1      -0.534  -3.066   2.312  0.00  0.00    +0.004 A 
ATOM      9  C   UNL     1       0.743  -2.623   2.034  0.00  0.00    +0.047 A 
ATOM     10  C   UNL     1       0.954  -1.312   1.617  0.00  0.00    +0.137 A 
ATOM     11  O   UNL     1       2.219  -0.908   1.348  0.00  0.00    -0.422 OA
ATOM     12  C   UNL     1       2.510   0.399   1.264  0.00  0.00    +0.345 C 
ATOM     13  O   UNL     1       3.673   0.754   1.333  0.00  0.00    -0.245 OA
ATOM     14  C   UNL     1       1.512   1.364   1.098  0.00  0.00    +0.089 C 
ATOM     15  C   UNL     1       1.872   2.683   0.965  0.00  0.00    +0.077 C 
ATOM     16  S   UNL     1       0.585   3.869   0.712  0.00  0.00    -0.058 S 
ENDROOT
BRANCH   3  17
ATOM     17  C   UNL     1      -1.664   1.281   2.789  0.00  0.00    +0.035 A 
ATOM     18  C   UNL     1      -1.218   0.633   3.934  0.00  0.00    +0.023 A 
ATOM     19  C   UNL     1      -2.129   0.081   4.812  0.00  0.00    +0.002 A 
ATOM     20  C   UNL     1      -3.484   0.165   4.549  0.00  0.00    +0.000 A 
ATOM     21  C   UNL     1      -3.932   0.805   3.408  0.00  0.00    +0.002 A 
ATOM     22  C   UNL     1      -3.026   1.363   2.527  0.00  0.00    +0.023 A 
ENDBRANCH   3  17
BRANCH  15  23
ATOM     23  N   UNL     1       3.187   3.067   1.027  0.00  0.00    -0.352 N 
ATOM     24  H   UNL     1       3.456   4.128   0.919  0.00  0.00    +0.143 HD
ATOM     25  H   UNL     1       3.973   2.314   1.186  0.00  0.00    +0.143 HD
ENDBRANCH  15  23
BRANCH   1  26
ATOM     26  C   UNL     1      -2.083   3.514   3.749  0.00  0.00    +0.169 C 
ATOM     27  O   UNL     1      -1.488   2.885   4.601  0.00  0.00    -0.292 OA
ATOM     28  C   UNL     1      -3.570   3.727   3.870  0.00  0.00    +0.092 C 
ENDBRANCH   1  26
BRANCH   1  29
ATOM     29  C   UNL     1      -1.466   5.475   2.348  0.00  0.00    +0.345 C 
ATOM     30  O   UNL     1      -0.827   5.941   1.423  0.00  0.00    -0.245 OA
BRANCH  29  31
ATOM     31  O   UNL     1      -2.251   6.277   3.096  0.00  0.00    -0.461 OA
BRANCH  31  33
ATOM     32  C   UNL     1      -3.222   8.428   3.695  0.00  0.00    +0.048 C 
ATOM     33  C   UNL     1      -2.285   7.684   2.741  0.00  0.00    +0.229 C 
ENDBRANCH  31  33
ENDBRANCH  29  31
ENDBRANCH   1  29
TORSDOF 6
