REMARK  Name = ZINC12886350
REMARK  8 active torsions:
REMARK  status: ('A' for Active; 'I' for Inactive)
REMARK    1  A    between atoms: C_1  and  C_2
REMARK    2  A    between atoms: C_17  and  C_19
REMARK    3  A    between atoms: C_19  and  C_20
REMARK    4  A    between atoms: C_20  and  S_21
REMARK    5  A    between atoms: S_21  and  C_22
REMARK    6  A    between atoms: N_25  and  C_28
REMARK    7  A    between atoms: C_28  and  C_29
REMARK    8  A    between atoms: C_29  and  C_30
REMARK                            x       y       z     vdW  Elec       q    Type
REMARK                         _______ _______ _______ _____ _____    ______ ____
ROOT
ATOM      1  C   UNL     1      -7.173  -3.929   1.371  0.00  0.00    +0.044 C 
ATOM      2  C   UNL     1      -7.615  -2.533   1.013  0.00  0.00    -0.049 A 
ATOM      3  C   UNL     1      -6.979  -1.440   1.574  0.00  0.00    +0.008 A 
ATOM      4  C   UNL     1      -7.383  -0.165   1.247  0.00  0.00    -0.026 A 
ATOM      5  C   UNL     1      -8.431   0.040   0.354  0.00  0.00    +0.054 A 
ATOM      6  C   UNL     1      -9.067  -1.066  -0.206  0.00  0.00    +0.063 A 
ATOM      7  C   UNL     1      -8.658  -2.343   0.125  0.00  0.00    +0.025 A 
ATOM      8 CL   UNL     1     -10.377  -0.839  -1.322  0.00  0.00    -0.082 Cl
ATOM      9  N   UNL     1      -8.656   1.408   0.180  0.00  0.00    -0.285 N 
ATOM     10  C   UNL     1      -7.813   2.159   0.914  0.00  0.00    +0.211 C 
ATOM     11  O   UNL     1      -7.778   3.371   0.964  0.00  0.00    -0.277 OA
ATOM     12  C   UNL     1      -6.922   1.204   1.660  0.00  0.00    +0.050 C 
ATOM     13  C   UNL     1      -7.034   1.402   3.177  0.00  0.00    +0.088 C 
ATOM     14  C   UNL     1      -5.598   1.131   3.713  0.00  0.00    +0.073 C 
ATOM     15  C   UNL     1      -4.766   0.791   2.458  0.00  0.00    -0.057 C 
ATOM     16  C   UNL     1      -5.167   2.476   4.251  0.00  0.00    +0.224 C 
ATOM     17  O   UNL     1      -4.093   2.717   4.758  0.00  0.00    -0.275 OA
ATOM     18  N   UNL     1      -6.156   3.361   4.079  0.00  0.00    -0.241 N 
ATOM     19  C   UNL     1      -7.250   2.866   3.484  0.00  0.00    +0.225 C 
ATOM     20  O   UNL     1      -8.258   3.492   3.235  0.00  0.00    -0.275 OA
ATOM     21  H   UNL     1      -9.341   1.775  -0.402  0.00  0.00    +0.155 HD
ATOM     22  N   UNL     1      -5.516   1.401   1.358  0.00  0.00    +0.394 N 
ATOM     23  H   UNL     1      -5.303   2.404   1.296  0.00  0.00    -0.083 HD
ATOM     24  H   UNL     1      -5.276   0.945   0.470  0.00  0.00    -0.083 HD
ENDROOT
BRANCH  15  25
ATOM     25  C   UNL     1      -3.361   1.387   2.575  0.00  0.00    -0.004 C 
BRANCH  25  26
ATOM     26  C   UNL     1      -2.527   0.966   1.363  0.00  0.00    +0.067 C 
BRANCH  26  27
ATOM     27  S   UNL     1      -0.862   1.671   1.500  0.00  0.00    -0.164 S 
ATOM     28  C   UNL     1      -0.013   1.086   0.008  0.00  0.00    +0.084 C 
ENDBRANCH  26  27
ENDBRANCH  25  26
ENDBRANCH  15  25
BRANCH  18  29
ATOM     29  C   UNL     1      -6.050   4.760   4.502  0.00  0.00    +0.121 C 
BRANCH  29  30
ATOM     30  C   UNL     1      -5.476   5.596   3.357  0.00  0.00    +0.054 C 
BRANCH  30  31
ATOM     31  C   UNL     1      -5.367   7.035   3.791  0.00  0.00    -0.046 A 
ATOM     32  C   UNL     1      -6.422   7.903   3.581  0.00  0.00    +0.004 A 
ATOM     33  C   UNL     1      -6.323   9.222   3.983  0.00  0.00    +0.000 A 
ATOM     34  C   UNL     1      -5.166   9.675   4.588  0.00  0.00    +0.000 A 
ATOM     35  C   UNL     1      -4.109   8.809   4.795  0.00  0.00    +0.000 A 
ATOM     36  C   UNL     1      -4.209   7.489   4.396  0.00  0.00    +0.004 A 
ENDBRANCH  30  31
ENDBRANCH  29  30
ENDBRANCH  18  29
TORSDOF 6
