REMARK  Name = ZINC39719869
REMARK  5 active torsions:
REMARK  status: ('A' for Active; 'I' for Inactive)
REMARK    1  A    between atoms: C_1  and  C_2
REMARK    2  A    between atoms: C_2  and  C_3
REMARK    3  A    between atoms: C_2  and  C_4
REMARK    4  A    between atoms: C_4  and  S_5
REMARK    5  A    between atoms: S_5  and  C_6
REMARK                            x       y       z     vdW  Elec       q    Type
REMARK                         _______ _______ _______ _____ _____    ______ ____
ROOT
ATOM      1  C   UNL     1      -3.116  -2.791  -0.118  0.00  0.00    +0.207 C 
ATOM      2  N   UNL     1      -4.006  -1.834  -0.004  0.00  0.00    -0.227 NA
ATOM      3  C   UNL     1      -5.417  -2.209  -0.061  0.00  0.00    +0.252 C 
ATOM      4  C   UNL     1      -5.503  -3.636   0.459  0.00  0.00    +0.117 C 
ATOM      5  C   UNL     1      -6.504  -3.630   1.381  0.00  0.00    +0.025 A 
ATOM      6  C   UNL     1      -7.121  -4.668   2.123  0.00  0.00    +0.012 A 
ATOM      7  C   UNL     1      -8.105  -4.314   2.994  0.00  0.00    +0.001 A 
ATOM      8  C   UNL     1      -8.539  -3.001   3.199  0.00  0.00    +0.002 A 
ATOM      9  C   UNL     1      -8.025  -1.930   2.538  0.00  0.00    +0.026 A 
ATOM     10  C   UNL     1      -6.956  -2.217   1.567  0.00  0.00    +0.046 A 
ATOM     11  N   UNL     1      -6.296  -1.416   0.787  0.00  0.00    -0.358 N 
ATOM     12  N   UNL     1      -4.606  -4.560   0.099  0.00  0.00    -0.147 NA
ATOM     13  N   UNL     1      -3.431  -4.105  -0.220  0.00  0.00    -0.122 NA
ATOM     14  H   UNL     1      -6.376  -0.450   0.771  0.00  0.00    +0.162 HD
ENDROOT
BRANCH   1  15
ATOM     15  S   UNL     1      -1.412  -2.341  -0.146  0.00  0.00    -0.084 S 
BRANCH  15  16
ATOM     16  C   UNL     1      -1.433  -0.534   0.013  0.00  0.00    +0.080 C 
BRANCH  16  18
ATOM     17  C   UNL     1      -0.019   1.526   0.010  0.00  0.00    +0.008 C 
ATOM     18  C   UNL     1       0.002  -0.004   0.002  0.00  0.00    -0.007 C 
ATOM     19  C   UNL     1       0.742  -0.511   1.242  0.00  0.00    +0.008 C 
ENDBRANCH  16  18
ENDBRANCH  15  16
ENDBRANCH   1  15
TORSDOF 3
