REMARK  Name = ZINC64838812
REMARK  11 active torsions:
REMARK  status: ('A' for Active; 'I' for Inactive)
REMARK    1  A    between atoms: C_1  and  C_2
REMARK    2  A    between atoms: C_4  and  C_35
REMARK    3  A    between atoms: N_5  and  C_22
REMARK    4  A    between atoms: C_8  and  S_9
REMARK    5  A    between atoms: S_9  and  C_12
REMARK    6  A    between atoms: C_15  and  C_18
REMARK    7  A    between atoms: C_18  and  C_19
REMARK    8  A    between atoms: C_19  and  C_20
REMARK    9  A    between atoms: C_19  and  C_21
REMARK   10  A    between atoms: C_22  and  C_23
REMARK   11  A    between atoms: N_25  and  C_26
REMARK                            x       y       z     vdW  Elec       q    Type
REMARK                         _______ _______ _______ _____ _____    ______ ____
ROOT
ATOM      1  C   UNL     1       0.603   1.441  -0.914  0.00  0.00    +0.046 C 
ATOM      2  C   UNL     1       0.450  -0.050  -0.758  0.00  0.00    -0.018 A 
ATOM      3  C   UNL     1       0.017  -0.835  -1.836  0.00  0.00    +0.026 A 
ATOM      4  C   UNL     1      -0.117  -2.173  -1.687  0.00  0.00    +0.020 A 
ATOM      5  N   UNL     1       0.164  -2.770  -0.500  0.00  0.00    -0.302 N 
ATOM      6  C   UNL     1       0.581  -2.043   0.554  0.00  0.00    +0.278 A 
ATOM      7  O   UNL     1       0.829  -2.594   1.615  0.00  0.00    -0.266 OA
ATOM      8  C   UNL     1       0.737  -0.652   0.432  0.00  0.00    +0.161 A 
ATOM      9  C   UNL     1      -0.584  -3.010  -2.850  0.00  0.00    +0.063 C 
ENDROOT
BRANCH   8  10
ATOM     10  S   UNL     1       1.289   0.306   1.804  0.00  0.00    +0.030 S 
ATOM     11  O   UNL     1       2.175  -0.521   2.546  0.00  0.00    -0.164 OA
ATOM     12  O   UNL     1       1.682   1.569   1.285  0.00  0.00    -0.164 OA
BRANCH  10  13
ATOM     13  C   UNL     1      -0.110   0.597   2.834  0.00  0.00    +0.094 A 
ATOM     14  C   UNL     1      -0.900   1.713   2.628  0.00  0.00    +0.027 A 
ATOM     15  C   UNL     1      -1.998   1.941   3.436  0.00  0.00    +0.005 A 
ATOM     16  C   UNL     1      -2.307   1.054   4.449  0.00  0.00    -0.047 A 
ATOM     17  C   UNL     1      -1.518  -0.063   4.655  0.00  0.00    +0.005 A 
ATOM     18  C   UNL     1      -0.422  -0.294   3.844  0.00  0.00    +0.027 A 
BRANCH  16  19
ATOM     19  C   UNL     1      -3.503   1.303   5.331  0.00  0.00    +0.038 C 
BRANCH  19  20
ATOM     20  C   UNL     1      -4.736   0.636   4.718  0.00  0.00    -0.013 C 
ATOM     21  C   UNL     1      -4.546  -0.882   4.715  0.00  0.00    +0.007 C 
ATOM     22  C   UNL     1      -5.973   0.992   5.545  0.00  0.00    +0.007 C 
ENDBRANCH  19  20
ENDBRANCH  16  19
ENDBRANCH  10  13
ENDBRANCH   8  10
BRANCH   5  23
ATOM     23  C   UNL     1       0.010  -4.221  -0.364  0.00  0.00    +0.221 C 
BRANCH  23  24
ATOM     24  C   UNL     1       1.306  -4.899  -0.728  0.00  0.00    +0.237 C 
ATOM     25  O   UNL     1       2.263  -4.236  -1.067  0.00  0.00    -0.274 OA
ATOM     26  N   UNL     1       1.401  -6.242  -0.676  0.00  0.00    -0.284 N 
ATOM     27  H   UNL     1       0.616  -6.777  -0.479  0.00  0.00    +0.155 HD
BRANCH  26  28
ATOM     28  C   UNL     1       2.633  -6.867  -0.908  0.00  0.00    +0.037 A 
ATOM     29  C   UNL     1       2.677  -8.106  -1.533  0.00  0.00    +0.027 A 
ATOM     30  C   UNL     1       3.892  -8.723  -1.762  0.00  0.00    +0.051 A 
ATOM     31  C   UNL     1       5.069  -8.108  -1.370  0.00  0.00    +0.166 A 
ATOM     32  C   UNL     1       5.029  -6.864  -0.743  0.00  0.00    +0.168 A 
ATOM     33  C   UNL     1       3.811  -6.244  -0.519  0.00  0.00    +0.072 A 
ATOM     34  O   UNL     1       6.306  -6.477  -0.459  0.00  0.00    -0.453 OA
ATOM     35  C   UNL     1       7.100  -7.675  -0.547  0.00  0.00    +0.466 C 
ATOM     36  O   UNL     1       6.373  -8.499  -1.478  0.00  0.00    -0.453 OA
ENDBRANCH  26  28
ENDBRANCH  23  24
ENDBRANCH   5  23
TORSDOF 7
