REMARK  Name = ZINC40355097
REMARK  11 active torsions:
REMARK  status: ('A' for Active; 'I' for Inactive)
REMARK    1  A    between atoms: C_1  and  N_2
REMARK    2  A    between atoms: N_2  and  C_3
REMARK    3  A    between atoms: N_2  and  C_4
REMARK    4  A    between atoms: C_4  and  C_5
REMARK    5  A    between atoms: C_5  and  N_6
REMARK    6  A    between atoms: C_7  and  C_9
REMARK    7  A    between atoms: C_9  and  C_11
REMARK    8  A    between atoms: C_9  and  N_18
REMARK    9  A    between atoms: C_11  and  C_12
REMARK   10  A    between atoms: C_19  and  C_21
REMARK   11  A    between atoms: C_24  and  C_27
REMARK                            x       y       z     vdW  Elec       q    Type
REMARK                         _______ _______ _______ _____ _____    ______ ____
ROOT
ATOM      1  C   UNL     1       0.859  -0.861   6.083  0.00  0.00    +0.163 C 
ENDROOT
BRANCH   1   3
ATOM      2  N   UNL     1       0.637  -0.589   3.635  0.00  0.00    -0.316 N 
ATOM      3  C   UNL     1       0.130  -0.362   4.862  0.00  0.00    +0.234 C 
ATOM      4  O   UNL     1      -0.914   0.244   4.985  0.00  0.00    -0.274 OA
ATOM      5  H   UNL     1       1.472  -1.073   3.537  0.00  0.00    +0.149 HD
BRANCH   2   6
ATOM      6  C   UNL     1      -0.071  -0.103   2.448  0.00  0.00    +0.085 C 
BRANCH   6   7
ATOM      7  C   UNL     1       0.713  -0.491   1.192  0.00  0.00    -0.061 C 
BRANCH   7   9
ATOM      8  C   UNL     1      -0.018   1.465   0.010  0.00  0.00    -0.097 C 
ATOM      9  N   UNL     1       0.002  -0.004   0.002  0.00  0.00    +0.377 N 
ATOM     10  C   UNL     1       0.690  -0.478  -1.207  0.00  0.00    -0.097 C 
ATOM     11  H   UNL     1      -0.945  -0.353   0.009  0.00  0.00    -0.083 HD
ENDBRANCH   7   9
ENDBRANCH   6   7
ENDBRANCH   2   6
ENDBRANCH   1   3
BRANCH   1  12
ATOM     12  N   UNL     1       0.108  -0.490   7.286  0.00  0.00    -0.301 N 
ATOM     13  C   UNL     1       0.747  -0.361   8.466  0.00  0.00    +0.257 C 
ATOM     14  O   UNL     1       1.943  -0.552   8.532  0.00  0.00    -0.272 OA
ATOM     15  H   UNL     1      -0.848  -0.338   7.233  0.00  0.00    +0.150 HD
BRANCH  13  16
ATOM     16  C   UNL     1      -0.025   0.020   9.702  0.00  0.00    +0.295 C 
ATOM     17  C   UNL     1      -0.542   1.476   9.606  0.00  0.00    +0.116 C 
ATOM     18  C   UNL     1      -0.382   1.977  11.028  0.00  0.00    +0.091 C 
ATOM     19  N   UNL     1       0.394   1.161  11.661  0.00  0.00    -0.088 NA
ATOM     20  O   UNL     1       0.844   0.091  10.851  0.00  0.00    -0.380 OA
BRANCH  18  21
ATOM     21  C   UNL     1      -1.005   3.189  11.593  0.00  0.00    +0.003 A 
ATOM     22  C   UNL     1      -1.832   3.986  10.798  0.00  0.00    +0.013 A 
ATOM     23  C   UNL     1      -2.414   5.119  11.327  0.00  0.00    +0.050 A 
ATOM     24  C   UNL     1      -2.181   5.471  12.649  0.00  0.00    +0.166 A 
ATOM     25  C   UNL     1      -1.356   4.679  13.448  0.00  0.00    +0.167 A 
ATOM     26  C   UNL     1      -0.775   3.540  12.925  0.00  0.00    +0.059 A 
ATOM     27  O   UNL     1      -1.290   5.237  14.693  0.00  0.00    -0.453 OA
ATOM     28  C   UNL     1      -1.750   6.591  14.532  0.00  0.00    +0.466 C 
ATOM     29  O   UNL     1      -2.630   6.521  13.395  0.00  0.00    -0.453 OA
ENDBRANCH  18  21
ENDBRANCH  13  16
ENDBRANCH   1  12
BRANCH   1  30
ATOM     30  C   UNL     1       0.989  -2.384   6.013  0.00  0.00    +0.067 C 
BRANCH  30  31
ATOM     31  C   UNL     1       1.823  -2.871   7.169  0.00  0.00    -0.045 A 
ATOM     32  C   UNL     1       3.195  -2.974   7.037  0.00  0.00    +0.004 A 
ATOM     33  C   UNL     1       3.960  -3.421   8.098  0.00  0.00    +0.000 A 
ATOM     34  C   UNL     1       3.353  -3.765   9.291  0.00  0.00    +0.000 A 
ATOM     35  C   UNL     1       1.981  -3.661   9.424  0.00  0.00    +0.000 A 
ATOM     36  C   UNL     1       1.216  -3.210   8.364  0.00  0.00    +0.004 A 
ENDBRANCH  30  31
ENDBRANCH   1  30
TORSDOF 9
