REMARK  Name = ZINC00085209
REMARK  3 active torsions:
REMARK  status: ('A' for Active; 'I' for Inactive)
REMARK    1  A    between atoms: C_1  and  C_2
REMARK    2  A    between atoms: C_5  and  C_8
REMARK    3  A    between atoms: C_11  and  C_19
REMARK                            x       y       z     vdW  Elec       q    Type
REMARK                         _______ _______ _______ _____ _____    ______ ____
ROOT
ATOM      1  C   UNL     1       0.059  -4.275  -0.021  0.00  0.00    +0.144 C 
ATOM      2  C   UNL     1      -1.178  -4.810   0.711  0.00  0.00    +0.059 C 
ATOM      3  C   UNL     1      -1.028  -6.316   0.952  0.00  0.00    +0.106 C 
ATOM      4  N   UNL     1       0.142  -6.541   1.823  0.00  0.00    -0.305 N 
ATOM      5  C   UNL     1       1.280  -5.806   1.522  0.00  0.00    +0.236 A 
ATOM      6  N   UNL     1       1.258  -4.753   0.663  0.00  0.00    -0.206 N 
ATOM      7  N   UNL     1       2.569  -4.282   0.611  0.00  0.00    -0.042 NA
ATOM      8  N   UNL     1       3.263  -5.038   1.399  0.00  0.00    -0.021 NA
ATOM      9  N   UNL     1       2.506  -5.936   1.943  0.00  0.00    -0.092 NA
ATOM     10  H   UNL     1       0.117  -7.167   2.564  0.00  0.00    +0.150 HD
ENDROOT
BRANCH   1  15
ATOM     11  C   UNL     1      -0.018   1.503   0.010  0.00  0.00    +0.044 C 
ATOM     12  C   UNL     1       0.002  -0.004   0.002  0.00  0.00    -0.050 A 
ATOM     13  C   UNL     1       0.006  -0.689  -1.199  0.00  0.00    +0.004 A 
ATOM     14  C   UNL     1       0.025  -2.071  -1.206  0.00  0.00    +0.006 A 
ATOM     15  C   UNL     1       0.040  -2.768  -0.013  0.00  0.00    -0.023 A 
ATOM     16  C   UNL     1       0.037  -2.084   1.188  0.00  0.00    +0.006 A 
ATOM     17  C   UNL     1       0.023  -0.702   1.195  0.00  0.00    +0.004 A 
ENDBRANCH   1  15
BRANCH   3  18
ATOM     18  C   UNL     1      -2.270  -6.847   1.621  0.00  0.00    -0.027 A 
ATOM     19  C   UNL     1      -2.449  -6.679   2.981  0.00  0.00    +0.005 A 
ATOM     20  C   UNL     1      -3.588  -7.166   3.594  0.00  0.00    +0.000 A 
ATOM     21  C   UNL     1      -4.548  -7.821   2.846  0.00  0.00    +0.000 A 
ATOM     22  C   UNL     1      -4.370  -7.989   1.486  0.00  0.00    +0.000 A 
ATOM     23  C   UNL     1      -3.233  -7.498   0.872  0.00  0.00    +0.005 A 
ENDBRANCH   3  18
TORSDOF 2
