REMARK  Name = ZINC24838958
REMARK  7 active torsions:
REMARK  status: ('A' for Active; 'I' for Inactive)
REMARK    1  A    between atoms: C_1  and  C_2
REMARK    2  A    between atoms: C_3  and  C_28
REMARK    3  A    between atoms: N_9  and  C_23
REMARK    4  A    between atoms: C_10  and  S_12
REMARK    5  A    between atoms: S_12  and  C_13
REMARK    6  A    between atoms: C_13  and  C_14
REMARK    7  A    between atoms: N_19  and  C_20
REMARK                            x       y       z     vdW  Elec       q    Type
REMARK                         _______ _______ _______ _____ _____    ______ ____
ROOT
ATOM      1  C   UNL     1       6.979   7.254   0.522  0.00  0.00    +0.045 C 
ATOM      2  C   UNL     1       6.533   5.830   0.310  0.00  0.00    -0.026 A 
ATOM      3  C   UNL     1       7.434   4.838   0.261  0.00  0.00    -0.008 A 
ATOM      4  S   UNL     1       6.434   3.385  -0.001  0.00  0.00    -0.073 S 
ATOM      5  C   UNL     1       4.835   4.153  -0.036  0.00  0.00    +0.117 A 
ATOM      6  C   UNL     1       5.123   5.517   0.156  0.00  0.00    +0.075 A 
ATOM      7  C   UNL     1       3.994   6.395   0.172  0.00  0.00    +0.263 A 
ATOM      8  O   UNL     1       4.146   7.594   0.333  0.00  0.00    -0.267 OA
ATOM      9  N   UNL     1       2.761   5.881   0.007  0.00  0.00    -0.284 N 
ATOM     10  C   UNL     1       2.572   4.541  -0.174  0.00  0.00    +0.173 A 
ATOM     11  N   UNL     1       3.593   3.709  -0.188  0.00  0.00    -0.216 NA
ATOM     12  C   UNL     1       8.932   4.929   0.394  0.00  0.00    +0.052 C 
ENDROOT
BRANCH   9  13
ATOM     13  C   UNL     1       1.601   6.775   0.023  0.00  0.00    +0.093 C 
ATOM     14  C   UNL     1       1.714   7.807  -1.118  0.00  0.00    +0.025 C 
ATOM     15  C   UNL     1       1.143   9.112  -0.508  0.00  0.00    +0.002 C 
ATOM     16  C   UNL     1       1.664   9.064   0.950  0.00  0.00    +0.002 C 
ATOM     17  C   UNL     1       1.569   7.574   1.337  0.00  0.00    +0.025 C 
ENDBRANCH   9  13
BRANCH  10  18
ATOM     18  S   UNL     1       0.938   3.915  -0.386  0.00  0.00    -0.078 S 
BRANCH  18  19
ATOM     19  C   UNL     1       1.299   2.152  -0.575  0.00  0.00    +0.173 C 
BRANCH  19  20
ATOM     20  C   UNL     1       0.012   1.394  -0.774  0.00  0.00    +0.231 C 
ATOM     21  O   UNL     1      -1.044   1.988  -0.792  0.00  0.00    -0.274 OA
ATOM     22  N   UNL     1       0.036   0.056  -0.938  0.00  0.00    -0.239 N 
ATOM     23  C   UNL     1      -1.115  -0.622  -1.116  0.00  0.00    +0.306 C 
ATOM     24  O   UNL     1      -2.175  -0.027  -1.129  0.00  0.00    -0.252 OA
ATOM     25  N   UNL     1      -1.091  -1.959  -1.280  0.00  0.00    -0.296 N 
ATOM     26  H   UNL     1       0.995  -0.482  -0.926  0.00  0.00    +0.159 HD
ATOM     27  H   UNL     1      -0.132  -2.498  -1.268  0.00  0.00    +0.151 HD
BRANCH  25  28
ATOM     28  C   UNL     1      -2.342  -2.696  -1.474  0.00  0.00    +0.075 C 
ATOM     29  C   UNL     1      -2.518  -4.005  -0.702  0.00  0.00    +0.024 C 
ATOM     30  C   UNL     1      -2.267  -4.034  -2.212  0.00  0.00    +0.024 C 
ENDBRANCH  25  28
ENDBRANCH  19  20
ENDBRANCH  18  19
ENDBRANCH  10  18
TORSDOF 5
