REMARK  Name = ZINC59060374
REMARK  12 active torsions:
REMARK  status: ('A' for Active; 'I' for Inactive)
REMARK    1  A    between atoms: C_1  and  C_2
REMARK    2  A    between atoms: C_2  and  C_3
REMARK    3  A    between atoms: C_2  and  C_4
REMARK    4  A    between atoms: C_10  and  C_12
REMARK    5  A    between atoms: C_12  and  S_13
REMARK    6  A    between atoms: S_13  and  C_14
REMARK    7  A    between atoms: C_17  and  S_19
REMARK    8  A    between atoms: S_19  and  C_20
REMARK    9  A    between atoms: C_20  and  C_21
REMARK   10  A    between atoms: C_27  and  C_29
REMARK   11  A    between atoms: C_29  and  C_30
REMARK   12  A    between atoms: C_29  and  C_31
REMARK                            x       y       z     vdW  Elec       q    Type
REMARK                         _______ _______ _______ _____ _____    ______ ____
ROOT
ATOM      1  C   UNL     1      -9.939  -3.520   0.331  0.00  0.00    +0.160 A 
ATOM      2  N   UNL     1     -10.064  -4.245  -0.764  0.00  0.00    -0.134 NA
ATOM      3  N   UNL     1     -11.262  -4.862  -1.043  0.00  0.00    -0.134 NA
ATOM      4  C   UNL     1     -12.279  -4.726  -0.214  0.00  0.00    +0.160 A 
ATOM      5  S   UNL     1     -11.565  -3.687   1.051  0.00  0.00    -0.033 S 
ENDROOT
BRANCH   1   6
ATOM      6  S   UNL     1      -8.540  -2.631   0.927  0.00  0.00    -0.088 S 
BRANCH   6   7
ATOM      7  C   UNL     1      -7.265  -2.924  -0.330  0.00  0.00    +0.172 C 
BRANCH   7  14
ATOM      8  C   UNL     1      -1.412  -0.526   0.013  0.00  0.00    +0.106 A 
ATOM      9  N   UNL     1      -2.373  -0.344   0.896  0.00  0.00    -0.144 NA
ATOM     10  N   UNL     1      -3.498  -0.884   0.700  0.00  0.00    -0.126 NA
ATOM     11  C   UNL     1      -3.739  -1.626  -0.364  0.00  0.00    +0.188 A 
ATOM     12  S   UNL     1      -2.261  -1.559  -1.172  0.00  0.00    -0.035 S 
ATOM     13  N   UNL     1      -4.908  -2.286  -0.726  0.00  0.00    -0.263 N 
ATOM     14  C   UNL     1      -5.998  -2.209   0.063  0.00  0.00    +0.229 C 
ATOM     15  O   UNL     1      -5.959  -1.565   1.090  0.00  0.00    -0.275 OA
ATOM     16  H   UNL     1      -4.940  -2.801  -1.548  0.00  0.00    +0.157 HD
BRANCH   8  18
ATOM     17  C   UNL     1      -0.019   1.526   0.010  0.00  0.00    +0.014 C 
ATOM     18  C   UNL     1       0.002  -0.004   0.002  0.00  0.00    +0.040 C 
ATOM     19  C   UNL     1       0.742  -0.511   1.242  0.00  0.00    +0.014 C 
ENDBRANCH   8  18
ENDBRANCH   7  14
ENDBRANCH   6   7
ENDBRANCH   1   6
BRANCH   4  20
ATOM     20  S   UNL     1     -13.905  -5.397  -0.322  0.00  0.00    -0.088 S 
BRANCH  20  21
ATOM     21  C   UNL     1     -13.885  -6.348  -1.867  0.00  0.00    +0.172 C 
BRANCH  21  22
ATOM     22  C   UNL     1     -15.235  -6.983  -2.083  0.00  0.00    +0.229 C 
ATOM     23  O   UNL     1     -16.122  -6.811  -1.274  0.00  0.00    -0.275 OA
ATOM     24  N   UNL     1     -15.456  -7.742  -3.174  0.00  0.00    -0.263 N 
ATOM     25  C   UNL     1     -16.701  -8.328  -3.373  0.00  0.00    +0.188 A 
ATOM     26  N   UNL     1     -17.783  -8.257  -2.623  0.00  0.00    -0.126 NA
ATOM     27  N   UNL     1     -18.854  -8.850  -2.938  0.00  0.00    -0.144 NA
ATOM     28  C   UNL     1     -18.891  -9.560  -4.047  0.00  0.00    +0.106 A 
ATOM     29  S   UNL     1     -17.224  -9.309  -4.641  0.00  0.00    -0.035 S 
ATOM     30  H   UNL     1     -14.746  -7.880  -3.821  0.00  0.00    +0.157 HD
BRANCH  28  31
ATOM     31  C   UNL     1     -20.021 -10.355  -4.649  0.00  0.00    +0.040 C 
ATOM     32  C   UNL     1     -20.457 -11.445  -3.667  0.00  0.00    +0.014 C 
ATOM     33  C   UNL     1     -21.202  -9.425  -4.935  0.00  0.00    +0.014 C 
ENDBRANCH  28  31
ENDBRANCH  21  22
ENDBRANCH  20  21
ENDBRANCH   4  20
TORSDOF 8
