REMARK  Name = ZINC12858393
REMARK  12 active torsions:
REMARK  status: ('A' for Active; 'I' for Inactive)
REMARK    1  A    between atoms: C_1  and  C_2
REMARK    2  A    between atoms: C_5  and  C_43
REMARK    3  A    between atoms: C_9  and  C_10
REMARK    4  A    between atoms: C_9  and  N_87
REMARK    5  A    between atoms: C_10  and  C_11
REMARK    6  A    between atoms: C_11  and  O_13
REMARK    7  A    between atoms: O_13  and  C_14
REMARK    8  A    between atoms: C_18  and  C_42
REMARK    9  A    between atoms: C_23  and  C_41
REMARK   10  A    between atoms: C_33  and  C_40
REMARK   11  A    between atoms: C_35  and  C_37
REMARK   12  A    between atoms: C_37  and  C_39
REMARK                            x       y       z     vdW  Elec       q    Type
REMARK                         _______ _______ _______ _____ _____    ______ ____
ROOT
ATOM      1  C   UNL     1       7.642   0.147   2.248  0.00  0.00    +0.180 C 
ATOM      2  C   UNL     1       7.828  -0.697   0.990  0.00  0.00    +0.046 C 
ATOM      3  C   UNL     1       6.731  -1.747   0.858  0.00  0.00    +0.015 C 
ATOM      4  C   UNL     1       5.340  -1.089   0.807  0.00  0.00    -0.008 C 
ATOM      5  C   UNL     1       4.287  -2.169   0.720  0.00  0.00    +0.003 C 
ATOM      6  C   UNL     1       3.998  -2.610  -0.707  0.00  0.00    +0.005 C 
ATOM      7  C   UNL     1       2.930  -1.825  -1.460  0.00  0.00    +0.008 C 
ATOM      8  C   UNL     1       1.720  -1.552  -0.601  0.00  0.00    -0.019 C 
ATOM      9  C   UNL     1       2.177  -0.893   0.723  0.00  0.00    -0.000 C 
ATOM     10  C   UNL     1       3.003  -1.884   1.497  0.00  0.00    +0.000 C 
ATOM     11  C   UNL     1       3.300  -1.410   2.914  0.00  0.00    +0.031 C 
ATOM     12  C   UNL     1       4.285  -0.281   2.898  0.00  0.00    -0.027 C 
ATOM     13  C   UNL     1       5.218  -0.188   2.002  0.00  0.00    -0.064 C 
ATOM     14  C   UNL     1       6.292   0.871   2.194  0.00  0.00    +0.075 C 
ATOM     15  C   UNL     1       0.845  -0.456   1.341  0.00  0.00    +0.008 C 
ATOM     16  C   UNL     1       0.053   0.080   0.117  0.00  0.00    -0.003 C 
ATOM     17  C   UNL     1       0.735  -0.508  -1.144  0.00  0.00    +0.064 C 
ATOM     18  C   UNL     1       0.116   1.609   0.081  0.00  0.00    +0.008 C 
ATOM     19  C   UNL     1       0.947  -2.849  -0.359  0.00  0.00    +0.012 C 
ATOM     20  C   UNL     1       5.305  -0.203  -0.437  0.00  0.00    +0.016 C 
ENDROOT
BRANCH  17  21
ATOM     21  C   UNL     1      -0.284  -1.175  -2.029  0.00  0.00    +0.134 C 
ATOM     22  O   UNL     1      -1.315  -1.591  -1.556  0.00  0.00    -0.297 OA
ATOM     23  C   UNL     1      -0.018  -1.325  -3.505  0.00  0.00    +0.086 C 
ENDBRANCH  17  21
BRANCH   1  24
ATOM     24  O   UNL     1       8.710   1.127   2.339  0.00  0.00    -0.461 OA
BRANCH  24  25
ATOM     25  C   UNL     1       9.091   1.502   3.571  0.00  0.00    +0.306 C 
ATOM     26  O   UNL     1       8.550   1.027   4.541  0.00  0.00    -0.251 OA
BRANCH  25  27
ATOM     27  C   UNL     1      10.193   2.515   3.743  0.00  0.00    +0.102 C 
BRANCH  27  28
ATOM     28  C   UNL     1      10.429   2.763   5.234  0.00  0.00    -0.068 C 
BRANCH  28  36
ATOM     29  C   UNL     1      12.904   5.579   8.418  0.00  0.00    +0.005 C 
ATOM     30  C   UNL     1      12.817   5.103   6.966  0.00  0.00    -0.031 C 
ATOM     31  C   UNL     1      12.671   6.313   6.039  0.00  0.00    +0.003 C 
ATOM     32  C   UNL     1      12.524   5.825   4.595  0.00  0.00    -0.031 C 
ATOM     33  C   UNL     1      11.316   4.891   4.498  0.00  0.00    -0.076 C 
ATOM     34  C   UNL     1      11.600   4.190   6.800  0.00  0.00    -0.076 C 
ATOM     35  C   UNL     1      12.319   7.026   3.669  0.00  0.00    +0.005 C 
ATOM     36  N   UNL     1      11.529   3.736   5.395  0.00  0.00    +0.380 N 
ATOM     37  H   UNL     1      12.416   3.281   5.147  0.00  0.00    -0.082 HD
ENDBRANCH  28  36
ENDBRANCH  27  28
ENDBRANCH  25  27
ENDBRANCH  24  25
ENDBRANCH   1  24
TORSDOF 6
