REMARK  Name = ZINC39766914
REMARK  11 active torsions:
REMARK  status: ('A' for Active; 'I' for Inactive)
REMARK    1  A    between atoms: C_1  and  C_2
REMARK    2  A    between atoms: C_2  and  N_3
REMARK    3  A    between atoms: C_4  and  C_22
REMARK    4  A    between atoms: C_7  and  S_8
REMARK    5  A    between atoms: S_8  and  C_9
REMARK    6  A    between atoms: C_9  and  C_11
REMARK    7  A    between atoms: C_9  and  C_12
REMARK    8  A    between atoms: N_14  and  C_15
REMARK    9  A    between atoms: C_18  and  C_21
REMARK   10  A    between atoms: C_22  and  N_23
REMARK   11  A    between atoms: C_24  and  C_26
REMARK                            x       y       z     vdW  Elec       q    Type
REMARK                         _______ _______ _______ _____ _____    ______ ____
ROOT
ATOM      1  N   UNL     1       0.684  -0.485  -1.191  0.00  0.00    -0.305 N 
ATOM      2  C   UNL     1       0.118  -0.764  -2.404  0.00  0.00    +0.151 A 
ATOM      3  N   UNL     1       1.074  -1.162  -3.195  0.00  0.00    -0.132 NA
ATOM      4  N   UNL     1       2.197  -1.153  -2.570  0.00  0.00    -0.122 NA
ATOM      5  C   UNL     1       2.017  -0.741  -1.337  0.00  0.00    +0.192 A 
ENDROOT
BRANCH   1   7
ATOM      6  C   UNL     1      -0.019   1.525   0.012  0.00  0.00    +0.027 C 
ATOM      7  C   UNL     1       0.002  -0.005   0.014  0.00  0.00    +0.122 C 
ENDBRANCH   1   7
BRANCH   5   8
ATOM      8  S   UNL     1       3.261  -0.557  -0.102  0.00  0.00    -0.074 S 
BRANCH   8   9
ATOM      9  C   UNL     1       4.789  -1.058  -0.941  0.00  0.00    +0.137 C 
ATOM     10  C   UNL     1       5.099  -0.071  -2.068  0.00  0.00    +0.029 C 
BRANCH   9  11
ATOM     11  C   UNL     1       5.926  -1.063   0.049  0.00  0.00    +0.230 C 
ATOM     12  O   UNL     1       5.835  -0.434   1.081  0.00  0.00    -0.274 OA
ATOM     13  N   UNL     1       7.045  -1.767  -0.214  0.00  0.00    -0.285 N 
ATOM     14  H   UNL     1       7.093  -2.324  -1.008  0.00  0.00    +0.155 HD
BRANCH  13  15
ATOM     15  C   UNL     1       8.138  -1.695   0.656  0.00  0.00    +0.033 A 
ATOM     16  C   UNL     1       9.432  -1.742   0.154  0.00  0.00    +0.023 A 
ATOM     17  C   UNL     1      10.508  -1.671   1.017  0.00  0.00    +0.005 A 
ATOM     18  C   UNL     1      10.299  -1.553   2.378  0.00  0.00    -0.050 A 
ATOM     19  C   UNL     1       9.012  -1.506   2.881  0.00  0.00    +0.005 A 
ATOM     20  C   UNL     1       7.931  -1.571   2.024  0.00  0.00    +0.023 A 
ATOM     21  C   UNL     1      11.476  -1.476   3.316  0.00  0.00    +0.044 C 
ENDBRANCH  13  15
ENDBRANCH   9  11
ENDBRANCH   8   9
ENDBRANCH   5   8
BRANCH   2  22
ATOM     22  C   UNL     1      -1.341  -0.636  -2.760  0.00  0.00    +0.181 C 
BRANCH  22  23
ATOM     23  N   UNL     1      -1.601   0.710  -3.274  0.00  0.00    -0.304 N 
ATOM     24  C   UNL     1      -2.846   1.056  -3.658  0.00  0.00    +0.244 C 
ATOM     25  O   UNL     1      -3.753   0.249  -3.578  0.00  0.00    -0.270 OA
ATOM     26  H   UNL     1      -0.878   1.353  -3.338  0.00  0.00    +0.149 HD
BRANCH  24  27
ATOM     27  C   UNL     1      -3.110   2.414  -4.177  0.00  0.00    +0.038 A 
ATOM     28  C   UNL     1      -2.069   3.340  -4.276  0.00  0.00    +0.014 A 
ATOM     29  C   UNL     1      -2.320   4.606  -4.761  0.00  0.00    +0.022 A 
ATOM     30  C   UNL     1      -3.601   4.961  -5.149  0.00  0.00    +0.059 A 
ATOM     31  C   UNL     1      -4.638   4.047  -5.053  0.00  0.00    +0.060 A 
ATOM     32  C   UNL     1      -4.398   2.774  -4.575  0.00  0.00    +0.034 A 
ATOM     33 CL   UNL     1      -6.241   4.500  -5.542  0.00  0.00    -0.082 Cl
ATOM     34 CL   UNL     1      -3.910   6.558  -5.757  0.00  0.00    -0.082 Cl
ENDBRANCH  24  27
ENDBRANCH  22  23
ENDBRANCH   2  22
TORSDOF 8
