REMARK  Name = ZINC21155547
REMARK  11 active torsions:
REMARK  status: ('A' for Active; 'I' for Inactive)
REMARK    1  A    between atoms: C_1  and  C_2
REMARK    2  A    between atoms: C_5  and  C_8
REMARK    3  A    between atoms: N_16  and  C_17
REMARK    4  A    between atoms: C_17  and  C_18
REMARK    5  A    between atoms: C_18  and  C_19
REMARK    6  A    between atoms: C_19  and  N_20
REMARK    7  A    between atoms: N_20  and  S_21
REMARK    8  A    between atoms: S_21  and  C_24
REMARK    9  A    between atoms: C_26  and  C_34
REMARK   10  A    between atoms: C_29  and  N_30
REMARK   11  A    between atoms: C_31  and  C_33
REMARK                            x       y       z     vdW  Elec       q    Type
REMARK                         _______ _______ _______ _____ _____    ______ ____
ROOT
ATOM      1  C   UNL     1      -0.906   4.189   3.203  0.00  0.00    +0.038 C 
ENDROOT
BRANCH   1   2
ATOM      2  C   UNL     1       0.588   3.952   3.436  0.00  0.00    +0.126 C 
BRANCH   2  11
ATOM      3  C   UNL     1       1.571   5.973   4.597  0.00  0.00    +0.143 A 
ATOM      4  N   UNL     1       1.843   6.347   5.823  0.00  0.00    -0.226 NA
ATOM      5  C   UNL     1       1.501   5.359   6.683  0.00  0.00    +0.109 A 
ATOM      6  C   UNL     1       1.575   5.219   8.074  0.00  0.00    +0.033 A 
ATOM      7  C   UNL     1       1.124   4.040   8.636  0.00  0.00    +0.022 A 
ATOM      8  C   UNL     1       0.618   3.042   7.818  0.00  0.00    +0.113 A 
ATOM      9  N   UNL     1       0.557   3.192   6.511  0.00  0.00    -0.236 NA
ATOM     10  C   UNL     1       0.975   4.300   5.919  0.00  0.00    +0.161 A 
ATOM     11  N   UNL     1       1.027   4.716   4.606  0.00  0.00    -0.309 N 
BRANCH   3  16
ATOM     12  C   UNL     1       2.512   9.140  -0.115  0.00  0.00    +0.044 C 
ATOM     13  C   UNL     1       2.266   8.310   1.119  0.00  0.00    -0.050 A 
ATOM     14  C   UNL     1       2.964   8.582   2.282  0.00  0.00    +0.004 A 
ATOM     15  C   UNL     1       2.743   7.826   3.415  0.00  0.00    +0.012 A 
ATOM     16  C   UNL     1       1.813   6.786   3.386  0.00  0.00    +0.018 A 
ATOM     17  C   UNL     1       1.117   6.514   2.208  0.00  0.00    +0.012 A 
ATOM     18  C   UNL     1       1.343   7.280   1.083  0.00  0.00    +0.004 A 
ENDBRANCH   3  16
ENDBRANCH   2  11
ENDBRANCH   1   2
BRANCH   1  19
ATOM     19  C   UNL     1      -1.365   3.392   1.981  0.00  0.00    +0.107 C 
BRANCH  19  20
ATOM     20  N   UNL     1      -2.795   3.618   1.758  0.00  0.00    -0.190 NA
ATOM     21  H   UNL     1      -3.438   3.931   2.594  0.00  0.00    +0.148 HD
BRANCH  20  22
ATOM     22  S   UNL     1      -3.491   3.170   0.324  0.00  0.00    +0.060 S 
ATOM     23  O   UNL     1      -2.685   3.722  -0.708  0.00  0.00    -0.153 OA
ATOM     24  O   UNL     1      -4.878   3.453   0.441  0.00  0.00    -0.153 OA
BRANCH  22  25
ATOM     25  C   UNL     1      -3.342   1.419   0.198  0.00  0.00    +0.127 A 
ATOM     26  C   UNL     1      -2.567   0.862  -0.801  0.00  0.00    +0.033 A 
ATOM     27  C   UNL     1      -2.454  -0.513  -0.904  0.00  0.00    -0.048 A 
ATOM     28  C   UNL     1      -3.112  -1.333  -0.006  0.00  0.00    +0.005 A 
ATOM     29  C   UNL     1      -3.884  -0.782   0.998  0.00  0.00    +0.025 A 
ATOM     30  C   UNL     1      -3.999   0.598   1.105  0.00  0.00    +0.060 A 
ATOM     31  C   UNL     1      -1.613  -1.118  -1.999  0.00  0.00    +0.044 C 
BRANCH  30  32
ATOM     32  N   UNL     1      -4.780   1.160   2.120  0.00  0.00    -0.284 N 
ATOM     33  C   UNL     1      -5.761   0.436   2.695  0.00  0.00    +0.214 C 
ATOM     34  O   UNL     1      -6.033  -0.665   2.265  0.00  0.00    -0.276 OA
ATOM     35  C   UNL     1      -6.513   0.991   3.877  0.00  0.00    +0.109 C 
ATOM     36  H   UNL     1      -4.595   2.193   2.449  0.00  0.00    +0.155 HD
ENDBRANCH  30  32
ENDBRANCH  22  25
ENDBRANCH  20  22
ENDBRANCH  19  20
ENDBRANCH   1  19
TORSDOF 8
