REMARK  Name = ZINC63375801
REMARK  10 active torsions:
REMARK  status: ('A' for Active; 'I' for Inactive)
REMARK    1  A    between atoms: C_1  and  C_2
REMARK    2  A    between atoms: C_2  and  C_3
REMARK    3  A    between atoms: C_2  and  C_4
REMARK    4  A    between atoms: C_4  and  N_5
REMARK    5  A    between atoms: C_6  and  O_34
REMARK    6  A    between atoms: C_8  and  C_19
REMARK    7  A    between atoms: N_12  and  C_15
REMARK    8  A    between atoms: C_15  and  C_16
REMARK    9  A    between atoms: C_16  and  C_17
REMARK   10  A    between atoms: C_16  and  C_18
REMARK                            x       y       z     vdW  Elec       q    Type
REMARK                         _______ _______ _______ _____ _____    ______ ____
ROOT
ATOM      1  N   UNL     1      -1.432  -2.123   0.067  0.00  0.00    -0.258 N 
ATOM      2  C   UNL     1      -1.443  -2.609  -1.314  0.00  0.00    +0.219 C 
ATOM      3  C   UNL     1      -2.278  -3.889  -1.399  0.00  0.00    +0.142 C 
ATOM      4  C   UNL     1      -1.881  -4.814  -0.276  0.00  0.00    +0.232 C 
ATOM      5  O   UNL     1      -1.891  -6.014  -0.447  0.00  0.00    -0.275 OA
ATOM      6  N   UNL     1      -1.515  -4.307   0.915  0.00  0.00    -0.225 N 
ATOM      7  C   UNL     1      -1.406  -2.980   1.100  0.00  0.00    +0.313 C 
ATOM      8  O   UNL     1      -1.286  -2.545   2.229  0.00  0.00    -0.252 OA
ENDROOT
BRANCH   3   9
ATOM      9  C   UNL     1      -3.762  -3.541  -1.275  0.00  0.00    +0.096 C 
ATOM     10  C   UNL     1      -4.192  -2.682  -2.467  0.00  0.00    +0.124 C 
ATOM     11  C   UNL     1      -5.622  -2.240  -2.181  0.00  0.00    -0.036 C 
ATOM     12  C   UNL     1      -6.343  -2.598  -3.234  0.00  0.00    -0.001 A 
ATOM     13  C   UNL     1      -7.756  -2.371  -3.580  0.00  0.00    +0.010 A 
ATOM     14  C   UNL     1      -8.177  -2.901  -4.759  0.00  0.00    +0.001 A 
ATOM     15  C   UNL     1      -7.345  -3.625  -5.618  0.00  0.00    +0.002 A 
ATOM     16  C   UNL     1      -6.032  -3.876  -5.383  0.00  0.00    +0.026 A 
ATOM     17  C   UNL     1      -5.472  -3.365  -4.177  0.00  0.00    +0.043 A 
ATOM     18  N   UNL     1      -4.237  -3.437  -3.718  0.00  0.00    -0.376 N 
ATOM     19  C   UNL     1      -6.011  -1.620  -0.861  0.00  0.00    +0.048 C 
ATOM     20  C   UNL     1      -5.408  -2.522   0.232  0.00  0.00    +0.085 C 
ATOM     21  N   UNL     1      -3.990  -2.770  -0.042  0.00  0.00    -0.310 NA
ATOM     22  H   UNL     1      -3.540  -3.209   0.747  0.00  0.00    +0.122 HD
ATOM     23  H   UNL     1      -3.492  -3.906  -4.125  0.00  0.00    +0.160 HD
ENDBRANCH   3   9
BRANCH   2  24
ATOM     24  O   UNL     1      -0.105  -2.884  -1.734  0.00  0.00    -0.373 OA
ATOM     25  H   UNL     1       0.481  -2.116  -1.706  0.00  0.00    +0.212 HD
ENDBRANCH   2  24
BRANCH   1  26
ATOM     26  C   UNL     1      -1.442  -0.680   0.325  0.00  0.00    +0.115 C 
BRANCH  26  28
ATOM     27  C   UNL     1      -0.014   1.359   0.536  0.00  0.00    +0.009 C 
ATOM     28  C   UNL     1      -0.003  -0.164   0.391  0.00  0.00    +0.000 C 
ATOM     29  C   UNL     1       0.707  -0.786   1.595  0.00  0.00    +0.009 C 
ENDBRANCH  26  28
ENDBRANCH   1  26
BRANCH   6  30
ATOM     30  C   UNL     1      -1.226  -5.215   2.028  0.00  0.00    +0.121 C 
BRANCH  30  31
ATOM     31  C   UNL     1       0.259  -5.583   2.013  0.00  0.00    +0.001 C 
ATOM     32  C   UNL     1       1.097  -4.332   2.283  0.00  0.00    +0.009 C 
ATOM     33  C   UNL     1       0.537  -6.626   3.097  0.00  0.00    +0.009 C 
ENDBRANCH  30  31
ENDBRANCH   6  30
TORSDOF 6
