REMARK  Name = ZINC20923358
REMARK  6 active torsions:
REMARK  status: ('A' for Active; 'I' for Inactive)
REMARK    1  A    between atoms: C_6  and  N_7
REMARK    2  A    between atoms: N_7  and  C_8
REMARK    3  A    between atoms: N_7  and  S_12
REMARK    4  A    between atoms: C_8  and  C_9
REMARK    5  A    between atoms: S_12  and  C_15
REMARK    6  A    between atoms: C_19  and  N_21
REMARK                            x       y       z     vdW  Elec       q    Type
REMARK                         _______ _______ _______ _____ _____    ______ ____
ROOT
ATOM      1  N   UNL     1       3.058   0.571  -1.599  0.00  0.00    -0.194 N 
ENDROOT
BRANCH   1   7
ATOM      2  C   UNL     1       4.063   2.739  -1.935  0.00  0.00    +0.026 A 
ATOM      3  C   UNL     1       4.880   3.578  -2.667  0.00  0.00    +0.017 A 
ATOM      4  C   UNL     1       5.504   3.113  -3.811  0.00  0.00    +0.018 A 
ATOM      5  C   UNL     1       5.317   1.805  -4.222  0.00  0.00    +0.017 A 
ATOM      6  C   UNL     1       4.506   0.960  -3.490  0.00  0.00    +0.026 A 
ATOM      7  C   UNL     1       3.878   1.424  -2.342  0.00  0.00    +0.052 A 
ATOM      8 BR   UNL     1       6.616   4.267  -4.815  0.00  0.00    -0.050 Br
ENDBRANCH   1   7
BRANCH   1   9
ATOM      9  S   UNL     1       3.430   0.228  -0.023  0.00  0.00    +0.075 S 
ATOM     10  O   UNL     1       4.835   0.396   0.108  0.00  0.00    -0.150 OA
ATOM     11  O   UNL     1       2.777  -0.994   0.293  0.00  0.00    -0.150 OA
BRANCH   9  12
ATOM     12  C   UNL     1       2.679   1.472   0.973  0.00  0.00    +0.111 A 
ATOM     13  C   UNL     1       3.409   2.579   1.363  0.00  0.00    +0.030 A 
ATOM     14  C   UNL     1       2.821   3.556   2.144  0.00  0.00    +0.024 A 
ATOM     15  C   UNL     1       1.500   3.426   2.535  0.00  0.00    +0.071 A 
ATOM     16  C   UNL     1       0.768   2.321   2.140  0.00  0.00    +0.146 A 
ATOM     17  C   UNL     1       1.359   1.342   1.363  0.00  0.00    +0.063 A 
ATOM     18 CL   UNL     1       0.760   4.652   3.516  0.00  0.00    -0.081 Cl
BRANCH  16  19
ATOM     19  N   UNL     1      -0.647   2.184   2.552  0.00  0.00    +0.058 N 
ATOM     20  O   UNL     1      -1.290   1.208   2.207  0.00  0.00    -0.126 OA
ATOM     21  O   UNL     1      -1.168   3.046   3.236  0.00  0.00    -0.126 OA
ENDBRANCH  16  19
ENDBRANCH   9  12
ENDBRANCH   1   9
BRANCH   1  22
ATOM     22  C   UNL     1       1.867  -0.020  -2.216  0.00  0.00    +0.227 C 
BRANCH  22  23
ATOM     23  C   UNL     1       0.715   0.945  -2.110  0.00  0.00    +0.230 C 
ATOM     24  O   UNL     1       0.872   2.021  -1.572  0.00  0.00    -0.274 OA
ATOM     25  N   UNL     1      -0.491   0.613  -2.612  0.00  0.00    -0.328 N 
ATOM     26  H   UNL     1      -1.332   1.317  -2.535  0.00  0.00    +0.145 HD
ATOM     27  H   UNL     1      -0.634  -0.363  -3.100  0.00  0.00    +0.145 HD
ENDBRANCH  22  23
ENDBRANCH   1  22
TORSDOF 6
