REMARK  Name = ZINC65399332
REMARK  5 active torsions:
REMARK  status: ('A' for Active; 'I' for Inactive)
REMARK    1  A    between atoms: C_1  and  C_2
REMARK    2  A    between atoms: C_7  and  C_8
REMARK    3  A    between atoms: C_11  and  C_13
REMARK    4  A    between atoms: C_21  and  C_25
REMARK    5  A    between atoms: N_27  and  C_28
REMARK                            x       y       z     vdW  Elec       q    Type
REMARK                         _______ _______ _______ _____ _____    ______ ____
ROOT
ATOM      1  C   UNL     1       0.050   1.253   6.480  0.00  0.00    +0.072 C 
ATOM      2  C   UNL     1      -1.173   0.615   7.148  0.00  0.00    +0.109 C 
ATOM      3  C   UNL     1      -1.004   0.548   8.639  0.00  0.00    +0.219 C 
ATOM      4  O   UNL     1      -1.964   0.757   9.350  0.00  0.00    -0.275 OA
ATOM      5  N   UNL     1       0.184   0.261   9.213  0.00  0.00    -0.270 N 
ATOM      6  C   UNL     1       1.315   0.218   8.397  0.00  0.00    +0.125 A 
ATOM      7  C   UNL     1       1.291   0.671   7.107  0.00  0.00    +0.033 A 
ATOM      8  C   UNL     1       2.565   0.486   6.560  0.00  0.00    +0.152 A 
ATOM      9  N   UNL     1       3.336  -0.042   7.496  0.00  0.00    -0.167 NA
ATOM     10  N   UNL     1       2.567  -0.209   8.661  0.00  0.00    -0.263 N 
ATOM     11  H   UNL     1       2.881  -0.567   9.505  0.00  0.00    +0.190 HD
ATOM     12  H   UNL     1       0.250   0.091  10.166  0.00  0.00    +0.156 HD
ENDROOT
BRANCH   1  16
ATOM     13  C   UNL     1       0.025   0.018   2.493  0.00  0.00    +0.109 A 
ATOM     14  N   UNL     1       0.003   1.323   2.721  0.00  0.00    -0.247 NA
ATOM     15  C   UNL     1       0.009   1.802   3.943  0.00  0.00    +0.123 A 
ATOM     16  C   UNL     1       0.037   0.951   5.004  0.00  0.00    +0.018 A 
ATOM     17  S   UNL     1       0.049  -0.626   4.160  0.00  0.00    -0.072 S 
BRANCH  13  24
ATOM     18  C   UNL     1      -0.018   1.503   0.010  0.00  0.00    +0.044 C 
ATOM     19  C   UNL     1       0.002  -0.004   0.002  0.00  0.00    -0.041 A 
ATOM     20  C   UNL     1       0.006  -0.689  -1.196  0.00  0.00    +0.004 A 
ATOM     21  C   UNL     1       0.025  -2.072  -1.205  0.00  0.00    +0.000 A 
ATOM     22  C   UNL     1       0.040  -2.778  -0.015  0.00  0.00    +0.001 A 
ATOM     23  C   UNL     1       0.037  -2.105   1.189  0.00  0.00    +0.011 A 
ATOM     24  C   UNL     1       0.023  -0.710   1.206  0.00  0.00    +0.010 A 
ENDBRANCH  13  24
ENDBRANCH   1  16
BRANCH   8  25
ATOM     25  C   UNL     1       2.976   0.822   5.181  0.00  0.00    +0.264 C 
ATOM     26  O   UNL     1       2.173   1.305   4.408  0.00  0.00    -0.268 OA
ATOM     27  N   UNL     1       4.242   0.591   4.781  0.00  0.00    -0.313 N 
ATOM     28  C   UNL     1       4.650   0.923   3.414  0.00  0.00    +0.128 C 
ATOM     29  H   UNL     1       4.884   0.205   5.398  0.00  0.00    +0.149 HD
ENDBRANCH   8  25
TORSDOF 3
