REMARK  Name = ZINC12135423
REMARK  7 active torsions:
REMARK  status: ('A' for Active; 'I' for Inactive)
REMARK    1  A    between atoms: C_6  and  C_7
REMARK    2  A    between atoms: C_7  and  N_68
REMARK    3  A    between atoms: C_10  and  C_13
REMARK    4  A    between atoms: C_10  and  O_32
REMARK    5  A    between atoms: C_20  and  C_22
REMARK    6  A    between atoms: N_24  and  C_25
REMARK    7  A    between atoms: C_25  and  C_26
REMARK                            x       y       z     vdW  Elec       q    Type
REMARK                         _______ _______ _______ _____ _____    ______ ____
ROOT
ATOM      1  C   UNL     1       3.959   0.268  -2.245  0.00  0.00    -0.075 C 
ATOM      2  C   UNL     1       4.253  -0.047  -3.713  0.00  0.00    +0.021 C 
ATOM      3  C   UNL     1       5.683  -0.581  -3.839  0.00  0.00    +0.088 C 
ATOM      4  C   UNL     1       5.836  -1.821  -2.954  0.00  0.00    +0.021 C 
ATOM      5  C   UNL     1       5.495  -1.454  -1.507  0.00  0.00    -0.075 C 
ATOM      6  N   UNL     1       4.099  -0.971  -1.451  0.00  0.00    +0.383 N 
ATOM      7  H   UNL     1       3.482  -1.690  -1.844  0.00  0.00    -0.081 HD
ENDROOT
BRANCH   3   8
ATOM      8  C   UNL     1       5.959  -0.949  -5.274  0.00  0.00    -0.015 A 
ATOM      9  C   UNL     1       5.685  -2.235  -5.720  0.00  0.00    +0.010 A 
ATOM     10  C   UNL     1       5.924  -2.592  -7.030  0.00  0.00    +0.047 A 
ATOM     11  C   UNL     1       6.456  -1.661  -7.915  0.00  0.00    +0.136 A 
ATOM     12  C   UNL     1       6.737  -0.361  -7.455  0.00  0.00    +0.021 A 
ATOM     13  C   UNL     1       6.481  -0.018  -6.125  0.00  0.00    +0.018 A 
ATOM     14  C   UNL     1       7.275   0.359  -8.609  0.00  0.00    +0.063 A 
ATOM     15  C   UNL     1       7.278  -0.527  -9.638  0.00  0.00    +0.190 A 
ATOM     16  O   UNL     1       6.794  -1.714  -9.218  0.00  0.00    -0.450 OA
BRANCH  15  17
ATOM     17  C   UNL     1       7.740  -0.237 -11.002  0.00  0.00    +0.279 C 
ATOM     18  O   UNL     1       8.161   0.870 -11.280  0.00  0.00    -0.267 OA
ATOM     19  N   UNL     1       7.699  -1.198 -11.947  0.00  0.00    -0.306 N 
ATOM     20  H   UNL     1       7.363  -2.081 -11.725  0.00  0.00    +0.149 HD
BRANCH  19  21
ATOM     21  C   UNL     1       8.159  -0.909 -13.307  0.00  0.00    +0.136 C 
BRANCH  21  22
ATOM     22  C   UNL     1       8.006  -2.160 -14.174  0.00  0.00    +0.135 C 
ATOM     23  C   UNL     1       8.601  -1.917 -15.579  0.00  0.00    +0.035 C 
ATOM     24  C   UNL     1       7.642  -2.671 -16.528  0.00  0.00    +0.031 C 
ATOM     25  C   UNL     1       6.582  -3.280 -15.584  0.00  0.00    +0.160 C 
ATOM     26  O   UNL     1       6.609  -2.441 -14.408  0.00  0.00    -0.375 OA
ENDBRANCH  21  22
ENDBRANCH  19  21
ENDBRANCH  15  17
ENDBRANCH   3   8
BRANCH   3  27
ATOM     27  O   UNL     1       6.607   0.424  -3.417  0.00  0.00    -0.384 OA
ATOM     28  H   UNL     1       6.565   1.240  -3.935  0.00  0.00    +0.211 HD
ENDBRANCH   3  27
BRANCH   6  29
ATOM     29  C   UNL     1       3.709  -0.718  -0.048  0.00  0.00    -0.043 C 
BRANCH  29  35
ATOM     30  C   UNL     1       1.208  -0.680  -0.016  0.00  0.00    +0.005 A 
ATOM     31  C   UNL     1       0.002  -0.004   0.002  0.00  0.00    +0.049 A 
ATOM     32  C   UNL     1      -0.017   1.382   0.010  0.00  0.00    +0.162 A 
ATOM     33  C   UNL     1       1.180   2.090   0.002  0.00  0.00    +0.162 A 
ATOM     34  C   UNL     1       2.386   1.406  -0.017  0.00  0.00    +0.051 A 
ATOM     35  C   UNL     1       2.397   0.023  -0.027  0.00  0.00    -0.060 A 
ATOM     36  O   UNL     1       1.184   3.451   0.018  0.00  0.00    -0.485 OA
ATOM     37  C   UNL     1      -0.040   4.103  -0.340  0.00  0.00    +0.270 C 
ATOM     38  C   UNL     1      -1.188   3.413   0.408  0.00  0.00    +0.270 C 
ATOM     39  O   UNL     1      -1.211   2.034   0.019  0.00  0.00    -0.485 OA
ENDBRANCH  29  35
ENDBRANCH   6  29
TORSDOF 7
