REMARK  Name = ZINC64502397
REMARK  5 active torsions:
REMARK  status: ('A' for Active; 'I' for Inactive)
REMARK    1  A    between atoms: C_7  and  C_10
REMARK    2  A    between atoms: C_10  and  C_11
REMARK    3  A    between atoms: C_11  and  N_12
REMARK    4  A    between atoms: C_13  and  C_15
REMARK    5  A    between atoms: N_20  and  C_22
REMARK                            x       y       z     vdW  Elec       q    Type
REMARK                         _______ _______ _______ _____ _____    ______ ____
ROOT
ATOM      1  C   UNL     1      -1.752  -6.557  -2.622  0.00  0.00    +0.089 C 
ATOM      2  C   UNL     1      -3.087  -6.143  -1.998  0.00  0.00    +0.015 C 
ATOM      3  C   UNL     1      -4.057  -7.327  -2.055  0.00  0.00    +0.016 C 
ATOM      4  C   UNL     1      -4.227  -7.771  -3.509  0.00  0.00    +0.086 C 
ATOM      5  N   UNL     1      -2.922  -8.158  -4.060  0.00  0.00    -0.279 NA
ATOM      6  C   UNL     1      -1.988  -7.025  -4.060  0.00  0.00    +0.099 C 
ENDROOT
BRANCH   5   7
ATOM      7  C   UNL     1      -3.066  -8.721  -5.410  0.00  0.00    +0.191 C 
ATOM      8  C   UNL     1      -3.911  -9.970  -5.355  0.00  0.00    +0.059 A 
ATOM      9  C   UNL     1      -5.241 -10.104  -5.377  0.00  0.00    +0.026 A 
ATOM     10  C   UNL     1      -5.527 -11.484  -5.296  0.00  0.00    +0.020 A 
ATOM     11  C   UNL     1      -4.348 -12.143  -5.229  0.00  0.00    +0.092 A 
ATOM     12  N   UNL     1      -3.351 -11.227  -5.267  0.00  0.00    -0.314 N 
ATOM     13  C   UNL     1      -1.960 -11.399  -5.237  0.00  0.00    +0.086 A 
ATOM     14  C   UNL     1      -1.376 -12.603  -4.896  0.00  0.00    +0.031 A 
ATOM     15  C   UNL     1       0.012 -12.678  -4.883  0.00  0.00    +0.022 A 
ATOM     16  C   UNL     1       0.750 -11.556  -5.205  0.00  0.00    +0.113 A 
ATOM     17  N   UNL     1       0.164 -10.419  -5.530  0.00  0.00    -0.238 NA
ATOM     18  C   UNL     1      -1.153 -10.300  -5.563  0.00  0.00    +0.144 A 
ATOM     19  N   UNL     1      -1.744  -9.093  -5.938  0.00  0.00    -0.307 N 
ATOM     20  H   UNL     1      -1.282  -8.497  -6.549  0.00  0.00    +0.149 HD
ENDBRANCH   5   7
BRANCH   1  22
ATOM     21  N   UNL     1      -0.458  -4.798  -1.460  0.00  0.00    -0.315 N 
ATOM     22  C   UNL     1      -0.811  -5.380  -2.623  0.00  0.00    +0.217 C 
ATOM     23  O   UNL     1      -0.371  -4.957  -3.671  0.00  0.00    -0.275 OA
ATOM     24  H   UNL     1      -0.810  -5.136  -0.622  0.00  0.00    +0.149 HD
BRANCH  21  25
ATOM     25  C   UNL     1       0.457  -3.653  -1.462  0.00  0.00    +0.108 C 
BRANCH  25  26
ATOM     26  C   UNL     1       0.691  -3.186  -0.024  0.00  0.00    +0.052 C 
BRANCH  26  33
ATOM     27  C   UNL     1      -0.016   1.348   0.009  0.00  0.00    +0.001 A 
ATOM     28  C   UNL     1       1.166   2.101   0.002  0.00  0.00    +0.002 A 
ATOM     29  C   UNL     1       2.391   1.535  -0.013  0.00  0.00    +0.026 A 
ATOM     30  C   UNL     1       2.529   0.120  -0.022  0.00  0.00    +0.043 A 
ATOM     31  N   UNL     1       3.587  -0.654  -0.037  0.00  0.00    -0.380 N 
ATOM     32  C   UNL     1       3.143  -2.053  -0.041  0.00  0.00    +0.144 C 
ATOM     33  C   UNL     1       1.631  -2.008  -0.025  0.00  0.00    -0.040 C 
ATOM     34  C   UNL     1       1.295  -0.698  -0.014  0.00  0.00    -0.001 A 
ATOM     35  C   UNL     1       0.002  -0.004   0.002  0.00  0.00    +0.010 A 
ATOM     36  H   UNL     1       4.509  -0.353  -0.045  0.00  0.00    +0.160 HD
ENDBRANCH  26  33
ENDBRANCH  25  26
ENDBRANCH  21  25
ENDBRANCH   1  22
TORSDOF 5
