REMARK  Name = ZINC59501988
REMARK  7 active torsions:
REMARK  status: ('A' for Active; 'I' for Inactive)
REMARK    1  A    between atoms: C_4  and  C_7
REMARK    2  A    between atoms: C_7  and  C_26
REMARK    3  A    between atoms: N_8  and  N_9
REMARK    4  A    between atoms: C_10  and  C_12
REMARK    5  A    between atoms: C_12  and  C_13
REMARK    6  A    between atoms: C_12  and  C_19
REMARK    7  A    between atoms: C_12  and  O_25
REMARK                            x       y       z     vdW  Elec       q    Type
REMARK                         _______ _______ _______ _____ _____    ______ ____
ROOT
ATOM      1  N   UNL     1       4.468   1.872   0.134  0.00  0.00    -0.203 N 
ATOM      2  C   UNL     1       5.773   2.127  -0.088  0.00  0.00    +0.273 C 
ATOM      3  O   UNL     1       6.574   1.216  -0.113  0.00  0.00    -0.270 OA
ATOM      4  H   UNL     1       3.828   2.600   0.154  0.00  0.00    +0.177 HD
ENDROOT
BRANCH   1   6
ATOM      5  C   UNL     1       2.761   0.294   0.445  0.00  0.00    +0.096 C 
ATOM      6  N   UNL     1       4.037   0.554   0.335  0.00  0.00    -0.179 NA
BRANCH   5  10
ATOM      7  C   UNL     1      -0.101   3.349  -0.290  0.00  0.00    +0.000 A 
ATOM      8  C   UNL     1       0.974   3.191  -1.147  0.00  0.00    +0.001 A 
ATOM      9  C   UNL     1       1.907   2.202  -0.913  0.00  0.00    +0.010 A 
ATOM     10  C   UNL     1       1.764   1.359   0.189  0.00  0.00    +0.002 A 
ATOM     11  C   UNL     1       0.678   1.522   1.049  0.00  0.00    +0.010 A 
ATOM     12  C   UNL     1      -0.248   2.516   0.805  0.00  0.00    +0.001 A 
ENDBRANCH   5  10
BRANCH   5  13
ATOM     13  C   UNL     1       2.312  -1.064   0.825  0.00  0.00    +0.002 A 
ATOM     14  C   UNL     1       0.960  -1.399   0.761  0.00  0.00    +0.010 A 
ATOM     15  C   UNL     1       0.548  -2.667   1.117  0.00  0.00    +0.001 A 
ATOM     16  C   UNL     1       1.473  -3.605   1.537  0.00  0.00    +0.000 A 
ATOM     17  C   UNL     1       2.816  -3.280   1.603  0.00  0.00    +0.001 A 
ATOM     18  C   UNL     1       3.241  -2.017   1.244  0.00  0.00    +0.010 A 
ENDBRANCH   5  13
ENDBRANCH   1   6
BRANCH   2  19
ATOM     19  C   UNL     1       6.237   3.544  -0.304  0.00  0.00    +0.194 C 
BRANCH  19  20
ATOM     20  C   UNL     1       7.691   3.660   0.077  0.00  0.00    -0.003 A 
ATOM     21  C   UNL     1       8.061   4.430   1.164  0.00  0.00    +0.007 A 
ATOM     22  C   UNL     1       9.395   4.536   1.513  0.00  0.00    +0.000 A 
ATOM     23  C   UNL     1      10.357   3.873   0.776  0.00  0.00    +0.000 A 
ATOM     24  C   UNL     1       9.987   3.103  -0.311  0.00  0.00    +0.000 A 
ATOM     25  C   UNL     1       8.653   2.993  -0.657  0.00  0.00    +0.007 A 
ENDBRANCH  19  20
BRANCH  19  26
ATOM     26  C   UNL     1       6.067   3.913  -1.755  0.00  0.00    -0.003 A 
ATOM     27  C   UNL     1       6.423   3.013  -2.743  0.00  0.00    +0.007 A 
ATOM     28  C   UNL     1       6.267   3.351  -4.074  0.00  0.00    +0.000 A 
ATOM     29  C   UNL     1       5.755   4.588  -4.418  0.00  0.00    +0.000 A 
ATOM     30  C   UNL     1       5.399   5.487  -3.430  0.00  0.00    +0.000 A 
ATOM     31  C   UNL     1       5.551   5.148  -2.099  0.00  0.00    +0.007 A 
ENDBRANCH  19  26
BRANCH  19  32
ATOM     32  O   UNL     1       5.461   4.429   0.506  0.00  0.00    -0.371 OA
ATOM     33  H   UNL     1       5.522   4.250   1.454  0.00  0.00    +0.212 HD
ENDBRANCH  19  32
ENDBRANCH   2  19
TORSDOF 7
