REMARK  Name = ZINC37360552
REMARK  5 active torsions:
REMARK  status: ('A' for Active; 'I' for Inactive)
REMARK    1  A    between atoms: C_4  and  C_7
REMARK    2  A    between atoms: C_7  and  N_8
REMARK    3  A    between atoms: C_16  and  C_31
REMARK    4  A    between atoms: C_18  and  N_30
REMARK    5  A    between atoms: N_19  and  C_23
REMARK                            x       y       z     vdW  Elec       q    Type
REMARK                         _______ _______ _______ _____ _____    ______ ____
ROOT
ATOM      1  N   UNL     1       3.402  -1.608   2.421  0.00  0.00    -0.295 NA
ATOM      2  C   UNL     1       3.848  -0.249   2.757  0.00  0.00    +0.103 C 
ATOM      3  C   UNL     1       4.404  -0.236   4.184  0.00  0.00    +0.123 C 
ATOM      4  N   UNL     1       5.439  -1.275   4.292  0.00  0.00    -0.297 N 
ATOM      5  C   UNL     1       5.109  -2.636   3.844  0.00  0.00    +0.123 C 
ATOM      6  C   UNL     1       4.525  -2.555   2.430  0.00  0.00    +0.103 C 
ATOM      7  C   UNL     1       6.691  -0.980   4.802  0.00  0.00    +0.220 A 
ATOM      8  N   UNL     1       7.588  -1.958   4.870  0.00  0.00    -0.214 NA
ATOM      9  C   UNL     1       8.812  -1.762   5.345  0.00  0.00    +0.089 A 
ATOM     10  C   UNL     1       9.157  -0.466   5.789  0.00  0.00    +0.086 A 
ATOM     11  C   UNL     1      10.288   0.132   6.332  0.00  0.00    +0.131 A 
ATOM     12  N   UNL     1       9.995   1.428   6.554  0.00  0.00    -0.216 N 
ATOM     13  N   UNL     1       8.678   1.692   6.161  0.00  0.00    -0.144 NA
ATOM     14  C   UNL     1       8.132   0.590   5.695  0.00  0.00    +0.189 A 
ATOM     15  N   UNL     1       6.930   0.257   5.188  0.00  0.00    -0.193 NA
ENDROOT
BRANCH  12  16
ATOM     16  C   UNL     1      10.877   2.370   7.097  0.00  0.00    +0.070 A 
ATOM     17  C   UNL     1      11.795   1.987   8.066  0.00  0.00    +0.028 A 
ATOM     18  C   UNL     1      12.664   2.918   8.600  0.00  0.00    +0.005 A 
ATOM     19  C   UNL     1      12.622   4.232   8.171  0.00  0.00    +0.038 A 
ATOM     20  C   UNL     1      11.708   4.618   7.205  0.00  0.00    +0.125 A 
ATOM     21  C   UNL     1      10.839   3.689   6.663  0.00  0.00    +0.066 A 
ATOM     22  F   UNL     1      11.668   5.903   6.789  0.00  0.00    -0.205 F 
ENDBRANCH  12  16
BRANCH   9  23
ATOM     23  C   UNL     1       9.789  -2.872   5.409  0.00  0.00    +0.004 A 
ATOM     24  C   UNL     1      10.536  -3.082   6.569  0.00  0.00    +0.010 A 
ATOM     25  C   UNL     1      11.445  -4.118   6.623  0.00  0.00    +0.003 A 
ATOM     26  C   UNL     1      11.618  -4.950   5.531  0.00  0.00    +0.038 A 
ATOM     27  C   UNL     1      10.880  -4.747   4.376  0.00  0.00    +0.124 A 
ATOM     28  C   UNL     1       9.962  -3.716   4.312  0.00  0.00    +0.048 A 
ATOM     29  F   UNL     1      11.054  -5.563   3.313  0.00  0.00    -0.205 F 
ENDBRANCH   9  23
BRANCH  11  30
ATOM     30  N   UNL     1      11.494  -0.490   6.597  0.00  0.00    -0.342 N 
ATOM     31  H   UNL     1      11.661  -1.386   6.265  0.00  0.00    +0.144 HD
ATOM     32  H   UNL     1      12.173  -0.031   7.116  0.00  0.00    +0.144 HD
ENDBRANCH  11  30
BRANCH   1  33
ATOM     33  C   UNL     1       2.706  -1.629   1.127  0.00  0.00    +0.119 C 
BRANCH  33  37
ATOM     34  C   UNL     1      -0.921   0.608   1.422  0.00  0.00    +0.000 A 
ATOM     35  C   UNL     1       0.251   1.238   1.045  0.00  0.00    +0.000 A 
ATOM     36  C   UNL     1       1.424   0.514   0.950  0.00  0.00    +0.005 A 
ATOM     37  C   UNL     1       1.427  -0.839   1.232  0.00  0.00    -0.033 A 
ATOM     38  C   UNL     1       0.255  -1.469   1.610  0.00  0.00    +0.005 A 
ATOM     39  C   UNL     1      -0.919  -0.745   1.704  0.00  0.00    +0.000 A 
ENDBRANCH  33  37
ENDBRANCH   1  33
TORSDOF 5
