REMARK  Name = ZINC13149371
REMARK  13 active torsions:
REMARK  status: ('A' for Active; 'I' for Inactive)
REMARK    1  A    between atoms: C_1  and  C_2
REMARK    2  A    between atoms: C_2  and  O_3
REMARK    3  A    between atoms: O_3  and  C_4
REMARK    4  A    between atoms: C_7  and  C_10
REMARK    5  A    between atoms: C_12  and  C_15
REMARK    6  A    between atoms: C_15  and  N_69
REMARK    7  A    between atoms: C_16  and  C_17
REMARK    8  A    between atoms: C_16  and  N_69
REMARK    9  A    between atoms: C_20  and  C_22
REMARK   10  A    between atoms: C_25  and  O_28
REMARK   11  A    between atoms: O_28  and  C_29
REMARK   12  A    between atoms: C_29  and  C_30
REMARK   13  A    between atoms: C_31  and  N_69
REMARK                            x       y       z     vdW  Elec       q    Type
REMARK                         _______ _______ _______ _____ _____    ______ ____
ROOT
ATOM      1  N   UNL     1       0.388   2.168   2.387  0.00  0.00    +0.389 N 
ATOM      2  H   UNL     1       1.046   2.861   2.012  0.00  0.00    -0.080 HD
ENDROOT
BRANCH   1   3
ATOM      3  C   UNL     1      -0.469   1.677   1.288  0.00  0.00    -0.068 C 
ATOM      4  C   UNL     1      -0.833   2.846   0.350  0.00  0.00    -0.015 C 
ATOM      5  C   UNL     1      -2.285   2.613  -0.103  0.00  0.00    -0.002 C 
ATOM      6  C   UNL     1      -2.754   1.308   0.575  0.00  0.00    -0.002 C 
ATOM      7  C   UNL     1      -1.837   1.175   1.816  0.00  0.00    -0.015 C 
ENDBRANCH   1   3
BRANCH   1   8
ATOM      8  C   UNL     1      -0.443   2.810   3.427  0.00  0.00    -0.021 C 
BRANCH   8  11
ATOM      9  C   UNL     1      -0.722   6.335   2.413  0.00  0.00    +0.108 A 
ATOM     10  N   UNL     1      -0.260   5.187   2.889  0.00  0.00    -0.246 NA
ATOM     11  C   UNL     1      -0.996   4.100   2.880  0.00  0.00    +0.033 A 
ATOM     12  C   UNL     1      -2.256   4.139   2.371  0.00  0.00    +0.068 A 
ATOM     13  S   UNL     1      -2.365   5.859   1.892  0.00  0.00    -0.075 S 
BRANCH   9  17
ATOM     14  C   UNL     1       1.187  10.124   2.186  0.00  0.00    +0.121 A 
ATOM     15  C   UNL     1      -0.112   9.974   1.717  0.00  0.00    +0.046 A 
ATOM     16  C   UNL     1      -0.734   8.746   1.788  0.00  0.00    +0.014 A 
ATOM     17  C   UNL     1      -0.058   7.653   2.334  0.00  0.00    +0.007 A 
ATOM     18  C   UNL     1       1.245   7.810   2.810  0.00  0.00    +0.014 A 
ATOM     19  C   UNL     1       1.862   9.040   2.730  0.00  0.00    +0.046 A 
BRANCH  14  20
ATOM     20  O   UNL     1       1.797  11.336   2.114  0.00  0.00    -0.492 OA
BRANCH  20  22
ATOM     21  C   UNL     1       3.649  12.851   2.450  0.00  0.00    +0.048 C 
ATOM     22  C   UNL     1       3.132  11.421   2.615  0.00  0.00    +0.225 C 
ENDBRANCH  20  22
ENDBRANCH  14  20
ENDBRANCH   9  17
ENDBRANCH   8  11
ENDBRANCH   1   8
BRANCH   1  23
ATOM     23  C   UNL     1       1.153   1.047   2.971  0.00  0.00    -0.021 C 
BRANCH  23  24
ATOM     24  C   UNL     1       2.265   0.675   2.025  0.00  0.00    +0.033 A 
ATOM     25  C   UNL     1       3.508   1.196   2.197  0.00  0.00    +0.068 A 
ATOM     26  S   UNL     1       4.379   0.429   0.835  0.00  0.00    -0.075 S 
ATOM     27  C   UNL     1       2.993  -0.492   0.182  0.00  0.00    +0.108 A 
ATOM     28  N   UNL     1       2.033  -0.149   1.029  0.00  0.00    -0.246 NA
BRANCH  27  29
ATOM     29  C   UNL     1       2.934  -1.394  -0.988  0.00  0.00    +0.007 A 
ATOM     30  C   UNL     1       1.735  -2.025  -1.325  0.00  0.00    +0.014 A 
ATOM     31  C   UNL     1       1.683  -2.862  -2.419  0.00  0.00    +0.046 A 
ATOM     32  C   UNL     1       2.823  -3.084  -3.181  0.00  0.00    +0.121 A 
ATOM     33  C   UNL     1       4.019  -2.462  -2.846  0.00  0.00    +0.046 A 
ATOM     34  C   UNL     1       4.078  -1.620  -1.756  0.00  0.00    +0.014 A 
BRANCH  32  35
ATOM     35  O   UNL     1       2.769  -3.913  -4.256  0.00  0.00    -0.492 OA
BRANCH  35  36
ATOM     36  C   UNL     1       1.508  -4.520  -4.544  0.00  0.00    +0.225 C 
ATOM     37  C   UNL     1       1.642  -5.412  -5.779  0.00  0.00    +0.048 C 
ENDBRANCH  35  36
ENDBRANCH  32  35
ENDBRANCH  27  29
ENDBRANCH  23  24
ENDBRANCH   1  23
TORSDOF 11
