REMARK  Name = ZINC11526489
REMARK  7 active torsions:
REMARK  status: ('A' for Active; 'I' for Inactive)
REMARK    1  A    between atoms: N_9  and  C_12
REMARK    2  A    between atoms: C_12  and  O_13
REMARK    3  A    between atoms: O_13  and  C_14
REMARK    4  A    between atoms: C_14  and  C_16
REMARK    5  A    between atoms: C_21  and  S_22
REMARK    6  A    between atoms: S_22  and  C_23
REMARK    7  A    between atoms: C_23  and  N_24
REMARK                            x       y       z     vdW  Elec       q    Type
REMARK                         _______ _______ _______ _____ _____    ______ ____
ROOT
ATOM      1  C   UNL     1      -1.146   3.391  -2.737  0.00  0.00    +0.072 A 
ATOM      2  C   UNL     1      -2.036   2.604  -3.473  0.00  0.00    +0.016 A 
ATOM      3  C   UNL     1      -2.682   3.137  -4.566  0.00  0.00    +0.001 A 
ATOM      4  C   UNL     1      -2.455   4.452  -4.943  0.00  0.00    +0.001 A 
ATOM      5  C   UNL     1      -1.581   5.242  -4.227  0.00  0.00    +0.015 A 
ATOM      6  C   UNL     1      -0.922   4.725  -3.118  0.00  0.00    +0.024 A 
ENDROOT
BRANCH   1   7
ATOM      7  C   UNL     1      -0.452   2.828  -1.567  0.00  0.00    +0.342 C 
ATOM      8  O   UNL     1       0.321   3.516  -0.930  0.00  0.00    -0.245 OA
BRANCH   7   9
ATOM      9  O   UNL     1      -0.674   1.549  -1.203  0.00  0.00    -0.438 OA
BRANCH   9  10
ATOM     10  C   UNL     1       0.045   1.061  -0.039  0.00  0.00    +0.383 C 
BRANCH  10  19
ATOM     11  C   UNL     1      -1.407   4.631   4.759  0.00  0.00    +0.001 A 
ATOM     12  C   UNL     1      -2.387   3.784   5.261  0.00  0.00    +0.002 A 
ATOM     13  C   UNL     1      -2.684   2.598   4.630  0.00  0.00    +0.030 A 
ATOM     14  C   UNL     1      -1.993   2.237   3.470  0.00  0.00    +0.100 A 
ATOM     15  C   UNL     1      -0.997   3.100   2.963  0.00  0.00    +0.068 A 
ATOM     16  C   UNL     1      -0.712   4.298   3.618  0.00  0.00    +0.015 A 
ATOM     17  C   UNL     1      -0.280   2.696   1.745  0.00  0.00    +0.281 A 
ATOM     18  O   UNL     1       0.592   3.395   1.262  0.00  0.00    -0.265 OA
ATOM     19  N   UNL     1      -0.630   1.517   1.179  0.00  0.00    -0.174 N 
ATOM     20  N   UNL     1      -1.631   0.732   1.758  0.00  0.00    -0.059 NA
ATOM     21  N   UNL     1      -2.259   1.075   2.823  0.00  0.00    -0.131 NA
ENDBRANCH  10  19
ENDBRANCH   9  10
ENDBRANCH   7   9
ENDBRANCH   1   7
BRANCH   6  22
ATOM     22  S   UNL     1       0.191   5.734  -2.197  0.00  0.00    -0.101 S 
BRANCH  22  23
ATOM     23  C   UNL     1       0.199   7.218  -3.233  0.00  0.00    +0.223 C 
BRANCH  23  24
ATOM     24  N   UNL     1       1.173   8.177  -2.704  0.00  0.00    -0.200 N 
ATOM     25  C   UNL     1       0.812   9.034  -1.720  0.00  0.00    +0.279 A 
ATOM     26  O   UNL     1      -0.314   9.027  -1.256  0.00  0.00    -0.265 OA
ATOM     27  C   UNL     1       1.836   9.969  -1.228  0.00  0.00    +0.068 A 
ATOM     28  C   UNL     1       1.563  10.886  -0.215  0.00  0.00    +0.015 A 
ATOM     29  C   UNL     1       2.553  11.745   0.208  0.00  0.00    +0.001 A 
ATOM     30  C   UNL     1       3.816  11.704  -0.367  0.00  0.00    +0.002 A 
ATOM     31  C   UNL     1       4.106  10.806  -1.369  0.00  0.00    +0.030 A 
ATOM     32  C   UNL     1       3.119   9.924  -1.816  0.00  0.00    +0.100 A 
ATOM     33  N   UNL     1       3.368   9.026  -2.801  0.00  0.00    -0.131 NA
ATOM     34  N   UNL     1       2.470   8.210  -3.221  0.00  0.00    -0.061 NA
ENDBRANCH  23  24
ENDBRANCH  22  23
ENDBRANCH   6  22
TORSDOF 7
