REMARK  Name = ZINC06190472
REMARK  12 active torsions:
REMARK  status: ('A' for Active; 'I' for Inactive)
REMARK    1  A    between atoms: C_1  and  C_2
REMARK    2  A    between atoms: C_2  and  C_3
REMARK    3  A    between atoms: C_2  and  C_4
REMARK    4  A    between atoms: C_4  and  C_5
REMARK    5  A    between atoms: C_5  and  C_7
REMARK    6  A    between atoms: C_5  and  N_16
REMARK    7  A    between atoms: N_9  and  C_10
REMARK    8  A    between atoms: N_16  and  C_17
REMARK    9  A    between atoms: C_17  and  C_18
REMARK   10  A    between atoms: C_25  and  C_27
REMARK   11  A    between atoms: C_28  and  N_35
REMARK   12  A    between atoms: C_29  and  C_32
REMARK                            x       y       z     vdW  Elec       q    Type
REMARK                         _______ _______ _______ _____ _____    ______ ____
ROOT
ATOM      1  N   UNL     1      -0.611  -0.784   0.310  0.00  0.00    -0.281 N 
ATOM      2  C   UNL     1       0.326   0.083   0.742  0.00  0.00    +0.257 C 
ATOM      3  O   UNL     1       1.347  -0.332   1.259  0.00  0.00    -0.269 OA
ENDROOT
BRANCH   2   4
ATOM      4  C   UNL     1       0.116   1.524   0.590  0.00  0.00    +0.115 A 
ATOM      5  C   UNL     1       0.400   2.558   1.484  0.00  0.00    +0.076 A 
ATOM      6  C   UNL     1       0.054   3.811   0.977  0.00  0.00    +0.155 A 
ATOM      7  N   UNL     1      -0.474   3.896  -0.224  0.00  0.00    -0.203 NA
ATOM      8  S   UNL     1      -0.562   2.427  -0.787  0.00  0.00    +0.019 S 
BRANCH   6   9
ATOM      9  C   UNL     1       0.280   5.028   1.779  0.00  0.00    +0.262 C 
ATOM     10  O   UNL     1       0.769   4.942   2.889  0.00  0.00    -0.269 OA
ATOM     11  N   UNL     1      -0.057   6.234   1.283  0.00  0.00    -0.324 N 
ATOM     12  H   UNL     1      -0.447   6.303   0.397  0.00  0.00    +0.145 HD
ATOM     13  H   UNL     1       0.091   7.035   1.811  0.00  0.00    +0.145 HD
ENDBRANCH   6   9
BRANCH   5  14
ATOM     14  N   UNL     1       0.962   2.362   2.738  0.00  0.00    -0.355 N 
ATOM     15  H   UNL     1       1.181   1.466   3.036  0.00  0.00    +0.142 HD
ATOM     16  H   UNL     1       1.136   3.122   3.315  0.00  0.00    +0.142 HD
ENDBRANCH   5  14
ENDBRANCH   2   4
BRANCH   1  17
ATOM     17  C   UNL     1      -0.400  -2.226   0.460  0.00  0.00    +0.163 C 
BRANCH  17  18
ATOM     18  C   UNL     1      -1.350  -2.767   1.497  0.00  0.00    +0.234 C 
ATOM     19  O   UNL     1      -1.903  -2.011   2.267  0.00  0.00    -0.274 OA
ATOM     20  N   UNL     1      -1.585  -4.093   1.569  0.00  0.00    -0.311 N 
ATOM     21  H   UNL     1      -1.143  -4.698   0.953  0.00  0.00    +0.149 HD
BRANCH  20  22
ATOM     22  C   UNL     1      -2.509  -4.619   2.577  0.00  0.00    +0.073 C 
ATOM     23  C   UNL     1      -1.761  -4.829   3.894  0.00  0.00    +0.022 C 
ATOM     24  C   UNL     1      -2.726  -5.378   4.947  0.00  0.00    +0.002 C 
ATOM     25  C   UNL     1      -3.298  -6.714   4.467  0.00  0.00    +0.000 C 
ATOM     26  C   UNL     1      -4.046  -6.504   3.149  0.00  0.00    +0.002 C 
ATOM     27  C   UNL     1      -3.081  -5.954   2.096  0.00  0.00    +0.022 C 
ENDBRANCH  20  22
ENDBRANCH  17  18
BRANCH  17  28
ATOM     28  C   UNL     1      -0.655  -2.921  -0.878  0.00  0.00    +0.035 C 
BRANCH  28  30
ATOM     29  C   UNL     1       1.657  -2.265  -1.560  0.00  0.00    +0.007 C 
ATOM     30  C   UNL     1       0.183  -2.252  -1.969  0.00  0.00    -0.015 C 
ATOM     31  C   UNL     1       0.011  -3.014  -3.285  0.00  0.00    +0.007 C 
ENDBRANCH  28  30
ENDBRANCH  17  28
ENDBRANCH   1  17
BRANCH   1  32
ATOM     32  C   UNL     1      -1.840  -0.285  -0.311  0.00  0.00    +0.145 C 
BRANCH  32  33
ATOM     33  C   UNL     1      -3.008  -0.549   0.605  0.00  0.00    -0.012 A 
ATOM     34  C   UNL     1      -3.902  -1.561   0.310  0.00  0.00    +0.006 A 
ATOM     35  C   UNL     1      -4.971  -1.806   1.152  0.00  0.00    +0.000 A 
ATOM     36  C   UNL     1      -5.151  -1.033   2.284  0.00  0.00    +0.001 A 
ATOM     37  C   UNL     1      -4.261  -0.018   2.577  0.00  0.00    +0.020 A 
ATOM     38  C   UNL     1      -3.188   0.225   1.737  0.00  0.00    +0.046 A 
ATOM     39 CL   UNL     1      -2.069   1.500   2.104  0.00  0.00    -0.083 Cl
ENDBRANCH  32  33
ENDBRANCH   1  32
TORSDOF 10
