REMARK  Name = ZINC23077594
REMARK  14 active torsions:
REMARK  status: ('A' for Active; 'I' for Inactive)
REMARK    1  A    between atoms: C_1  and  C_2
REMARK    2  A    between atoms: C_2  and  C_3
REMARK    3  A    between atoms: C_3  and  C_4
REMARK    4  A    between atoms: C_4  and  N_5
REMARK    5  A    between atoms: C_6  and  N_37
REMARK    6  A    between atoms: C_7  and  N_14
REMARK    7  A    between atoms: N_14  and  C_15
REMARK    8  A    between atoms: C_15  and  C_16
REMARK    9  A    between atoms: C_16  and  O_17
REMARK   10  A    between atoms: O_17  and  C_18
REMARK   11  A    between atoms: C_19  and  C_21
REMARK   12  A    between atoms: C_24  and  C_36
REMARK   13  A    between atoms: C_25  and  S_27
REMARK   14  A    between atoms: S_27  and  N_30
REMARK                            x       y       z     vdW  Elec       q    Type
REMARK                         _______ _______ _______ _____ _____    ______ ____
ROOT
ATOM      1  N   UNL     1       0.267  -3.630  -6.730  0.00  0.00    -0.258 N 
ATOM      2  C   UNL     1      -0.868  -2.904  -6.707  0.00  0.00    +0.251 C 
ATOM      3  O   UNL     1      -1.419  -2.602  -7.748  0.00  0.00    -0.270 OA
ENDROOT
BRANCH   1   6
ATOM      4  N   UNL     1       2.870  -3.700  -4.138  0.00  0.00    -0.280 N 
ATOM      5  C   UNL     1       2.226  -3.415  -5.320  0.00  0.00    +0.127 A 
ATOM      6  C   UNL     1       0.953  -3.905  -5.529  0.00  0.00    +0.140 A 
ATOM      7  C   UNL     1       0.351  -4.684  -4.523  0.00  0.00    +0.277 A 
ATOM      8  O   UNL     1      -0.773  -5.130  -4.682  0.00  0.00    -0.266 OA
ATOM      9  N   UNL     1       1.025  -4.934  -3.384  0.00  0.00    -0.273 N 
ATOM     10  H   UNL     1       0.612  -5.471  -2.690  0.00  0.00    +0.173 HD
ATOM     11  C   UNL     1       2.268  -4.453  -3.200  0.00  0.00    +0.331 A 
ATOM     12  O   UNL     1       2.856  -4.698  -2.164  0.00  0.00    -0.246 OA
BRANCH   5  13
ATOM     13  N   UNL     1       2.844  -2.651  -6.281  0.00  0.00    -0.343 N 
ATOM     14  H   UNL     1       3.709  -2.252  -6.102  0.00  0.00    +0.144 HD
ATOM     15  H   UNL     1       2.414  -2.511  -7.139  0.00  0.00    +0.144 HD
ENDBRANCH   5  13
BRANCH   4  16
ATOM     16  C   UNL     1       4.222  -3.187  -3.903  0.00  0.00    +0.128 C 
BRANCH  16  17
ATOM     17  C   UNL     1       5.248  -4.198  -4.418  0.00  0.00    +0.021 C 
BRANCH  17  19
ATOM     18  C   UNL     1       7.686  -4.673  -4.687  0.00  0.00    +0.004 C 
ATOM     19  C   UNL     1       6.660  -3.662  -4.172  0.00  0.00    -0.002 C 
ENDBRANCH  17  19
ENDBRANCH  16  17
ENDBRANCH   4  16
ENDBRANCH   1   6
BRANCH   2  20
ATOM     20  C   UNL     1      -1.444  -2.474  -5.415  0.00  0.00    +0.039 A 
ATOM     21  C   UNL     1      -0.613  -2.264  -4.312  0.00  0.00    +0.013 A 
ATOM     22  C   UNL     1      -1.157  -1.863  -3.110  0.00  0.00    +0.006 A 
ATOM     23  C   UNL     1      -2.522  -1.669  -2.994  0.00  0.00    -0.024 A 
ATOM     24  C   UNL     1      -3.351  -1.876  -4.082  0.00  0.00    +0.109 A 
ATOM     25  C   UNL     1      -2.819  -2.272  -5.293  0.00  0.00    +0.041 A 
ATOM     26  C   UNL     1      -3.109  -1.232  -1.677  0.00  0.00    +0.046 C 
BRANCH  24  27
ATOM     27  S   UNL     1      -5.088  -1.627  -3.925  0.00  0.00    +0.061 S 
ATOM     28  O   UNL     1      -5.664  -1.978  -5.175  0.00  0.00    -0.153 OA
ATOM     29  O   UNL     1      -5.478  -2.245  -2.706  0.00  0.00    -0.153 OA
BRANCH  27  30
ATOM     30  N   UNL     1      -5.334  -0.001  -3.730  0.00  0.00    -0.177 NA
ATOM     31  C   UNL     1      -5.418   0.588  -2.386  0.00  0.00    +0.109 C 
ATOM     32  C   UNL     1      -4.411   1.738  -2.288  0.00  0.00    +0.017 C 
ATOM     33  C   UNL     1      -4.663   2.730  -3.426  0.00  0.00    +0.003 C 
ATOM     34  C   UNL     1      -4.464   2.027  -4.771  0.00  0.00    +0.017 C 
ATOM     35  C   UNL     1      -5.466   0.881  -4.897  0.00  0.00    +0.109 C 
ENDBRANCH  27  30
ENDBRANCH  24  27
ENDBRANCH   2  20
BRANCH   1  36
ATOM     36  C   UNL     1       0.788  -4.134  -8.004  0.00  0.00    +0.142 C 
BRANCH  36  37
ATOM     37  C   UNL     1       0.135  -5.479  -8.326  0.00  0.00    +0.179 C 
BRANCH  37  38
ATOM     38  O   UNL     1      -1.266  -5.290  -8.538  0.00  0.00    -0.381 OA
ATOM     39  C   UNL     1      -1.974  -6.492  -8.848  0.00  0.00    +0.194 C 
ENDBRANCH  37  38
ENDBRANCH  36  37
ENDBRANCH   1  36
TORSDOF 11
