REMARK  Name = ZINC12488001
REMARK  12 active torsions:
REMARK  status: ('A' for Active; 'I' for Inactive)
REMARK    1  A    between atoms: C_1  and  C_2
REMARK    2  A    between atoms: C_5  and  C_8
REMARK    3  A    between atoms: C_8  and  C_10
REMARK    4  A    between atoms: C_8  and  N_19
REMARK    5  A    between atoms: N_12  and  C_13
REMARK    6  A    between atoms: C_13  and  C_14
REMARK    7  A    between atoms: N_19  and  C_20
REMARK    8  A    between atoms: C_24  and  C_27
REMARK    9  A    between atoms: C_25  and  C_26
REMARK   10  A    between atoms: C_28  and  C_30
REMARK   11  A    between atoms: C_30  and  N_31
REMARK   12  A    between atoms: C_32  and  C_34
REMARK                            x       y       z     vdW  Elec       q    Type
REMARK                         _______ _______ _______ _____ _____    ______ ____
ROOT
ATOM      1  N   UNL     1       3.650   0.926  -0.673  0.00  0.00    -0.254 N 
ATOM      2  C   UNL     1       2.461   0.419  -0.291  0.00  0.00    +0.238 C 
ATOM      3  O   UNL     1       2.401  -0.694   0.186  0.00  0.00    -0.274 OA
ENDROOT
BRANCH   1   4
ATOM      4  C   UNL     1       3.719   2.211  -1.223  0.00  0.00    +0.041 A 
ATOM      5  C   UNL     1       3.636   3.326  -0.399  0.00  0.00    +0.024 A 
ATOM      6  C   UNL     1       3.711   4.593  -0.944  0.00  0.00    +0.002 A 
ATOM      7  C   UNL     1       3.855   4.752  -2.310  0.00  0.00    +0.004 A 
ATOM      8  C   UNL     1       3.932   3.644  -3.134  0.00  0.00    -0.046 A 
ATOM      9  C   UNL     1       3.864   2.374  -2.594  0.00  0.00    -0.026 A 
ATOM     10  C   UNL     1       3.947   1.167  -3.493  0.00  0.00    +0.046 C 
ATOM     11  C   UNL     1       4.089   3.821  -4.622  0.00  0.00    +0.044 C 
ENDBRANCH   1   4
BRANCH   1  12
ATOM     12  C   UNL     1       4.870   0.132  -0.512  0.00  0.00    +0.197 C 
BRANCH  12  17
ATOM     13  C   UNL     1       5.980  -0.580   5.114  0.00  0.00    +0.044 C 
ATOM     14  C   UNL     1       5.691  -0.394   3.647  0.00  0.00    -0.050 A 
ATOM     15  C   UNL     1       5.711  -1.483   2.795  0.00  0.00    +0.004 A 
ATOM     16  C   UNL     1       5.445  -1.313   1.449  0.00  0.00    +0.006 A 
ATOM     17  C   UNL     1       5.160  -0.054   0.955  0.00  0.00    -0.018 A 
ATOM     18  C   UNL     1       5.145   1.036   1.805  0.00  0.00    +0.006 A 
ATOM     19  C   UNL     1       5.406   0.865   3.152  0.00  0.00    +0.004 A 
ENDBRANCH  12  17
BRANCH  12  20
ATOM     20  C   UNL     1       6.024   0.847  -1.166  0.00  0.00    +0.239 C 
ATOM     21  O   UNL     1       6.089   2.057  -1.125  0.00  0.00    -0.273 OA
ATOM     22  N   UNL     1       6.985   0.141  -1.795  0.00  0.00    -0.306 N 
ATOM     23  H   UNL     1       6.934  -0.827  -1.827  0.00  0.00    +0.149 HD
BRANCH  22  24
ATOM     24  C   UNL     1       8.107   0.836  -2.430  0.00  0.00    +0.178 C 
BRANCH  24  25
ATOM     25  C   UNL     1       9.033  -0.173  -3.058  0.00  0.00    +0.122 A 
ATOM     26  C   UNL     1       8.952  -0.639  -4.317  0.00  0.00    +0.046 A 
ATOM     27  C   UNL     1      10.011  -1.561  -4.482  0.00  0.00    +0.041 A 
ATOM     28  C   UNL     1      10.677  -1.603  -3.314  0.00  0.00    +0.195 A 
ATOM     29  O   UNL     1      10.084  -0.756  -2.457  0.00  0.00    -0.466 OA
ENDBRANCH  24  25
ENDBRANCH  22  24
ENDBRANCH  12  20
ENDBRANCH   1  12
BRANCH   2  30
ATOM     30  C   UNL     1       1.205   1.237  -0.456  0.00  0.00    +0.201 C 
BRANCH  30  31
ATOM     31  N   UNL     1       0.056   0.470   0.030  0.00  0.00    -0.302 N 
ATOM     32  C   UNL     1      -1.181   1.002  -0.024  0.00  0.00    +0.251 C 
ATOM     33  O   UNL     1      -1.343   2.122  -0.471  0.00  0.00    -0.270 OA
ATOM     34  H   UNL     1       0.184  -0.423   0.387  0.00  0.00    +0.150 HD
BRANCH  32  35
ATOM     35  C   UNL     1      -2.332   0.232   0.457  0.00  0.00    +0.074 A 
ATOM     36  C   UNL     1      -3.670   0.593   0.495  0.00  0.00    +0.021 A 
ATOM     37  C   UNL     1      -4.552  -0.331   0.999  0.00  0.00    +0.008 A 
ATOM     38  C   UNL     1      -4.081  -1.528   1.437  0.00  0.00    +0.046 A 
ATOM     39  S   UNL     1      -2.375  -1.410   1.153  0.00  0.00    -0.092 S 
ENDBRANCH  32  35
ENDBRANCH  30  31
ENDBRANCH   2  30
TORSDOF 9
