REMARK  Name = ZINC27755429
REMARK  8 active torsions:
REMARK  status: ('A' for Active; 'I' for Inactive)
REMARK    1  A    between atoms: C_1  and  C_2
REMARK    2  A    between atoms: C_2  and  C_4
REMARK    3  A    between atoms: C_7  and  C_10
REMARK    4  A    between atoms: C_13  and  C_15
REMARK    5  A    between atoms: C_17  and  C_29
REMARK    6  A    between atoms: C_19  and  C_24
REMARK    7  A    between atoms: C_19  and  O_28
REMARK    8  A    between atoms: C_29  and  C_31
REMARK                            x       y       z     vdW  Elec       q    Type
REMARK                         _______ _______ _______ _____ _____    ______ ____
ROOT
ATOM      1  C   UNL     1       3.071  -3.013  -1.481  0.00  0.00    +0.156 C 
ATOM      2  C   UNL     1       2.573  -2.882  -0.037  0.00  0.00    +0.147 C 
ATOM      3  C   UNL     1       2.393  -4.288   0.546  0.00  0.00    +0.243 C 
ATOM      4  N   UNL     1       1.496  -5.056  -0.320  0.00  0.00    -0.264 N 
ATOM      5  C   UNL     1       1.417  -4.810  -1.636  0.00  0.00    +0.302 C 
ATOM      6  O   UNL     1       0.664  -5.484  -2.311  0.00  0.00    -0.253 OA
ATOM      7  N   UNL     1       2.137  -3.850  -2.236  0.00  0.00    -0.289 N 
ATOM      8  H   UNL     1       0.870  -5.853   0.107  0.00  0.00    +0.153 HD
ATOM      9  H   UNL     1       2.015  -3.699  -3.319  0.00  0.00    +0.151 HD
ENDROOT
BRANCH   1  13
ATOM     10  C   UNL     1       2.552   0.221  -3.100  0.00  0.00    +0.135 A 
ATOM     11  C   UNL     1       3.897   0.287  -2.895  0.00  0.00    +0.050 A 
ATOM     12  C   UNL     1       4.269  -0.911  -2.257  0.00  0.00    +0.047 A 
ATOM     13  C   UNL     1       3.148  -1.647  -2.113  0.00  0.00    +0.127 A 
ATOM     14  O   UNL     1       2.113  -0.959  -2.619  0.00  0.00    -0.458 OA
BRANCH  10  18
ATOM     15  C   UNL     1       0.162   3.206  -4.930  0.00  0.00    +0.017 A 
ATOM     16  C   UNL     1      -0.426   2.019  -4.473  0.00  0.00    +0.012 A 
ATOM     17  C   UNL     1       0.344   1.059  -3.885  0.00  0.00    +0.012 A 
ATOM     18  C   UNL     1       1.721   1.259  -3.737  0.00  0.00    +0.017 A 
ATOM     19  C   UNL     1       2.309   2.446  -4.188  0.00  0.00    +0.012 A 
ATOM     20  C   UNL     1       1.541   3.405  -4.782  0.00  0.00    +0.012 A 
BRANCH  15  22
ATOM     21  C   UNL     1      -0.032   5.516  -6.055  0.00  0.00    +0.091 C 
ATOM     22  C   UNL     1      -0.665   4.239  -5.564  0.00  0.00    +0.160 C 
ATOM     23  O   UNL     1      -1.859   4.067  -5.692  0.00  0.00    -0.292 OA
ENDBRANCH  15  22
ENDBRANCH  10  18
ENDBRANCH   1  13
BRANCH   3  24
ATOM     24  C   UNL     1       3.752  -4.987   0.624  0.00  0.00    +0.436 C 
ATOM     25  F   UNL     1       4.610  -4.248   1.445  0.00  0.00    -0.166 F 
ATOM     26  F   UNL     1       3.586  -6.270   1.157  0.00  0.00    -0.166 F 
ATOM     27  F   UNL     1       4.301  -5.082  -0.659  0.00  0.00    -0.166 F 
ENDBRANCH   3  24
BRANCH   3  28
ATOM     28  O   UNL     1       1.828  -4.192   1.855  0.00  0.00    -0.364 OA
ATOM     29  H   UNL     1       1.625  -5.105   2.434  0.00  0.00    +0.212 HD
ENDBRANCH   3  28
BRANCH   2  30
ATOM     30  C   UNL     1       1.254  -2.154  -0.021  0.00  0.00    +0.173 C 
ATOM     31  O   UNL     1       0.216  -2.781  -0.014  0.00  0.00    -0.292 OA
BRANCH  30  32
ATOM     32  C   UNL     1       1.225  -0.683  -0.013  0.00  0.00    +0.018 A 
ATOM     33  C   UNL     1       0.002  -0.004   0.002  0.00  0.00    +0.011 A 
ATOM     34  C   UNL     1      -0.017   1.375   0.010  0.00  0.00    +0.001 A 
ATOM     35  C   UNL     1       1.170   2.087   0.002  0.00  0.00    +0.000 A 
ATOM     36  C   UNL     1       2.384   1.422  -0.013  0.00  0.00    +0.001 A 
ATOM     37  C   UNL     1       2.420   0.043  -0.021  0.00  0.00    +0.011 A 
ENDBRANCH  30  32
ENDBRANCH   2  30
TORSDOF 7
