REMARK  Name = ZINC39101436
REMARK  3 active torsions:
REMARK  status: ('A' for Active; 'I' for Inactive)
REMARK    1  A    between atoms: C_1  and  C_2
REMARK    2  A    between atoms: C_2  and  N_3
REMARK    3  A    between atoms: C_7  and  C_15
REMARK                            x       y       z     vdW  Elec       q    Type
REMARK                         _______ _______ _______ _____ _____    ______ ____
ROOT
ATOM      1  N   UNL     1      -1.372  -0.511   0.012  0.00  0.00    -0.344 N 
ATOM      2  C   UNL     1      -2.101  -0.784   1.144  0.00  0.00    +0.050 A 
ATOM      3  C   UNL     1      -1.823  -0.687   2.506  0.00  0.00    +0.027 A 
ATOM      4  C   UNL     1      -2.767  -1.037   3.426  0.00  0.00    +0.021 A 
ATOM      5  C   UNL     1      -4.027  -1.498   3.018  0.00  0.00    +0.052 A 
ATOM      6  C   UNL     1      -4.325  -1.602   1.662  0.00  0.00    +0.029 A 
ATOM      7  C   UNL     1      -3.362  -1.245   0.722  0.00  0.00    +0.005 A 
ATOM      8  C   UNL     1      -3.330  -1.230  -0.745  0.00  0.00    -0.019 A 
ATOM      9  C   UNL     1      -2.122  -0.778  -1.110  0.00  0.00    +0.023 A 
ATOM     10  C   UNL     1      -2.018  -0.727  -2.622  0.00  0.00    +0.054 C 
ATOM     11  C   UNL     1      -3.174  -1.613  -3.133  0.00  0.00    +0.011 C 
ATOM     12  C   UNL     1      -4.175  -1.537  -1.962  0.00  0.00    +0.038 C 
ENDROOT
BRANCH   1  14
ATOM     13  C   UNL     1      -0.019   1.526   0.010  0.00  0.00    +0.027 C 
ATOM     14  C   UNL     1       0.002  -0.004   0.002  0.00  0.00    +0.119 C 
ENDBRANCH   1  14
BRANCH   5  15
ATOM     15  C   UNL     1      -5.008  -1.861   3.996  0.00  0.00    +0.099 C 
ATOM     16  N   UNL     1      -5.785  -2.149   4.773  0.00  0.00    -0.191 NA
ENDBRANCH   5  15
TORSDOF 2
