REMARK  Name = ZINC13758412
REMARK  9 active torsions:
REMARK  status: ('A' for Active; 'I' for Inactive)
REMARK    1  A    between atoms: C_1  and  C_2
REMARK    2  A    between atoms: C_2  and  C_3
REMARK    3  A    between atoms: C_6  and  N_9
REMARK    4  A    between atoms: C_11  and  C_30
REMARK    5  A    between atoms: N_21  and  C_26
REMARK    6  A    between atoms: N_24  and  C_25
REMARK    7  A    between atoms: C_26  and  C_27
REMARK    8  A    between atoms: C_27  and  O_28
REMARK    9  A    between atoms: O_28  and  C_29
REMARK                            x       y       z     vdW  Elec       q    Type
REMARK                         _______ _______ _______ _____ _____    ______ ____
ROOT
ATOM      1  N   UNL     1       3.786   2.078  -6.861  0.00  0.00    -0.271 N 
ATOM      2  C   UNL     1       3.547   3.464  -7.305  0.00  0.00    +0.118 C 
ATOM      3  C   UNL     1       2.183   3.920  -6.776  0.00  0.00    +0.024 C 
ATOM      4  C   UNL     1       2.198   3.923  -5.243  0.00  0.00    +0.130 C 
ATOM      5  N   UNL     1       2.732   2.643  -4.773  0.00  0.00    -0.306 N 
ATOM      6  C   UNL     1       3.470   1.792  -5.543  0.00  0.00    +0.205 A 
ATOM      7  N   UNL     1       3.794   0.736  -4.838  0.00  0.00    -0.196 NA
ATOM      8  C   UNL     1       3.297   0.846  -3.602  0.00  0.00    +0.170 A 
ATOM      9  C   UNL     1       2.611   2.057  -3.528  0.00  0.00    +0.153 A 
ATOM     10  C   UNL     1       1.987   2.415  -2.319  0.00  0.00    +0.283 A 
ATOM     11  O   UNL     1       1.381   3.468  -2.229  0.00  0.00    -0.265 OA
ATOM     12  N   UNL     1       2.066   1.583  -1.261  0.00  0.00    -0.257 N 
ATOM     13  C   UNL     1       2.735   0.420  -1.343  0.00  0.00    +0.333 A 
ATOM     14  O   UNL     1       2.790  -0.304  -0.367  0.00  0.00    -0.246 OA
ATOM     15  N   UNL     1       3.342   0.034  -2.481  0.00  0.00    -0.280 N 
ATOM     16  C   UNL     1       4.057  -1.243  -2.532  0.00  0.00    +0.155 C 
ATOM     17  C   UNL     1       1.885   5.332  -7.285  0.00  0.00    +0.011 C 
ENDROOT
BRANCH   1  21
ATOM     18  C   UNL     1       5.325  -0.817  -9.429  0.00  0.00    -0.048 A 
ATOM     19  C   UNL     1       5.024  -1.146  -8.120  0.00  0.00    +0.005 A 
ATOM     20  C   UNL     1       4.513  -0.189  -7.266  0.00  0.00    +0.024 A 
ATOM     21  C   UNL     1       4.303   1.106  -7.723  0.00  0.00    +0.036 A 
ATOM     22  C   UNL     1       4.601   1.432  -9.040  0.00  0.00    +0.024 A 
ATOM     23  C   UNL     1       5.117   0.471  -9.887  0.00  0.00    +0.005 A 
BRANCH  18  25
ATOM     24  C   UNL     1       4.730  -2.578 -11.072  0.00  0.00    +0.009 C 
ATOM     25  C   UNL     1       5.881  -1.865 -10.359  0.00  0.00    +0.032 C 
ENDBRANCH  18  25
ENDBRANCH   1  21
BRANCH  12  26
ATOM     26  C   UNL     1       1.418   1.954  -0.001  0.00  0.00    +0.158 C 
BRANCH  26  27
ATOM     27  C   UNL     1      -0.017   1.425   0.010  0.00  0.00    +0.181 C 
BRANCH  27  28
ATOM     28  O   UNL     1       0.002  -0.004   0.002  0.00  0.00    -0.381 OA
ATOM     29  C   UNL     1      -1.295  -0.603   0.011  0.00  0.00    +0.194 C 
ENDBRANCH  27  28
ENDBRANCH  26  27
ENDBRANCH  12  26
TORSDOF 5
