REMARK  Name = ZINC07111341
REMARK  4 active torsions:
REMARK  status: ('A' for Active; 'I' for Inactive)
REMARK    1  A    between atoms: C_4  and  C_7
REMARK    2  A    between atoms: C_15  and  S_16
REMARK    3  A    between atoms: S_16  and  C_17
REMARK    4  A    between atoms: C_17  and  C_18
REMARK                            x       y       z     vdW  Elec       q    Type
REMARK                         _______ _______ _______ _____ _____    ______ ____
ROOT
ATOM      1  C   UNL     1       3.657   2.160  -0.023  0.00  0.00    +0.022 A 
ATOM      2  C   UNL     1       3.837   3.503  -0.018  0.00  0.00    +0.029 A 
ATOM      3  C   UNL     1       5.187   4.030  -0.028  0.00  0.00    +0.040 A 
ATOM      4  C   UNL     1       6.209   3.053  -0.042  0.00  0.00    +0.113 A 
ATOM      5  S   UNL     1       5.320   1.519  -0.035  0.00  0.00    -0.069 S 
ATOM      6  N   UNL     1       7.483   3.393  -0.053  0.00  0.00    -0.228 NA
ATOM      7  C   UNL     1       7.836   4.664  -0.050  0.00  0.00    +0.223 A 
ATOM      8  N   UNL     1       6.936   5.630  -0.037  0.00  0.00    -0.229 NA
ATOM      9  C   UNL     1       5.635   5.382  -0.026  0.00  0.00    +0.109 A 
ENDROOT
BRANCH   1  13
ATOM     10  C   UNL     1       0.002  -0.004   0.002  0.00  0.00    +0.000 A 
ATOM     11  C   UNL     1      -0.017   1.379   0.010  0.00  0.00    +0.001 A 
ATOM     12  C   UNL     1       1.167   2.088   0.002  0.00  0.00    +0.009 A 
ATOM     13  C   UNL     1       2.385   1.407  -0.014  0.00  0.00    -0.011 A 
ATOM     14  C   UNL     1       2.397   0.011  -0.021  0.00  0.00    +0.009 A 
ATOM     15  C   UNL     1       1.206  -0.686  -0.013  0.00  0.00    +0.001 A 
ENDBRANCH   1  13
BRANCH   9  16
ATOM     16  S   UNL     1       4.474   6.707  -0.008  0.00  0.00    -0.097 S 
BRANCH  16  17
ATOM     17  C   UNL     1       5.607   8.118  -0.013  0.00  0.00    +0.152 C 
BRANCH  17  18
ATOM     18  C   UNL     1       4.814   9.399   0.001  0.00  0.00    +0.146 A 
ATOM     19  N   UNL     1       4.460   9.968  -1.138  0.00  0.00    -0.199 NA
ATOM     20  C   UNL     1       3.755  11.097  -1.130  0.00  0.00    +0.217 A 
ATOM     21  N   UNL     1       3.416  11.658   0.026  0.00  0.00    -0.181 NA
ATOM     22  C   UNL     1       3.777  11.086   1.169  0.00  0.00    +0.217 A 
ATOM     23  N   UNL     1       4.478   9.954   1.153  0.00  0.00    -0.199 NA
ATOM     24  N   UNL     1       3.428  11.665   2.372  0.00  0.00    -0.327 N 
ATOM     25  N   UNL     1       3.382  11.687  -2.320  0.00  0.00    -0.327 N 
ATOM     26  H   UNL     1       3.692  11.247   3.206  0.00  0.00    +0.145 HD
ATOM     27  H   UNL     1       2.918  12.490   2.383  0.00  0.00    +0.145 HD
ATOM     28  H   UNL     1       2.872  12.512  -2.313  0.00  0.00    +0.145 HD
ATOM     29  H   UNL     1       3.630  11.277  -3.163  0.00  0.00    +0.145 HD
ENDBRANCH  17  18
ENDBRANCH  16  17
ENDBRANCH   9  16
TORSDOF 4
