REMARK  Name = ZINC39769746
REMARK  7 active torsions:
REMARK  status: ('A' for Active; 'I' for Inactive)
REMARK    1  A    between atoms: C_4  and  C_7
REMARK    2  A    between atoms: C_11  and  S_20
REMARK    3  A    between atoms: N_13  and  C_14
REMARK    4  A    between atoms: S_20  and  C_21
REMARK    5  A    between atoms: C_21  and  C_22
REMARK    6  A    between atoms: N_24  and  N_25
REMARK    7  A    between atoms: C_26  and  C_27
REMARK                            x       y       z     vdW  Elec       q    Type
REMARK                         _______ _______ _______ _____ _____    ______ ____
ROOT
ATOM      1  C   UNL     1       3.701  -0.692  -0.015  0.00  0.00    +0.188 C 
ATOM      2  N   UNL     1       4.772   0.108   0.635  0.00  0.00    -0.230 NA
ATOM      3  N   UNL     1       5.758  -0.914   1.023  0.00  0.00    -0.226 NA
ATOM      4  C   UNL     1       4.940  -2.071   1.451  0.00  0.00    +0.218 C 
ATOM      5  N   UNL     1       3.630  -1.930   0.786  0.00  0.00    -0.284 N 
ATOM      6  H   UNL     1       5.173   0.770  -0.012  0.00  0.00    +0.143 HD
ATOM      7  H   UNL     1       6.342  -0.585   1.777  0.00  0.00    +0.143 HD
ENDROOT
BRANCH   1  11
ATOM      8  C   UNL     1      -0.020   1.400   0.129  0.00  0.00    +0.000 A 
ATOM      9  C   UNL     1       0.616   1.039   1.302  0.00  0.00    +0.000 A 
ATOM     10  C   UNL     1       1.820   0.362   1.255  0.00  0.00    +0.007 A 
ATOM     11  C   UNL     1       2.388   0.045   0.035  0.00  0.00    -0.012 A 
ATOM     12  C   UNL     1       1.752   0.406  -1.138  0.00  0.00    +0.007 A 
ATOM     13  C   UNL     1       0.548   1.084  -1.091  0.00  0.00    +0.000 A 
ENDBRANCH   1  11
BRANCH   5  14
ATOM     14  C   UNL     1       2.538  -2.795   0.894  0.00  0.00    +0.033 A 
ATOM     15  C   UNL     1       1.415  -2.601   0.100  0.00  0.00    +0.023 A 
ATOM     16  C   UNL     1       0.338  -3.457   0.209  0.00  0.00    +0.002 A 
ATOM     17  C   UNL     1       0.375  -4.507   1.109  0.00  0.00    +0.000 A 
ATOM     18  C   UNL     1       1.491  -4.703   1.901  0.00  0.00    +0.002 A 
ATOM     19  C   UNL     1       2.574  -3.853   1.793  0.00  0.00    +0.023 A 
ENDBRANCH   5  14
BRANCH   4  20
ATOM     20  S   UNL     1       5.733  -3.619   0.935  0.00  0.00    -0.112 S 
BRANCH  20  21
ATOM     21  C   UNL     1       5.862  -3.465  -0.868  0.00  0.00    +0.169 C 
BRANCH  21  22
ATOM     22  C   UNL     1       6.514  -4.702  -1.432  0.00  0.00    +0.242 C 
ATOM     23  O   UNL     1       6.857  -5.598  -0.691  0.00  0.00    -0.273 OA
ATOM     24  N   UNL     1       6.715  -4.811  -2.760  0.00  0.00    -0.206 N 
ATOM     25  H   UNL     1       6.440  -4.095  -3.353  0.00  0.00    +0.177 HD
BRANCH  24  26
ATOM     26  N   UNL     1       7.320  -5.961  -3.284  0.00  0.00    -0.188 NA
ATOM     27  C   UNL     1       7.515  -6.068  -4.575  0.00  0.00    +0.136 C 
BRANCH  27  28
ATOM     28  C   UNL     1       8.121  -7.218  -5.099  0.00  0.00    +0.000 C 
ATOM     29  C   UNL     1       8.405  -7.486  -6.437  0.00  0.00    +0.004 A 
ATOM     30  C   UNL     1       8.194  -6.748  -7.623  0.00  0.00    +0.010 A 
ATOM     31  C   UNL     1       8.579  -7.268  -8.815  0.00  0.00    +0.001 A 
ATOM     32  C   UNL     1       9.184  -8.524  -8.906  0.00  0.00    +0.002 A 
ATOM     33  C   UNL     1       9.418  -9.287  -7.811  0.00  0.00    +0.026 A 
ATOM     34  C   UNL     1       9.042  -8.811  -6.527  0.00  0.00    +0.043 A 
ATOM     35  N   UNL     1       9.156  -9.349  -5.330  0.00  0.00    -0.380 N 
ATOM     36  C   UNL     1       8.610  -8.426  -4.331  0.00  0.00    +0.150 C 
ATOM     37  H   UNL     1       9.545 -10.217  -5.140  0.00  0.00    +0.160 HD
ENDBRANCH  27  28
ENDBRANCH  24  26
ENDBRANCH  21  22
ENDBRANCH  20  21
ENDBRANCH   4  20
TORSDOF 7
