REMARK  Name = ZINC32511536
REMARK  6 active torsions:
REMARK  status: ('A' for Active; 'I' for Inactive)
REMARK    1  A    between atoms: C_1  and  C_2
REMARK    2  A    between atoms: C_7  and  C_8
REMARK    3  A    between atoms: C_8  and  N_9
REMARK    4  A    between atoms: N_12  and  C_15
REMARK    5  A    between atoms: C_15  and  C_16
REMARK    6  A    between atoms: C_18  and  N_26
REMARK                            x       y       z     vdW  Elec       q    Type
REMARK                         _______ _______ _______ _____ _____    ______ ____
ROOT
ATOM      1  N   UNL     1      -0.690   1.677  -1.199  0.00  0.00    -0.302 NA
ATOM      2  C   UNL     1      -0.006   1.200   0.011  0.00  0.00    +0.066 C 
ATOM      3  C   UNL     1      -0.684   1.797   1.246  0.00  0.00    -0.063 C 
ATOM      4  N   UNL     1      -0.642   3.264   1.164  0.00  0.00    +0.384 N 
ATOM      5  C   UNL     1      -1.326   3.741  -0.046  0.00  0.00    -0.063 C 
ATOM      6  C   UNL     1      -0.647   3.144  -1.281  0.00  0.00    +0.066 C 
ATOM      7  H   UNL     1       0.413   3.570   1.101  0.00  0.00    -0.081 HD
ENDROOT
BRANCH   1   8
ATOM      8  C   UNL     1      -0.115   1.066  -2.405  0.00  0.00    +0.119 C 
BRANCH   8  15
ATOM      9  C   UNL     1      -2.543  -0.491  -2.579  0.00  0.00    +0.044 C 
ATOM     10  C   UNL     1      -2.217   0.519  -3.649  0.00  0.00    -0.046 A 
ATOM     11  C   UNL     1      -3.079   0.701  -4.714  0.00  0.00    +0.003 A 
ATOM     12  C   UNL     1      -2.780   1.627  -5.695  0.00  0.00    +0.000 A 
ATOM     13  C   UNL     1      -1.619   2.372  -5.612  0.00  0.00    +0.000 A 
ATOM     14  C   UNL     1      -0.759   2.194  -4.545  0.00  0.00    +0.005 A 
ATOM     15  C   UNL     1      -1.055   1.264  -3.566  0.00  0.00    -0.030 A 
ENDBRANCH   8  15
ENDBRANCH   1   8
BRANCH   4  16
ATOM     16  C   UNL     1      -1.217   3.876   2.370  0.00  0.00    -0.039 C 
BRANCH  16  17
ATOM     17  C   UNL     1      -0.345   3.560   3.558  0.00  0.00    -0.020 A 
ATOM     18  C   UNL     1      -0.698   2.544   4.424  0.00  0.00    +0.038 A 
ATOM     19  C   UNL     1       0.101   2.255   5.514  0.00  0.00    +0.127 A 
ATOM     20  C   UNL     1       1.255   2.983   5.740  0.00  0.00    +0.042 A 
ATOM     21  C   UNL     1       1.613   4.001   4.877  0.00  0.00    +0.022 A 
ATOM     22  C   UNL     1       0.817   4.288   3.778  0.00  0.00    +0.130 A 
ATOM     23  O   UNL     1       1.158   5.285   2.919  0.00  0.00    -0.466 OA
ATOM     24  C   UNL     1       2.132   6.227   3.376  0.00  0.00    +0.394 C 
ATOM     25  O   UNL     1       3.230   5.508   3.951  0.00  0.00    -0.339 OA
ATOM     26  C   UNL     1       2.871   4.790   5.135  0.00  0.00    +0.202 C 
BRANCH  19  27
ATOM     27  N   UNL     1      -0.279   1.165   6.440  0.00  0.00    +0.056 N 
ATOM     28  O   UNL     1      -1.295   0.523   6.242  0.00  0.00    -0.126 OA
ATOM     29  O   UNL     1       0.425   0.909   7.401  0.00  0.00    -0.126 OA
ENDBRANCH  19  27
ENDBRANCH  16  17
ENDBRANCH   4  16
TORSDOF 5
