REMARK  Name = ZINC00997399
REMARK  9 active torsions:
REMARK  status: ('A' for Active; 'I' for Inactive)
REMARK    1  A    between atoms: C_1  and  C_2
REMARK    2  A    between atoms: C_2  and  O_3
REMARK    3  A    between atoms: O_3  and  C_4
REMARK    4  A    between atoms: C_4  and  C_6
REMARK    5  A    between atoms: C_7  and  C_25
REMARK    6  A    between atoms: C_12  and  C_14
REMARK    7  A    between atoms: C_16  and  O_23
REMARK    8  A    between atoms: C_17  and  O_22
REMARK    9  A    between atoms: O_23  and  C_24
REMARK                            x       y       z     vdW  Elec       q    Type
REMARK                         _______ _______ _______ _____ _____    ______ ____
ROOT
ATOM      1  C   UNL     1       0.903  -2.671  -1.489  0.00  0.00    +0.078 C 
ATOM      2  C   UNL     1       1.767  -3.524  -2.080  0.00  0.00    +0.021 C 
ATOM      3  N   UNL     1       2.929  -3.889  -1.463  0.00  0.00    -0.273 N 
ATOM      4  C   UNL     1       3.300  -3.446  -0.255  0.00  0.00    +0.304 C 
ATOM      5  O   UNL     1       4.354  -3.828   0.213  0.00  0.00    -0.252 OA
ATOM      6  N   UNL     1       2.542  -2.590   0.457  0.00  0.00    -0.288 N 
ATOM      7  C   UNL     1       1.267  -2.134  -0.120  0.00  0.00    +0.145 C 
ATOM      8  C   UNL     1       1.443  -4.082  -3.442  0.00  0.00    +0.061 C 
ATOM      9  H   UNL     1       3.519  -4.505  -1.926  0.00  0.00    +0.156 HD
ATOM     10  H   UNL     1       2.831  -2.280   1.330  0.00  0.00    +0.151 HD
ENDROOT
BRANCH   7  11
ATOM     11  C   UNL     1       1.307  -0.630  -0.207  0.00  0.00    -0.004 A 
ATOM     12  C   UNL     1       2.494   0.013  -0.507  0.00  0.00    +0.056 A 
ATOM     13  C   UNL     1       2.534   1.395  -0.587  0.00  0.00    +0.163 A 
ATOM     14  C   UNL     1       1.376   2.135  -0.367  0.00  0.00    +0.174 A 
ATOM     15  C   UNL     1       0.189   1.487  -0.067  0.00  0.00    +0.077 A 
ATOM     16  C   UNL     1       0.156   0.105   0.013  0.00  0.00    +0.041 A 
ATOM     17 BR   UNL     1      -1.464  -0.779   0.423  0.00  0.00    -0.049 Br
ATOM     18 BR   UNL     1      -1.388   2.489   0.227  0.00  0.00    -0.045 Br
BRANCH  14  19
ATOM     19  O   UNL     1       1.411   3.493  -0.445  0.00  0.00    -0.503 OA
ATOM     20  H   UNL     1       1.614   3.930   0.393  0.00  0.00    +0.292 HD
ENDBRANCH  14  19
BRANCH  13  21
ATOM     21  O   UNL     1       3.701   2.027  -0.882  0.00  0.00    -0.491 OA
ATOM     22  C   UNL     1       4.849   1.204  -1.096  0.00  0.00    +0.277 C 
ENDBRANCH  13  21
ENDBRANCH   7  11
BRANCH   1  23
ATOM     23  C   UNL     1      -0.301  -2.291  -2.128  0.00  0.00    +0.339 C 
ATOM     24  O   UNL     1      -0.370  -1.226  -2.712  0.00  0.00    -0.245 OA
BRANCH  23  25
ATOM     25  O   UNL     1      -1.373  -3.110  -2.088  0.00  0.00    -0.462 OA
BRANCH  25  27
ATOM     26  C   UNL     1      -3.708  -3.631  -2.432  0.00  0.00    +0.048 C 
ATOM     27  C   UNL     1      -2.580  -2.628  -2.681  0.00  0.00    +0.229 C 
ENDBRANCH  25  27
ENDBRANCH  23  25
ENDBRANCH   1  23
TORSDOF 6
