REMARK  Name = ZINC41272277
REMARK  5 active torsions:
REMARK  status: ('A' for Active; 'I' for Inactive)
REMARK    1  A    between atoms: C_4  and  C_7
REMARK    2  A    between atoms: C_12  and  N_13
REMARK    3  A    between atoms: C_14  and  C_16
REMARK    4  A    between atoms: N_18  and  C_19
REMARK    5  A    between atoms: C_24  and  C_27
REMARK                            x       y       z     vdW  Elec       q    Type
REMARK                         _______ _______ _______ _____ _____    ______ ____
ROOT
ATOM      1  N   UNL     1       2.970  -2.065   1.818  0.00  0.00    -0.277 N 
ATOM      2  C   UNL     1       3.168  -3.118   2.635  0.00  0.00    +0.303 C 
ATOM      3  O   UNL     1       4.229  -3.707   2.619  0.00  0.00    -0.265 OA
ATOM      4  H   UNL     1       2.147  -1.554   1.876  0.00  0.00    +0.155 HD
ENDROOT
BRANCH   1  10
ATOM      5  C   UNL     1       3.577  -1.201  -0.362  0.00  0.00    +0.003 A 
ATOM      6  C   UNL     1       4.562  -0.844  -1.280  0.00  0.00    +0.010 A 
ATOM      7  C   UNL     1       5.894  -0.997  -0.956  0.00  0.00    +0.001 A 
ATOM      8  C   UNL     1       6.259  -1.504   0.279  0.00  0.00    +0.002 A 
ATOM      9  C   UNL     1       5.292  -1.863   1.198  0.00  0.00    +0.024 A 
ATOM     10  C   UNL     1       3.948  -1.709   0.889  0.00  0.00    +0.042 A 
BRANCH   5  14
ATOM     11  C   UNL     1      -0.532  -0.735  -1.347  0.00  0.00    +0.000 A 
ATOM     12  C   UNL     1       0.346   0.317  -1.538  0.00  0.00    +0.001 A 
ATOM     13  C   UNL     1       1.681   0.172  -1.220  0.00  0.00    +0.008 A 
ATOM     14  C   UNL     1       2.144  -1.038  -0.705  0.00  0.00    -0.016 A 
ATOM     15  C   UNL     1       1.255  -2.094  -0.515  0.00  0.00    +0.008 A 
ATOM     16  C   UNL     1      -0.078  -1.937  -0.836  0.00  0.00    +0.001 A 
ENDBRANCH   5  14
ENDBRANCH   1  10
BRANCH   2  17
ATOM     17  C   UNL     1       2.082  -3.562   3.559  0.00  0.00    +0.300 C 
ATOM     18  O   UNL     1       1.020  -2.973   3.574  0.00  0.00    -0.265 OA
ATOM     19  N   UNL     1       2.280  -4.615   4.375  0.00  0.00    -0.305 N 
ATOM     20  H   UNL     1       3.128  -5.086   4.363  0.00  0.00    +0.149 HD
BRANCH  19  21
ATOM     21  C   UNL     1       1.214  -5.050   5.282  0.00  0.00    +0.074 C 
ATOM     22  C   UNL     1       0.265  -5.992   4.538  0.00  0.00    +0.022 C 
ATOM     23  C   UNL     1      -0.848  -6.446   5.485  0.00  0.00    +0.002 C 
ATOM     24  C   UNL     1      -0.234  -7.179   6.679  0.00  0.00    +0.012 C 
ATOM     25  C   UNL     1       0.715  -6.237   7.423  0.00  0.00    +0.095 C 
ATOM     26  C   UNL     1       1.828  -5.783   6.476  0.00  0.00    +0.034 C 
BRANCH  25  27
ATOM     27  C   UNL     1       1.329  -6.970   8.617  0.00  0.00    +0.393 C 
ATOM     28  F   UNL     1       2.040  -8.087   8.164  0.00  0.00    -0.170 F 
ATOM     29  F   UNL     1       2.197  -6.109   9.297  0.00  0.00    -0.170 F 
ATOM     30  F   UNL     1       0.311  -7.386   9.483  0.00  0.00    -0.170 F 
ENDBRANCH  25  27
ENDBRANCH  19  21
ENDBRANCH   2  17
TORSDOF 5
