REMARK  Name = ZINC14959371
REMARK  8 active torsions:
REMARK  status: ('A' for Active; 'I' for Inactive)
REMARK    1  A    between atoms: C_1  and  O_2
REMARK    2  A    between atoms: O_2  and  C_3
REMARK    3  A    between atoms: C_5  and  C_10
REMARK    4  A    between atoms: C_8  and  O_9
REMARK    5  A    between atoms: C_16  and  C_21
REMARK    6  A    between atoms: C_24  and  O_29
REMARK    7  A    between atoms: C_25  and  O_27
REMARK    8  A    between atoms: O_27  and  C_28
REMARK                            x       y       z     vdW  Elec       q    Type
REMARK                         _______ _______ _______ _____ _____    ______ ____
ROOT
ATOM      1  C   UNL     1       2.991   4.766  -2.820  0.00  0.00    +0.221 C 
ATOM      2  C   UNL     1       2.889   4.116  -1.456  0.00  0.00    +0.160 C 
ATOM      3  C   UNL     1       1.299   4.130  -1.374  0.00  0.00    +0.160 C 
ATOM      4  C   UNL     1       1.149   3.596   0.010  0.00  0.00    +0.221 C 
ATOM      5  O   UNL     1       2.329   4.130   0.727  0.00  0.00    -0.455 OA
ATOM      6  C   UNL     1       3.145   4.792  -0.159  0.00  0.00    +0.316 C 
ATOM      7  O   UNL     1       3.897   5.711   0.066  0.00  0.00    -0.250 OA
ATOM      8  C   UNL     1       0.959   3.578  -2.684  0.00  0.00    +0.316 C 
ATOM      9  O   UNL     1       0.032   2.846  -2.940  0.00  0.00    -0.250 OA
ATOM     10  O   UNL     1       1.895   4.053  -3.564  0.00  0.00    -0.455 OA
ENDROOT
BRANCH   1  13
ATOM     11  C   UNL     1       6.593   5.217  -3.868  0.00  0.00    +0.162 A 
ATOM     12  C   UNL     1       5.349   5.450  -3.304  0.00  0.00    +0.056 A 
ATOM     13  C   UNL     1       4.342   4.513  -3.438  0.00  0.00    -0.003 A 
ATOM     14  C   UNL     1       4.569   3.346  -4.144  0.00  0.00    +0.011 A 
ATOM     15  C   UNL     1       5.806   3.109  -4.713  0.00  0.00    +0.049 A 
ATOM     16  C   UNL     1       6.822   4.042  -4.578  0.00  0.00    +0.158 A 
BRANCH  11  18
ATOM     17  C   UNL     1       7.279   7.318  -2.991  0.00  0.00    +0.277 C 
ATOM     18  O   UNL     1       7.586   6.136  -3.732  0.00  0.00    -0.491 OA
ENDBRANCH  11  18
BRANCH  16  19
ATOM     19  O   UNL     1       8.039   3.810  -5.138  0.00  0.00    -0.503 OA
ATOM     20  H   UNL     1       8.219   2.881  -5.699  0.00  0.00    +0.292 HD
ENDBRANCH  16  19
ENDBRANCH   1  13
BRANCH   4  21
ATOM     21  C   UNL     1       1.171   2.089   0.002  0.00  0.00    -0.003 A 
ATOM     22  C   UNL     1       2.379   1.417  -0.013  0.00  0.00    +0.011 A 
ATOM     23  C   UNL     1       2.405   0.035  -0.021  0.00  0.00    +0.049 A 
ATOM     24  C   UNL     1       1.218  -0.680  -0.013  0.00  0.00    +0.158 A 
ATOM     25  C   UNL     1       0.002  -0.004   0.002  0.00  0.00    +0.162 A 
ATOM     26  C   UNL     1      -0.017   1.381   0.010  0.00  0.00    +0.056 A 
BRANCH  25  27
ATOM     27  O   UNL     1      -1.165  -0.702   0.009  0.00  0.00    -0.491 OA
ATOM     28  C   UNL     1      -2.375   0.059   0.024  0.00  0.00    +0.277 C 
ENDBRANCH  25  27
BRANCH  24  29
ATOM     29  O   UNL     1       1.242  -2.040  -0.021  0.00  0.00    -0.503 OA
ATOM     30  H   UNL     1       0.299  -2.607  -0.015  0.00  0.00    +0.292 HD
ENDBRANCH  24  29
ENDBRANCH   4  21
TORSDOF 6
