REMARK  Name = ZINC20683119
REMARK  11 active torsions:
REMARK  status: ('A' for Active; 'I' for Inactive)
REMARK    1  A    between atoms: C_1  and  O_2
REMARK    2  A    between atoms: O_2  and  C_3
REMARK    3  A    between atoms: C_5  and  C_13
REMARK    4  A    between atoms: C_7  and  O_11
REMARK    5  A    between atoms: C_8  and  O_9
REMARK    6  A    between atoms: O_9  and  C_10
REMARK    7  A    between atoms: O_11  and  C_12
REMARK    8  A    between atoms: C_24  and  S_29
REMARK    9  A    between atoms: S_29  and  N_32
REMARK   10  A    between atoms: N_32  and  C_33
REMARK   11  A    between atoms: C_33  and  C_34
REMARK                            x       y       z     vdW  Elec       q    Type
REMARK                         _______ _______ _______ _____ _____    ______ ____
ROOT
ATOM      1  C   UNL     1      -3.717   1.682   0.085  0.00  0.00    +0.105 C 
ATOM      2  C   UNL     1      -3.531   2.977   0.854  0.00  0.00    +0.029 C 
ATOM      3  C   UNL     1      -4.695   3.977   0.874  0.00  0.00    +0.033 C 
ATOM      4  C   UNL     1      -3.955   5.307   1.027  0.00  0.00    -0.030 C 
ATOM      5  C   UNL     1      -2.724   5.201   0.542  0.00  0.00    -0.023 C 
ATOM      6  C   UNL     1      -2.545   3.829   0.001  0.00  0.00    +0.049 C 
ATOM      7  C   UNL     1      -1.231   3.150   0.015  0.00  0.00    -0.018 A 
ATOM      8  C   UNL     1      -0.039   3.843   0.011  0.00  0.00    +0.034 A 
ATOM      9  C   UNL     1       1.164   3.162   0.005  0.00  0.00    +0.106 A 
ATOM     10  C   UNL     1       1.175   1.778   0.000  0.00  0.00    +0.030 A 
ATOM     11  C   UNL     1      -0.013   1.076   0.008  0.00  0.00    +0.025 A 
ATOM     12  C   UNL     1      -1.227   1.751   0.017  0.00  0.00    +0.031 A 
ATOM     13  N   UNL     1      -2.396   1.018   0.096  0.00  0.00    -0.336 N 
ATOM     14  H   UNL     1      -2.331  -0.077   0.167  0.00  0.00    +0.147 HD
ENDROOT
BRANCH   1  17
ATOM     15  C   UNL     1      -6.984  -0.025   0.920  0.00  0.00    +0.165 A 
ATOM     16  C   UNL     1      -6.039   0.774   0.294  0.00  0.00    +0.055 A 
ATOM     17  C   UNL     1      -4.742   0.813   0.769  0.00  0.00    -0.020 A 
ATOM     18  C   UNL     1      -4.379   0.054   1.865  0.00  0.00    +0.055 A 
ATOM     19  C   UNL     1      -5.320  -0.743   2.501  0.00  0.00    +0.165 A 
ATOM     20  C   UNL     1      -6.626  -0.786   2.026  0.00  0.00    +0.204 A 
BRANCH  15  22
ATOM     21  C   UNL     1      -8.558   0.744  -0.689  0.00  0.00    +0.277 C 
ATOM     22  O   UNL     1      -8.261  -0.063   0.452  0.00  0.00    -0.491 OA
ENDBRANCH  15  22
BRANCH  20  23
ATOM     23  O   UNL     1      -7.550  -1.571   2.643  0.00  0.00    -0.488 OA
ATOM     24  C   UNL     1      -7.680  -2.913   2.171  0.00  0.00    +0.277 C 
ENDBRANCH  20  23
BRANCH  19  25
ATOM     25  O   UNL     1      -4.964  -1.486   3.583  0.00  0.00    -0.491 OA
ATOM     26  C   UNL     1      -3.605  -1.392   4.015  0.00  0.00    +0.277 C 
ENDBRANCH  19  25
ENDBRANCH   1  17
BRANCH   9  27
ATOM     27  S   UNL     1       2.683   4.055   0.004  0.00  0.00    +0.059 S 
ATOM     28  O   UNL     1       2.403   5.332   0.560  0.00  0.00    -0.153 OA
ATOM     29  O   UNL     1       3.666   3.185   0.549  0.00  0.00    -0.153 OA
BRANCH  27  30
ATOM     30  N   UNL     1       3.100   4.309  -1.578  0.00  0.00    -0.186 NA
ATOM     31  H   UNL     1       3.911   3.713  -2.022  0.00  0.00    +0.148 HD
BRANCH  30  32
ATOM     32  C   UNL     1       2.260   5.153  -2.431  0.00  0.00    +0.141 C 
BRANCH  32  33
ATOM     33  C   UNL     1       3.022   5.524  -3.677  0.00  0.00    -0.032 A 
ATOM     34  C   UNL     1       3.790   6.673  -3.702  0.00  0.00    +0.005 A 
ATOM     35  C   UNL     1       4.492   7.010  -4.843  0.00  0.00    +0.000 A 
ATOM     36  C   UNL     1       4.419   6.204  -5.964  0.00  0.00    +0.000 A 
ATOM     37  C   UNL     1       3.647   5.058  -5.941  0.00  0.00    +0.000 A 
ATOM     38  C   UNL     1       2.948   4.718  -4.798  0.00  0.00    +0.005 A 
ENDBRANCH  32  33
ENDBRANCH  30  32
ENDBRANCH  27  30
ENDBRANCH   9  27
TORSDOF 8
