REMARK  Name = ZINC01774644
REMARK  8 active torsions:
REMARK  status: ('A' for Active; 'I' for Inactive)
REMARK    1  A    between atoms: C_1  and  C_2
REMARK    2  A    between atoms: C_5  and  S_8
REMARK    3  A    between atoms: S_8  and  N_11
REMARK    4  A    between atoms: C_16  and  C_17
REMARK    5  A    between atoms: C_16  and  N_53
REMARK    6  A    between atoms: N_19  and  N_20
REMARK    7  A    between atoms: C_21  and  C_22
REMARK    8  A    between atoms: C_27  and  O_28
REMARK                            x       y       z     vdW  Elec       q    Type
REMARK                         _______ _______ _______ _____ _____    ______ ____
ROOT
ATOM      1  N   UNL     1      -2.117   4.161   2.162  0.00  0.00    -0.180 NA
ATOM      2  C   UNL     1      -1.032   4.040   1.176  0.00  0.00    +0.091 C 
ATOM      3  C   UNL     1      -1.637   4.112  -0.230  0.00  0.00    -0.061 C 
ATOM      4  C   UNL     1      -3.587   5.303   0.583  0.00  0.00    -0.061 C 
ATOM      5  C   UNL     1      -3.062   5.280   2.022  0.00  0.00    +0.091 C 
ATOM      6  N   UNL     1      -2.433   5.353  -0.342  0.00  0.00    +0.387 N 
ATOM      7  H   UNL     1      -1.840   6.152  -0.092  0.00  0.00    -0.081 HD
ENDROOT
BRANCH   1   8
ATOM      8  S   UNL     1      -2.274   3.063   3.392  0.00  0.00    +0.061 S 
ATOM      9  O   UNL     1      -3.636   3.096   3.794  0.00  0.00    -0.153 OA
ATOM     10  O   UNL     1      -1.637   1.870   2.955  0.00  0.00    -0.153 OA
BRANCH   8  15
ATOM     11  C   UNL     1       0.950   5.133   8.053  0.00  0.00    +0.044 C 
ATOM     12  C   UNL     1       0.145   4.616   6.889  0.00  0.00    -0.050 A 
ATOM     13  C   UNL     1      -1.185   4.969   6.758  0.00  0.00    +0.005 A 
ATOM     14  C   UNL     1      -1.924   4.494   5.690  0.00  0.00    +0.029 A 
ATOM     15  C   UNL     1      -1.332   3.668   4.753  0.00  0.00    +0.105 A 
ATOM     16  C   UNL     1      -0.004   3.311   4.887  0.00  0.00    +0.029 A 
ATOM     17  C   UNL     1       0.736   3.789   5.952  0.00  0.00    +0.005 A 
ENDBRANCH   8  15
ENDBRANCH   1   8
BRANCH   6  18
ATOM     18  C   UNL     1      -2.908   5.524  -1.731  0.00  0.00    +0.020 C 
BRANCH  18  19
ATOM     19  C   UNL     1      -3.800   4.378  -2.132  0.00  0.00    +0.216 C 
ATOM     20  O   UNL     1      -4.090   3.522  -1.321  0.00  0.00    -0.276 OA
ATOM     21  N   UNL     1      -4.277   4.303  -3.390  0.00  0.00    -0.209 N 
ATOM     22  H   UNL     1      -4.046   4.986  -4.038  0.00  0.00    +0.177 HD
BRANCH  21  23
ATOM     23  N   UNL     1      -5.107   3.237  -3.762  0.00  0.00    -0.188 NA
ATOM     24  C   UNL     1      -5.472   3.101  -5.000  0.00  0.00    +0.142 C 
BRANCH  24  25
ATOM     25  C   UNL     1      -4.845   3.925  -6.048  0.00  0.00    +0.036 A 
ATOM     26  C   UNL     1      -3.546   4.408  -5.879  0.00  0.00    +0.013 A 
ATOM     27  C   UNL     1      -2.963   5.175  -6.865  0.00  0.00    +0.001 A 
ATOM     28  C   UNL     1      -3.665   5.478  -8.020  0.00  0.00    +0.004 A 
ATOM     29  C   UNL     1      -4.953   5.011  -8.198  0.00  0.00    +0.046 A 
ATOM     30  C   UNL     1      -5.552   4.234  -7.219  0.00  0.00    +0.125 A 
BRANCH  30  31
ATOM     31  O   UNL     1      -6.818   3.774  -7.393  0.00  0.00    -0.506 OA
ATOM     32  H   UNL     1      -7.504   4.402  -7.129  0.00  0.00    +0.292 HD
ENDBRANCH  30  31
ENDBRANCH  24  25
ENDBRANCH  21  23
ENDBRANCH  18  19
ENDBRANCH   6  18
TORSDOF 7
