REMARK  Name = ZINC44453369
REMARK  6 active torsions:
REMARK  status: ('A' for Active; 'I' for Inactive)
REMARK    1  A    between atoms: C_1  and  C_2
REMARK    2  A    between atoms: C_2  and  C_30
REMARK    3  A    between atoms: N_3  and  N_4
REMARK    4  A    between atoms: C_5  and  C_7
REMARK    5  A    between atoms: C_11  and  N_12
REMARK    6  A    between atoms: C_13  and  C_15
REMARK                            x       y       z     vdW  Elec       q    Type
REMARK                         _______ _______ _______ _____ _____    ______ ____
ROOT
ATOM      1  N   UNL     1       0.087  -1.941   6.205  0.00  0.00    -0.275 N 
ATOM      2  C   UNL     1       0.106  -2.416   7.466  0.00  0.00    +0.256 C 
ATOM      3  O   UNL     1       0.104  -1.645   8.406  0.00  0.00    -0.270 OA
ATOM      4  H   UNL     1       0.088  -2.556   5.455  0.00  0.00    +0.156 HD
ENDROOT
BRANCH   2   5
ATOM      5  C   UNL     1       0.128  -3.867   7.705  0.00  0.00    +0.122 A 
ATOM      6  C   UNL     1       0.141  -4.391   8.996  0.00  0.00    +0.032 A 
ATOM      7  C   UNL     1       0.193  -5.792   9.142  0.00  0.00    +0.026 A 
ATOM      8  C   UNL     1      -0.009  -6.419  10.450  0.00  0.00    -0.007 A 
ATOM      9  C   UNL     1      -0.239  -5.659  11.599  0.00  0.00    +0.009 A 
ATOM     10  C   UNL     1      -0.423  -6.285  12.798  0.00  0.00    +0.001 A 
ATOM     11  C   UNL     1      -0.383  -7.673  12.890  0.00  0.00    +0.001 A 
ATOM     12  C   UNL     1      -0.161  -8.443  11.788  0.00  0.00    +0.008 A 
ATOM     13  C   UNL     1       0.032  -7.830  10.539  0.00  0.00    -0.017 A 
ATOM     14  C   UNL     1       0.263  -8.595   9.378  0.00  0.00    +0.012 A 
ATOM     15  C   UNL     1       0.458  -8.000   8.174  0.00  0.00    +0.047 A 
ATOM     16  C   UNL     1       0.436  -6.610   8.029  0.00  0.00    +0.140 A 
ATOM     17  O   UNL     1       0.672  -6.050   6.818  0.00  0.00    -0.422 OA
ATOM     18  C   UNL     1       0.130  -4.830   6.590  0.00  0.00    +0.350 A 
ATOM     19  O   UNL     1      -0.334  -4.537   5.504  0.00  0.00    -0.244 OA
ENDBRANCH   2   5
BRANCH   1  24
ATOM     20  C   UNL     1       0.046   0.090   4.761  0.00  0.00    +0.067 A 
ATOM     21  C   UNL     1       0.021   1.534   4.812  0.00  0.00    +0.022 A 
ATOM     22  C   UNL     1       0.026   2.077   6.044  0.00  0.00    +0.048 A 
ATOM     23  S   UNL     1       0.064   0.659   7.117  0.00  0.00    -0.081 S 
ATOM     24  C   UNL     1       0.067  -0.574   5.979  0.00  0.00    +0.084 A 
BRANCH  20  26
ATOM     25  N   UNL     1       0.023   0.044   2.324  0.00  0.00    -0.203 N 
ATOM     26  C   UNL     1       0.044  -0.636   3.488  0.00  0.00    +0.266 C 
ATOM     27  O   UNL     1       0.060  -1.853   3.481  0.00  0.00    -0.268 OA
ATOM     28  H   UNL     1       0.010   1.014   2.329  0.00  0.00    +0.178 HD
BRANCH  25  31
ATOM     29  C   UNL     1      -0.018   1.503   0.010  0.00  0.00    +0.062 C 
ATOM     30  C   UNL     1       0.002  -0.004   0.002  0.00  0.00    +0.031 C 
ATOM     31  N   UNL     1       0.021  -0.650   1.107  0.00  0.00    -0.190 NA
ATOM     32  C   UNL     1      -0.000  -0.750  -1.307  0.00  0.00    +0.062 C 
ENDBRANCH  25  31
ENDBRANCH  20  26
ENDBRANCH   1  24
TORSDOF 4
