REMARK  Name = ZINC08629036
REMARK  12 active torsions:
REMARK  status: ('A' for Active; 'I' for Inactive)
REMARK    1  A    between atoms: C_1  and  O_2
REMARK    2  A    between atoms: O_2  and  C_3
REMARK    3  A    between atoms: C_6  and  C_11
REMARK    4  A    between atoms: C_8  and  O_9
REMARK    5  A    between atoms: O_9  and  C_10
REMARK    6  A    between atoms: C_11  and  C_12
REMARK    7  A    between atoms: C_12  and  N_13
REMARK    8  A    between atoms: N_13  and  C_14
REMARK    9  A    between atoms: C_17  and  C_31
REMARK   10  A    between atoms: C_19  and  N_20
REMARK   11  A    between atoms: C_21  and  C_22
REMARK   12  A    between atoms: C_27  and  O_28
REMARK                            x       y       z     vdW  Elec       q    Type
REMARK                         _______ _______ _______ _____ _____    ______ ____
ROOT
ATOM      1  C   UNL     1       1.614   3.441   0.269  0.00  0.00    +0.053 A 
ATOM      2  C   UNL     1       0.554   4.335   0.273  0.00  0.00    +0.025 A 
ATOM      3  C   UNL     1       0.775   5.672   0.002  0.00  0.00    +0.014 A 
ATOM      4  C   UNL     1       2.052   6.129  -0.275  0.00  0.00    +0.057 A 
ATOM      5  C   UNL     1       3.118   5.253  -0.284  0.00  0.00    +0.042 A 
ATOM      6  C   UNL     1       2.910   3.901  -0.006  0.00  0.00    +0.085 A 
ENDROOT
BRANCH   4   7
ATOM      7  C   UNL     1       2.279   7.589  -0.569  0.00  0.00    +0.417 C 
ATOM      8  F   UNL     1       1.060   8.273  -0.503  0.00  0.00    -0.166 F 
ATOM      9  F   UNL     1       3.165   8.122   0.373  0.00  0.00    -0.166 F 
ATOM     10  F   UNL     1       2.823   7.728  -1.851  0.00  0.00    -0.166 F 
ENDBRANCH   4   7
BRANCH   1  11
ATOM     11  N   UNL     1       1.393   2.091   0.542  0.00  0.00    -0.342 N 
ATOM     12  H   UNL     1       2.135   1.467   0.538  0.00  0.00    +0.146 HD
BRANCH  11  13
ATOM     13  C   UNL     1       0.038   1.615   0.835  0.00  0.00    +0.106 C 
BRANCH  13  14
ATOM     14  C   UNL     1       0.073   0.108   1.096  0.00  0.00    +0.054 C 
BRANCH  14  18
ATOM     15  C   UNL     1      -3.880  -1.280   1.957  0.00  0.00    +0.161 A 
ATOM     16  C   UNL     1      -3.056  -0.847   2.983  0.00  0.00    +0.049 A 
ATOM     17  C   UNL     1      -1.777  -0.404   2.702  0.00  0.00    +0.007 A 
ATOM     18  C   UNL     1      -1.321  -0.382   1.397  0.00  0.00    -0.042 A 
ATOM     19  C   UNL     1      -2.138  -0.812   0.369  0.00  0.00    +0.053 A 
ATOM     20  C   UNL     1      -3.419  -1.263   0.644  0.00  0.00    +0.162 A 
BRANCH  15  22
ATOM     21  C   UNL     1      -5.543  -1.710   3.602  0.00  0.00    +0.277 C 
ATOM     22  O   UNL     1      -5.137  -1.721   2.232  0.00  0.00    -0.491 OA
ENDBRANCH  15  22
BRANCH  20  23
ATOM     23  O   UNL     1      -4.224  -1.686  -0.367  0.00  0.00    -0.491 OA
ATOM     24  C   UNL     1      -3.684  -1.640  -1.689  0.00  0.00    +0.277 C 
ENDBRANCH  20  23
ENDBRANCH  14  18
ENDBRANCH  13  14
ENDBRANCH  11  13
ENDBRANCH   1  11
BRANCH   6  25
ATOM     25  N   UNL     1       3.964   3.029  -0.008  0.00  0.00    -0.253 NA
ATOM     26  C   UNL     1       5.059   3.329   0.632  0.00  0.00    +0.123 C 
BRANCH  26  27
ATOM     27  C   UNL     1       6.233   2.449   0.532  0.00  0.00    +0.037 A 
ATOM     28  C   UNL     1       7.411   2.767   1.217  0.00  0.00    +0.033 A 
ATOM     29  C   UNL     1       8.508   1.937   1.119  0.00  0.00    +0.043 A 
ATOM     30  C   UNL     1       8.450   0.789   0.345  0.00  0.00    +0.043 A 
ATOM     31  C   UNL     1       7.292   0.463  -0.337  0.00  0.00    +0.084 A 
ATOM     32  C   UNL     1       6.177   1.282  -0.245  0.00  0.00    +0.144 A 
ATOM     33 CL   UNL     1       7.231  -0.978  -1.303  0.00  0.00    -0.080 Cl
ATOM     34 CL   UNL     1       9.969   2.333   1.968  0.00  0.00    -0.083 Cl
BRANCH  32  35
ATOM     35  O   UNL     1       5.037   0.960  -0.909  0.00  0.00    -0.505 OA
ATOM     36  H   UNL     1       4.988   1.322  -1.805  0.00  0.00    +0.292 HD
ENDBRANCH  32  35
ENDBRANCH  26  27
ENDBRANCH   6  25
TORSDOF 10
