REMARK  Name = ZINC14257358
REMARK  10 active torsions:
REMARK  status: ('A' for Active; 'I' for Inactive)
REMARK    1  A    between atoms: C_1  and  C_2
REMARK    2  A    between atoms: C_2  and  O_3
REMARK    3  A    between atoms: O_3  and  C_4
REMARK    4  A    between atoms: C_4  and  C_6
REMARK    5  A    between atoms: C_7  and  C_37
REMARK    6  A    between atoms: C_14  and  C_15
REMARK    7  A    between atoms: C_16  and  C_25
REMARK    8  A    between atoms: C_27  and  C_29
REMARK    9  A    between atoms: C_34  and  O_35
REMARK   10  A    between atoms: O_35  and  C_36
REMARK                            x       y       z     vdW  Elec       q    Type
REMARK                         _______ _______ _______ _____ _____    ______ ____
ROOT
ATOM      1  C   UNL     1       0.987  -2.627  -0.205  0.00  0.00    +0.085 C 
ATOM      2  C   UNL     1      -0.317  -2.216  -0.245  0.00  0.00    +0.053 C 
ATOM      3  N   UNL     1      -0.620  -0.926  -0.185  0.00  0.00    -0.228 NA
ATOM      4  C   UNL     1       0.256   0.041  -0.085  0.00  0.00    +0.178 A 
ATOM      5  N   UNL     1       1.619  -0.153  -0.030  0.00  0.00    -0.275 N 
ATOM      6  C   UNL     1       2.406   0.924   0.072  0.00  0.00    +0.268 A 
ATOM      7  O   UNL     1       3.617   0.798   0.124  0.00  0.00    -0.266 OA
ATOM      8  C   UNL     1       1.817   2.216   0.120  0.00  0.00    +0.081 A 
ATOM      9  C   UNL     1       2.415   3.436   0.222  0.00  0.00    +0.030 C 
ATOM     10  S   UNL     1       0.080   1.811   0.011  0.00  0.00    -0.046 S 
ATOM     11  C   UNL     1       2.063  -1.573  -0.091  0.00  0.00    +0.165 C 
ATOM     12  C   UNL     1      -1.419  -3.238  -0.359  0.00  0.00    +0.066 C 
ENDROOT
BRANCH   9  13
ATOM     13  C   UNL     1       3.872   3.543   0.159  0.00  0.00    +0.004 A 
ATOM     14  C   UNL     1       4.696   4.072   1.114  0.00  0.00    +0.021 A 
ATOM     15  N   UNL     1       5.986   3.994   0.699  0.00  0.00    -0.358 N 
ATOM     16  H   UNL     1       6.751   4.304   1.208  0.00  0.00    +0.166 HD
ATOM     17  C   UNL     1       6.055   3.416  -0.552  0.00  0.00    +0.047 A 
ATOM     18  C   UNL     1       4.744   3.107  -0.949  0.00  0.00    +0.007 A 
ATOM     19  C   UNL     1       4.510   2.509  -2.184  0.00  0.00    +0.010 A 
ATOM     20  C   UNL     1       5.571   2.221  -3.014  0.00  0.00    +0.001 A 
ATOM     21  C   UNL     1       6.867   2.525  -2.624  0.00  0.00    +0.002 A 
ATOM     22  C   UNL     1       7.113   3.118  -1.405  0.00  0.00    +0.026 A 
ATOM     23  C   UNL     1       4.241   4.651   2.429  0.00  0.00    +0.064 C 
ENDBRANCH   9  13
BRANCH  11  24
ATOM     24  C   UNL     1       2.865  -1.861   1.152  0.00  0.00    +0.022 A 
ATOM     25  C   UNL     1       4.138  -2.388   1.047  0.00  0.00    +0.009 A 
ATOM     26  C   UNL     1       4.874  -2.652   2.187  0.00  0.00    +0.001 A 
ATOM     27  C   UNL     1       4.339  -2.391   3.435  0.00  0.00    +0.004 A 
ATOM     28  C   UNL     1       3.066  -1.865   3.545  0.00  0.00    +0.046 A 
ATOM     29  C   UNL     1       2.328  -1.593   2.403  0.00  0.00    +0.126 A 
BRANCH  29  30
ATOM     30  O   UNL     1       1.078  -1.071   2.508  0.00  0.00    -0.495 OA
ATOM     31  C   UNL     1       0.631  -0.717   3.819  0.00  0.00    +0.277 C 
ENDBRANCH  29  30
ENDBRANCH  11  24
BRANCH   1  32
ATOM     32  C   UNL     1       1.316  -3.991  -0.269  0.00  0.00    +0.339 C 
ATOM     33  O   UNL     1       0.434  -4.831  -0.253  0.00  0.00    -0.245 OA
BRANCH  32  34
ATOM     34  O   UNL     1       2.610  -4.370  -0.346  0.00  0.00    -0.462 OA
BRANCH  34  36
ATOM     35  C   UNL     1       4.376  -6.016  -0.464  0.00  0.00    +0.048 C 
ATOM     36  C   UNL     1       2.868  -5.765  -0.520  0.00  0.00    +0.229 C 
ENDBRANCH  34  36
ENDBRANCH  32  34
ENDBRANCH   1  32
TORSDOF 6
