REMARK  Name = ZINC03830633
REMARK  12 active torsions:
REMARK  status: ('A' for Active; 'I' for Inactive)
REMARK    1  A    between atoms: C_1  and  C_2
REMARK    2  A    between atoms: C_4  and  O_43
REMARK    3  A    between atoms: C_6  and  N_42
REMARK    4  A    between atoms: C_9  and  O_12
REMARK    5  A    between atoms: O_12  and  C_13
REMARK    6  A    between atoms: C_16  and  C_38
REMARK    7  A    between atoms: C_16  and  O_41
REMARK    8  A    between atoms: C_20  and  O_37
REMARK    9  A    between atoms: C_23  and  O_24
REMARK   10  A    between atoms: C_31  and  O_35
REMARK   11  A    between atoms: O_35  and  C_36
REMARK   12  A    between atoms: C_38  and  C_40
REMARK                            x       y       z     vdW  Elec       q    Type
REMARK                         _______ _______ _______ _____ _____    ______ ____
ROOT
ATOM      1  C   UNL     1       3.200  -1.857   2.119  0.00  0.00    +0.158 C 
ATOM      2  C   UNL     1       4.165  -2.934   2.610  0.00  0.00    +0.079 C 
ATOM      3  C   UNL     1       5.571  -2.326   2.675  0.00  0.00    +0.130 C 
ATOM      4  C   UNL     1       5.605  -1.315   3.819  0.00  0.00    +0.082 C 
ATOM      5  C   UNL     1       4.457  -0.346   3.706  0.00  0.00    +0.007 A 
ATOM      6  C   UNL     1       3.353  -0.596   2.930  0.00  0.00    +0.030 A 
ATOM      7  C   UNL     1       2.312   0.339   2.869  0.00  0.00    +0.134 A 
ATOM      8  C   UNL     1       2.386   1.530   3.589  0.00  0.00    +0.078 A 
ATOM      9  C   UNL     1       3.522   1.788   4.383  0.00  0.00    +0.078 A 
ATOM     10  C   UNL     1       4.547   0.848   4.434  0.00  0.00    +0.132 A 
ATOM     11  C   UNL     1       3.617   3.043   5.148  0.00  0.00    +0.198 C 
ATOM     12  O   UNL     1       4.596   3.267   5.833  0.00  0.00    -0.286 OA
ATOM     13  C   UNL     1       2.519   4.030   5.081  0.00  0.00    +0.037 A 
ATOM     14  C   UNL     1       2.599   5.218   5.801  0.00  0.00    +0.012 A 
ATOM     15  C   UNL     1       1.567   6.140   5.735  0.00  0.00    +0.004 A 
ATOM     16  C   UNL     1       0.453   5.892   4.959  0.00  0.00    +0.046 A 
ATOM     17  C   UNL     1       0.352   4.710   4.231  0.00  0.00    +0.132 A 
ATOM     18  C   UNL     1       1.386   3.771   4.288  0.00  0.00    +0.075 A 
ATOM     19  C   UNL     1       1.292   2.514   3.523  0.00  0.00    +0.202 C 
ATOM     20  O   UNL     1       0.312   2.290   2.839  0.00  0.00    -0.286 OA
ENDROOT
BRANCH   3  21
ATOM     21  C   UNL     1       6.583  -3.414   2.928  0.00  0.00    +0.162 C 
ATOM     22  O   UNL     1       6.247  -4.434   3.479  0.00  0.00    -0.295 OA
ATOM     23  C   UNL     1       8.014  -3.228   2.493  0.00  0.00    +0.089 C 
ENDBRANCH   3  21
BRANCH  10  24
ATOM     24  O   UNL     1       5.643   1.089   5.196  0.00  0.00    -0.506 OA
ATOM     25  H   UNL     1       6.353   1.549   4.729  0.00  0.00    +0.292 HD
ENDBRANCH  10  24
BRANCH  17  26
ATOM     26  O   UNL     1      -0.744   4.471   3.469  0.00  0.00    -0.494 OA
ATOM     27  C   UNL     1      -1.760   5.476   3.460  0.00  0.00    +0.277 C 
ENDBRANCH  17  26
BRANCH   7  28
ATOM     28  O   UNL     1       1.223   0.084   2.102  0.00  0.00    -0.506 OA
ATOM     29  H   UNL     1       0.519  -0.391   2.565  0.00  0.00    +0.292 HD
ENDBRANCH   7  28
BRANCH   3  30
ATOM     30  O   UNL     1       5.869  -1.668   1.442  0.00  0.00    -0.381 OA
ATOM     31  H   UNL     1       6.746  -1.261   1.415  0.00  0.00    +0.211 HD
ENDBRANCH   3  30
BRANCH   1  32
ATOM     32  O   UNL     1       1.859  -2.335   2.241  0.00  0.00    -0.343 OA
BRANCH  32  38
ATOM     33  C   UNL     1       0.696  -1.963  -2.343  0.00  0.00    +0.040 C 
ATOM     34  C   UNL     1       0.823  -2.959  -1.189  0.00  0.00    +0.145 C 
ATOM     35  C   UNL     1      -0.532  -3.625  -0.937  0.00  0.00    +0.129 C 
ATOM     36  C   UNL     1      -0.411  -4.576   0.257  0.00  0.00    -0.039 C 
ATOM     37  C   UNL     1       0.085  -3.789   1.474  0.00  0.00    +0.048 C 
ATOM     38  C   UNL     1       1.417  -3.117   1.129  0.00  0.00    +0.250 C 
ATOM     39  O   UNL     1       1.241  -2.271  -0.009  0.00  0.00    -0.346 OA
BRANCH  36  40
ATOM     40  N   UNL     1      -1.724  -5.164   0.553  0.00  0.00    +0.382 N 
ATOM     41  H   UNL     1      -2.052  -5.676  -0.252  0.00  0.00    -0.090 HD
ATOM     42  H   UNL     1      -1.643  -5.790   1.340  0.00  0.00    -0.090 HD
ATOM     43  H   UNL     1      -2.380  -4.429   0.773  0.00  0.00    -0.090 HD
ENDBRANCH  36  40
BRANCH  35  44
ATOM     44  O   UNL     1      -0.926  -4.361  -2.097  0.00  0.00    -0.391 OA
ATOM     45  H   UNL     1      -1.018  -3.820  -2.894  0.00  0.00    +0.210 HD
ENDBRANCH  35  44
ENDBRANCH  32  38
ENDBRANCH   1  32
TORSDOF 9
