REMARK  Name = ZINC35945092
REMARK  16 active torsions:
REMARK  status: ('A' for Active; 'I' for Inactive)
REMARK    1  A    between atoms: C_1  and  C_2
REMARK    2  A    between atoms: C_2  and  C_3
REMARK    3  A    between atoms: C_2  and  C_4
REMARK    4  A    between atoms: C_2  and  N_5
REMARK    5  A    between atoms: N_8  and  C_9
REMARK    6  A    between atoms: N_8  and  C_31
REMARK    7  A    between atoms: C_9  and  C_10
REMARK    8  A    between atoms: C_12  and  N_19
REMARK    9  A    between atoms: C_15  and  N_16
REMARK   10  A    between atoms: N_16  and  C_17
REMARK   11  A    between atoms: N_16  and  C_18
REMARK   12  A    between atoms: N_19  and  S_20
REMARK   13  A    between atoms: S_20  and  C_23
REMARK   14  A    between atoms: C_26  and  O_29
REMARK   15  A    between atoms: O_29  and  C_30
REMARK   16  A    between atoms: C_31  and  C_32
REMARK                            x       y       z     vdW  Elec       q    Type
REMARK                         _______ _______ _______ _____ _____    ______ ____
ROOT
ATOM      1  C   UNL     1       5.298  -1.252  -2.359  0.00  0.00    -0.007 A 
ATOM      2  C   UNL     1       5.851  -0.993  -1.121  0.00  0.00    +0.031 A 
ATOM      3  C   UNL     1       6.795  -1.861  -0.587  0.00  0.00    +0.048 A 
ATOM      4  C   UNL     1       7.181  -2.989  -1.298  0.00  0.00    +0.026 A 
ATOM      5  C   UNL     1       6.629  -3.247  -2.537  0.00  0.00    +0.025 A 
ATOM      6  C   UNL     1       5.681  -2.382  -3.068  0.00  0.00    +0.034 A 
ENDROOT
BRANCH   6   7
ATOM      7  N   UNL     1       5.116  -2.648  -4.321  0.00  0.00    -0.336 N 
ATOM      8  C   UNL     1       3.840  -3.361  -4.413  0.00  0.00    +0.129 C 
ATOM      9  C   UNL     1       5.801  -2.212  -5.541  0.00  0.00    +0.129 C 
ENDBRANCH   6   7
BRANCH   3  10
ATOM     10  N   UNL     1       7.356  -1.599   0.669  0.00  0.00    -0.216 N 
ATOM     11  H   UNL     1       7.672  -0.707   0.882  0.00  0.00    +0.174 HD
BRANCH  10  12
ATOM     12  S   UNL     1       7.479  -2.811   1.790  0.00  0.00    +0.072 S 
ATOM     13  O   UNL     1       8.124  -3.899   1.143  0.00  0.00    -0.150 OA
ATOM     14  O   UNL     1       7.992  -2.217   2.975  0.00  0.00    -0.150 OA
BRANCH  12  15
ATOM     15  C   UNL     1       5.842  -3.345   2.163  0.00  0.00    +0.109 A 
ATOM     16  C   UNL     1       5.095  -2.672   3.112  0.00  0.00    +0.032 A 
ATOM     17  C   UNL     1       3.812  -3.089   3.406  0.00  0.00    +0.047 A 
ATOM     18  C   UNL     1       3.271  -4.184   2.747  0.00  0.00    +0.120 A 
ATOM     19  C   UNL     1       4.022  -4.857   1.795  0.00  0.00    +0.047 A 
ATOM     20  C   UNL     1       5.303  -4.433   1.500  0.00  0.00    +0.032 A 
BRANCH  18  21
ATOM     21  O   UNL     1       2.009  -4.596   3.035  0.00  0.00    -0.495 OA
ATOM     22  C   UNL     1       1.518  -5.730   2.318  0.00  0.00    +0.277 C 
ENDBRANCH  18  21
ENDBRANCH  12  15
ENDBRANCH  10  12
ENDBRANCH   3  10
BRANCH   1  23
ATOM     23  C   UNL     1       4.274  -0.310  -2.939  0.00  0.00    +0.146 C 
BRANCH  23  27
ATOM     24  N   UNL     1       4.845   2.978  -1.396  0.00  0.00    -0.294 N 
ATOM     25  C   UNL     1       4.973   1.904  -2.200  0.00  0.00    +0.303 C 
ATOM     26  O   UNL     1       5.846   1.879  -3.046  0.00  0.00    -0.253 OA
ATOM     27  N   UNL     1       4.135   0.857  -2.065  0.00  0.00    -0.279 N 
ATOM     28  H   UNL     1       4.149   2.998  -0.720  0.00  0.00    +0.151 HD
BRANCH  24  30
ATOM     29  C   UNL     1       5.630   4.693  -2.953  0.00  0.00    +0.031 C 
ATOM     30  C   UNL     1       5.757   4.115  -1.542  0.00  0.00    +0.028 C 
ATOM     31  C   UNL     1       7.196   3.649  -1.309  0.00  0.00    +0.031 C 
ATOM     32  C   UNL     1       5.398   5.192  -0.516  0.00  0.00    +0.031 C 
ENDBRANCH  24  30
BRANCH  27  33
ATOM     33  C   UNL     1       3.084   0.888  -1.045  0.00  0.00    +0.141 C 
BRANCH  33  34
ATOM     34  C   UNL     1       1.784   1.402  -1.666  0.00  0.00    +0.136 C 
ATOM     35  C   UNL     1       0.667   1.475  -0.595  0.00  0.00    +0.035 C 
ATOM     36  C   UNL     1      -0.261   2.558  -1.209  0.00  0.00    +0.031 C 
ATOM     37  C   UNL     1       0.748   3.498  -1.905  0.00  0.00    +0.160 C 
ATOM     38  O   UNL     1       1.952   2.752  -2.128  0.00  0.00    -0.375 OA
ENDBRANCH  33  34
ENDBRANCH  27  33
ENDBRANCH  23  27
ENDBRANCH   1  23
TORSDOF 10
