REMARK  Name = ZINC27695713
REMARK  10 active torsions:
REMARK  status: ('A' for Active; 'I' for Inactive)
REMARK    1  A    between atoms: C_4  and  C_7
REMARK    2  A    between atoms: C_7  and  C_8
REMARK    3  A    between atoms: C_7  and  C_14
REMARK    4  A    between atoms: N_22  and  C_23
REMARK    5  A    between atoms: C_23  and  C_24
REMARK    6  A    between atoms: C_24  and  C_26
REMARK    7  A    between atoms: C_24  and  O_40
REMARK    8  A    between atoms: C_26  and  N_27
REMARK    9  A    between atoms: N_27  and  C_28
REMARK   10  A    between atoms: N_27  and  C_34
REMARK                            x       y       z     vdW  Elec       q    Type
REMARK                         _______ _______ _______ _____ _____    ______ ____
ROOT
ATOM      1  C   UNL     1       6.675   1.849  -2.098  0.00  0.00    +0.123 A 
ATOM      2  N   UNL     1       7.333   2.790  -2.710  0.00  0.00    -0.231 NA
ATOM      3  C   UNL     1       6.531   3.384  -3.630  0.00  0.00    +0.089 A 
ATOM      4  C   UNL     1       6.718   4.424  -4.544  0.00  0.00    +0.030 A 
ATOM      5  C   UNL     1       5.692   4.806  -5.361  0.00  0.00    +0.002 A 
ATOM      6  C   UNL     1       4.460   4.172  -5.293  0.00  0.00    +0.002 A 
ATOM      7  C   UNL     1       4.252   3.143  -4.399  0.00  0.00    +0.028 A 
ATOM      8  C   UNL     1       5.285   2.737  -3.566  0.00  0.00    +0.069 A 
ATOM      9  N   UNL     1       5.406   1.775  -2.583  0.00  0.00    -0.324 N 
ENDROOT
BRANCH   1  10
ATOM     10  C   UNL     1       7.236   0.969  -1.011  0.00  0.00    +0.115 C 
BRANCH  10  14
ATOM     11  C   UNL     1      10.586  -1.204  -2.527  0.00  0.00    +0.000 A 
ATOM     12  C   UNL     1       9.545  -1.877  -1.917  0.00  0.00    +0.000 A 
ATOM     13  C   UNL     1       8.460  -1.174  -1.426  0.00  0.00    +0.004 A 
ATOM     14  C   UNL     1       8.418   0.202  -1.545  0.00  0.00    -0.033 A 
ATOM     15  C   UNL     1       9.458   0.875  -2.160  0.00  0.00    +0.004 A 
ATOM     16  C   UNL     1      10.544   0.172  -2.646  0.00  0.00    +0.000 A 
ENDBRANCH  10  14
BRANCH  10  17
ATOM     17  C   UNL     1       7.675   1.823   0.150  0.00  0.00    -0.033 A 
ATOM     18  C   UNL     1       8.541   2.880  -0.058  0.00  0.00    +0.004 A 
ATOM     19  C   UNL     1       8.940   3.667   1.006  0.00  0.00    +0.000 A 
ATOM     20  C   UNL     1       8.481   3.391   2.281  0.00  0.00    +0.000 A 
ATOM     21  C   UNL     1       7.618   2.331   2.490  0.00  0.00    +0.000 A 
ATOM     22  C   UNL     1       7.215   1.547   1.424  0.00  0.00    +0.004 A 
ENDBRANCH  10  17
ENDBRANCH   1  10
BRANCH   9  23
ATOM     23  C   UNL     1       4.363   0.842  -2.148  0.00  0.00    +0.153 C 
BRANCH  23  24
ATOM     24  C   UNL     1       3.564   1.468  -1.003  0.00  0.00    +0.118 C 
BRANCH  24  25
ATOM     25  O   UNL     1       4.415   1.641   0.132  0.00  0.00    -0.392 OA
ATOM     26  H   UNL     1       4.014   2.080   1.058  0.00  0.00    +0.210 HD
ENDBRANCH  24  25
BRANCH  24  27
ATOM     27  C   UNL     1       2.399   0.549  -0.632  0.00  0.00    -0.045 C 
BRANCH  27  28
ATOM     28  N   UNL     1       1.534   1.225   0.344  0.00  0.00    +0.385 N 
ATOM     29  H   UNL     1       1.398   2.265   0.012  0.00  0.00    -0.081 HD
BRANCH  28  30
ATOM     30  C   UNL     1       0.209   0.593   0.400  0.00  0.00    -0.068 C 
ATOM     31  C   UNL     1      -0.716   1.424   1.292  0.00  0.00    -0.015 C 
ATOM     32  C   UNL     1      -2.095   0.765   1.350  0.00  0.00    -0.002 C 
ATOM     33  C   UNL     1      -2.683   0.685  -0.060  0.00  0.00    -0.000 C 
ATOM     34  C   UNL     1      -1.758  -0.146  -0.951  0.00  0.00    -0.002 C 
ATOM     35  C   UNL     1      -0.378   0.512  -1.010  0.00  0.00    -0.015 C 
ENDBRANCH  28  30
BRANCH  28  36
ATOM     36  C   UNL     1       2.161   1.253   1.672  0.00  0.00    -0.068 C 
ATOM     37  C   UNL     1       1.669   0.060   2.494  0.00  0.00    -0.015 C 
ATOM     38  C   UNL     1       2.322   0.090   3.877  0.00  0.00    -0.002 C 
ATOM     39  C   UNL     1       1.946   1.390   4.591  0.00  0.00    -0.000 C 
ATOM     40  C   UNL     1       2.439   2.583   3.769  0.00  0.00    -0.002 C 
ATOM     41  C   UNL     1       1.786   2.554   2.386  0.00  0.00    -0.015 C 
ENDBRANCH  28  36
ENDBRANCH  27  28
ENDBRANCH  24  27
ENDBRANCH  23  24
ENDBRANCH   9  23
TORSDOF 10
