REMARK  Name = ZINC13128852
REMARK  6 active torsions:
REMARK  status: ('A' for Active; 'I' for Inactive)
REMARK    1  A    between atoms: C_1  and  C_2
REMARK    2  A    between atoms: C_2  and  C_4
REMARK    3  A    between atoms: C_2  and  N_62
REMARK    4  A    between atoms: N_6  and  C_7
REMARK    5  A    between atoms: C_8  and  C_17
REMARK    6  A    between atoms: C_21  and  N_24
REMARK                            x       y       z     vdW  Elec       q    Type
REMARK                         _______ _______ _______ _____ _____    ______ ____
ROOT
ATOM      1  C   UNL     1      -2.872   3.272  -2.490  0.00  0.00    -0.004 C 
ATOM      2  C   UNL     1      -1.375   3.588  -2.454  0.00  0.00    +0.016 C 
ENDROOT
BRANCH   2   8
ATOM      3  C   UNL     1      -0.754   1.594  -1.231  0.00  0.00    -0.076 C 
ATOM      4  C   UNL     1      -0.013   1.086   0.008  0.00  0.00    +0.006 C 
ATOM      5  C   UNL     1      -0.731   1.580   1.267  0.00  0.00    +0.089 C 
ATOM      6  C   UNL     1      -0.801   3.110   1.237  0.00  0.00    +0.006 C 
ATOM      7  C   UNL     1      -1.520   3.559  -0.037  0.00  0.00    -0.076 C 
ATOM      8  N   UNL     1      -0.765   3.072  -1.211  0.00  0.00    +0.387 N 
ATOM      9  H   UNL     1       0.202   3.411  -1.149  0.00  0.00    -0.081 HD
BRANCH   5  10
ATOM     10  N   UNL     1       0.008   1.146   2.455  0.00  0.00    -0.289 N 
ATOM     11  C   UNL     1      -0.487   0.333   3.471  0.00  0.00    +0.070 A 
ATOM     12  C   UNL     1      -1.712  -0.280   3.687  0.00  0.00    +0.028 A 
ATOM     13  C   UNL     1      -1.907  -1.046   4.820  0.00  0.00    +0.002 A 
ATOM     14  C   UNL     1      -0.884  -1.206   5.739  0.00  0.00    +0.002 A 
ATOM     15  C   UNL     1       0.339  -0.601   5.531  0.00  0.00    +0.028 A 
ATOM     16  C   UNL     1       0.544   0.171   4.398  0.00  0.00    +0.067 A 
ATOM     17  N   UNL     1       1.635   0.892   3.916  0.00  0.00    -0.306 N 
ATOM     18  H   UNL     1       2.500   0.968   4.348  0.00  0.00    +0.170 HD
ATOM     19  C   UNL     1       1.284   1.461   2.748  0.00  0.00    +0.328 A 
ATOM     20  O   UNL     1       2.009   2.157   2.062  0.00  0.00    -0.247 OA
ENDBRANCH   5  10
ENDBRANCH   2   8
BRANCH   2  21
ATOM     21  C   UNL     1      -1.176   5.081  -2.508  0.00  0.00    +0.204 C 
ATOM     22  O   UNL     1      -0.606   5.650  -1.601  0.00  0.00    -0.277 OA
ATOM     23  N   UNL     1      -1.633   5.784  -3.563  0.00  0.00    -0.280 N 
ATOM     24  H   UNL     1      -2.089   5.329  -4.288  0.00  0.00    +0.155 HD
BRANCH  23  25
ATOM     25  C   UNL     1      -1.449   7.159  -3.613  0.00  0.00    +0.090 A 
ATOM     26  C   UNL     1      -1.843   8.045  -4.603  0.00  0.00    +0.084 A 
ATOM     27  C   UNL     1      -1.530   9.454  -4.415  0.00  0.00    -0.018 A 
ATOM     28  C   UNL     1      -0.868   9.743  -3.273  0.00  0.00    -0.004 A 
ATOM     29  S   UNL     1      -0.680   8.185  -2.449  0.00  0.00    -0.077 S 
ATOM     30  C   UNL     1      -0.395  11.083  -2.802  0.00  0.00    +0.043 C 
ATOM     31  C   UNL     1      -1.545  12.093  -2.918  0.00  0.00    +0.005 C 
ATOM     32  C   UNL     1      -1.495  12.726  -4.305  0.00  0.00    +0.001 C 
ATOM     33  C   UNL     1      -0.983  11.712  -5.327  0.00  0.00    +0.005 C 
ATOM     34  C   UNL     1      -1.933  10.524  -5.422  0.00  0.00    +0.037 C 
BRANCH  26  35
ATOM     35  C   UNL     1      -2.534   7.590  -5.771  0.00  0.00    +0.102 C 
ATOM     36  N   UNL     1      -3.082   7.228  -6.698  0.00  0.00    -0.191 NA
ENDBRANCH  26  35
ENDBRANCH  23  25
ENDBRANCH   2  21
TORSDOF 5
