REMARK  Name = ZINC11747924
REMARK  9 active torsions:
REMARK  status: ('A' for Active; 'I' for Inactive)
REMARK    1  A    between atoms: C_1  and  C_2
REMARK    2  A    between atoms: C_2  and  N_69
REMARK    3  A    between atoms: C_5  and  N_8
REMARK    4  A    between atoms: C_9  and  C_11
REMARK    5  A    between atoms: C_11  and  S_12
REMARK    6  A    between atoms: S_12  and  C_13
REMARK    7  A    between atoms: N_17  and  C_18
REMARK    8  A    between atoms: C_18  and  C_19
REMARK    9  A    between atoms: C_28  and  C_31
REMARK                            x       y       z     vdW  Elec       q    Type
REMARK                         _______ _______ _______ _____ _____    ______ ____
ROOT
ATOM      1  C   UNL     1      -4.835  -4.371  -0.912  0.00  0.00    +0.193 A 
ATOM      2  N   UNL     1      -5.798  -3.658  -0.381  0.00  0.00    -0.121 NA
ATOM      3  N   UNL     1      -6.981  -4.407  -0.454  0.00  0.00    -0.112 NA
ATOM      4  C   UNL     1      -6.701  -5.551  -1.026  0.00  0.00    +0.220 A 
ATOM      5  N   UNL     1      -5.369  -5.558  -1.330  0.00  0.00    -0.288 N 
ATOM      6  N   UNL     1      -7.602  -6.576  -1.285  0.00  0.00    -0.300 N 
ATOM      7  C   UNL     1      -8.691  -6.113  -2.155  0.00  0.00    +0.108 C 
ATOM      8  C   UNL     1      -9.581  -7.299  -2.535  0.00  0.00    +0.022 C 
ATOM      9  C   UNL     1     -10.152  -7.931  -1.263  0.00  0.00    -0.011 C 
ATOM     10  C   UNL     1      -8.998  -8.360  -0.353  0.00  0.00    +0.022 C 
ATOM     11  C   UNL     1      -8.125  -7.144  -0.036  0.00  0.00    +0.108 C 
ATOM     12  C   UNL     1     -10.994  -9.153  -1.633  0.00  0.00    +0.007 C 
ENDROOT
BRANCH   1  13
ATOM     13  S   UNL     1      -3.149  -3.882  -1.067  0.00  0.00    -0.077 S 
BRANCH  13  14
ATOM     14  C   UNL     1      -3.104  -2.223  -0.337  0.00  0.00    +0.173 C 
BRANCH  14  16
ATOM     15  N   UNL     1      -1.426  -0.454   0.081  0.00  0.00    -0.312 N 
ATOM     16  C   UNL     1      -1.700  -1.681  -0.406  0.00  0.00    +0.224 C 
ATOM     17  O   UNL     1      -0.816  -2.349  -0.900  0.00  0.00    -0.275 OA
ATOM     18  H   UNL     1      -2.133   0.080   0.475  0.00  0.00    +0.149 HD
BRANCH  15  21
ATOM     19  C   UNL     1       1.329   2.147   0.015  0.00  0.00    -0.077 C 
ATOM     20  C   UNL     1      -0.102   1.603   0.024  0.00  0.00    +0.003 C 
ATOM     21  C   UNL     1      -0.061   0.073   0.013  0.00  0.00    +0.069 C 
ATOM     22  C   UNL     1       0.737  -0.417   1.225  0.00  0.00    +0.003 C 
ATOM     23  C   UNL     1       2.143   0.185   1.181  0.00  0.00    -0.077 C 
ATOM     24  N   UNL     1       2.035   1.659   1.218  0.00  0.00    +0.380 N 
ATOM     25  H   UNL     1       1.502   1.933   2.051  0.00  0.00    -0.082 HD
BRANCH  24  27
ATOM     26  C   UNL     1       3.271   3.769   1.053  0.00  0.00    -0.017 C 
ATOM     27  C   UNL     1       3.382   2.262   1.292  0.00  0.00    -0.082 C 
ENDBRANCH  24  27
ENDBRANCH  15  21
ENDBRANCH  14  16
ENDBRANCH  13  14
ENDBRANCH   1  13
BRANCH   5  28
ATOM     28  C   UNL     1      -4.640  -6.647  -1.984  0.00  0.00    +0.158 C 
BRANCH  28  29
ATOM     29  C   UNL     1      -4.212  -7.677  -0.936  0.00  0.00    +0.138 C 
ATOM     30  C   UNL     1      -3.487  -8.866  -1.615  0.00  0.00    +0.035 C 
ATOM     31  C   UNL     1      -2.619  -9.392  -0.439  0.00  0.00    +0.031 C 
ATOM     32  C   UNL     1      -2.268  -8.092   0.317  0.00  0.00    +0.160 C 
ATOM     33  O   UNL     1      -3.243  -7.106  -0.043  0.00  0.00    -0.375 OA
ENDBRANCH  28  29
ENDBRANCH   5  28
TORSDOF 7
