REMARK  Name = ZINC21916296
REMARK  9 active torsions:
REMARK  status: ('A' for Active; 'I' for Inactive)
REMARK    1  A    between atoms: C_1  and  N_2
REMARK    2  A    between atoms: N_2  and  C_3
REMARK    3  A    between atoms: N_2  and  C_4
REMARK    4  A    between atoms: C_4  and  C_6
REMARK    5  A    between atoms: C_4  and  C_24
REMARK    6  A    between atoms: C_6  and  N_7
REMARK    7  A    between atoms: C_8  and  C_10
REMARK    8  A    between atoms: C_10  and  C_11
REMARK    9  A    between atoms: C_11  and  N_12
REMARK                            x       y       z     vdW  Elec       q    Type
REMARK                         _______ _______ _______ _____ _____    ______ ____
ROOT
ATOM      1  N   UNL     1      -1.728  -0.168   0.122  0.00  0.00    -0.316 N 
ATOM      2  C   UNL     1      -0.828   0.835   0.156  0.00  0.00    +0.214 C 
ATOM      3  O   UNL     1       0.353   0.586   0.269  0.00  0.00    -0.276 OA
ATOM      4  H   UNL     1      -2.800   0.058   0.020  0.00  0.00    +0.149 HD
ENDROOT
BRANCH   1   5
ATOM      5  C   UNL     1      -1.279  -1.559   0.222  0.00  0.00    +0.096 C 
BRANCH   5   6
ATOM      6  C   UNL     1      -2.490  -2.491   0.158  0.00  0.00    +0.016 C 
BRANCH   6   7
ATOM      7  C   UNL     1      -2.042  -3.913   0.383  0.00  0.00    +0.093 A 
ATOM      8  C   UNL     1      -2.021  -4.887  -0.544  0.00  0.00    +0.043 A 
ATOM      9  C   UNL     1      -1.534  -6.050   0.095  0.00  0.00    +0.041 A 
ATOM     10  C   UNL     1      -1.286  -5.717   1.374  0.00  0.00    +0.195 A 
ATOM     11  O   UNL     1      -1.591  -4.420   1.542  0.00  0.00    -0.469 OA
ENDBRANCH   6   7
BRANCH   6  13
ATOM     12  C   UNL     1      -4.646  -2.972   1.150  0.00  0.00    -0.096 C 
ATOM     13  N   UNL     1      -3.456  -2.112   1.198  0.00  0.00    +0.384 N 
ATOM     14  C   UNL     1      -2.836  -2.144   2.529  0.00  0.00    -0.096 C 
ATOM     15  H   UNL     1      -3.778  -1.079   1.000  0.00  0.00    -0.082 HD
ENDBRANCH   6  13
ENDBRANCH   5   6
ENDBRANCH   1   5
BRANCH   2  16
ATOM     16  C   UNL     1      -1.290   2.266   0.054  0.00  0.00    +0.114 C 
BRANCH  16  17
ATOM     17  C   UNL     1      -0.079   3.199   0.118  0.00  0.00    +0.112 C 
BRANCH  17  18
ATOM     18  N   UNL     1      -0.528   4.590   0.019  0.00  0.00    -0.327 N 
ATOM     19  C   UNL     1       0.392   5.615   0.054  0.00  0.00    +0.150 C 
ATOM     20  N   UNL     1       1.655   5.357   0.173  0.00  0.00    -0.113 NA
ATOM     21  S   UNL     1       2.426   6.842   0.176  0.00  0.00    +0.101 S 
ATOM     22  O   UNL     1       2.974   7.044   1.472  0.00  0.00    -0.146 OA
ATOM     23  O   UNL     1       3.189   6.936  -1.020  0.00  0.00    -0.146 OA
ATOM     24  C   UNL     1       1.024   7.913   0.009  0.00  0.00    +0.123 A 
ATOM     25  C   UNL     1      -0.050   7.014  -0.051  0.00  0.00    +0.043 A 
ATOM     26  C   UNL     1      -1.338   7.556  -0.179  0.00  0.00    +0.013 A 
ATOM     27  C   UNL     1      -1.514   8.919  -0.253  0.00  0.00    +0.001 A 
ATOM     28  C   UNL     1      -0.434   9.781  -0.197  0.00  0.00    +0.002 A 
ATOM     29  C   UNL     1       0.847   9.263  -0.065  0.00  0.00    +0.030 A 
ATOM     30  H   UNL     1      -1.600   4.816  -0.083  0.00  0.00    +0.148 HD
ENDBRANCH  17  18
ENDBRANCH  16  17
ENDBRANCH   2  16
TORSDOF 7
