REMARK  Name = ZINC36601791
REMARK  13 active torsions:
REMARK  status: ('A' for Active; 'I' for Inactive)
REMARK    1  A    between atoms: C_1  and  C_2
REMARK    2  A    between atoms: C_5  and  S_8
REMARK    3  A    between atoms: S_8  and  C_11
REMARK    4  A    between atoms: C_11  and  N_12
REMARK    5  A    between atoms: C_13  and  C_15
REMARK    6  A    between atoms: C_15  and  C_17
REMARK    7  A    between atoms: C_15  and  N_26
REMARK    8  A    between atoms: C_20  and  N_23
REMARK    9  A    between atoms: N_26  and  C_27
REMARK   10  A    between atoms: C_27  and  C_28
REMARK   11  A    between atoms: C_31  and  C_33
REMARK   12  A    between atoms: C_34  and  C_36
REMARK   13  A    between atoms: C_36  and  C_38
REMARK                            x       y       z     vdW  Elec       q    Type
REMARK                         _______ _______ _______ _____ _____    ______ ____
ROOT
ATOM      1  C   UNL     1       1.860  -6.414   1.734  0.00  0.00    +0.193 C 
ENDROOT
BRANCH   1   2
ATOM      2  C   UNL     1       0.701  -5.953   2.579  0.00  0.00    -0.018 A 
ATOM      3  C   UNL     1       0.699  -6.195   3.941  0.00  0.00    +0.008 A 
ATOM      4  C   UNL     1      -0.364  -5.772   4.716  0.00  0.00    +0.033 A 
ATOM      5  C   UNL     1      -1.425  -5.107   4.131  0.00  0.00    +0.126 A 
ATOM      6  C   UNL     1      -1.423  -4.864   2.770  0.00  0.00    +0.033 A 
ATOM      7  C   UNL     1      -0.358  -5.283   1.995  0.00  0.00    +0.008 A 
BRANCH   5   8
ATOM      8  N   UNL     1      -2.564  -4.654   4.961  0.00  0.00    +0.056 N 
ATOM      9  O   UNL     1      -2.566  -4.867   6.152  0.00  0.00    -0.126 OA
ATOM     10  O   UNL     1      -3.492  -4.073   4.450  0.00  0.00    -0.126 OA
ENDBRANCH   5   8
ENDBRANCH   1   2
BRANCH   1  12
ATOM     11  N   UNL     1       0.512  -8.315   0.903  0.00  0.00    -0.294 N 
ATOM     12  C   UNL     1       1.686  -7.872   1.395  0.00  0.00    +0.239 C 
ATOM     13  O   UNL     1       2.602  -8.648   1.566  0.00  0.00    -0.273 OA
ATOM     14  H   UNL     1      -0.221  -7.694   0.766  0.00  0.00    +0.150 HD
BRANCH  11  15
ATOM     15  C   UNL     1       0.343  -9.732   0.574  0.00  0.00    +0.278 C 
BRANCH  15  16
ATOM     16  S   UNL     1      -0.418 -10.592   1.979  0.00  0.00    +0.013 S 
ATOM     17  O   UNL     1       0.243 -10.238   3.186  0.00  0.00    -0.168 OA
ATOM     18  O   UNL     1      -0.647 -11.956   1.652  0.00  0.00    -0.168 OA
BRANCH  16  23
ATOM     19  C   UNL     1      -5.928  -8.185   2.476  0.00  0.00    +0.044 C 
ATOM     20  C   UNL     1      -4.552  -8.786   2.352  0.00  0.00    -0.050 A 
ATOM     21  C   UNL     1      -4.352  -9.894   1.550  0.00  0.00    +0.005 A 
ATOM     22  C   UNL     1      -3.089 -10.446   1.436  0.00  0.00    +0.027 A 
ATOM     23  C   UNL     1      -2.027  -9.889   2.123  0.00  0.00    +0.090 A 
ATOM     24  C   UNL     1      -2.227  -8.780   2.924  0.00  0.00    +0.027 A 
ATOM     25  C   UNL     1      -3.489  -8.226   3.035  0.00  0.00    +0.005 A 
ENDBRANCH  16  23
ENDBRANCH  15  16
ENDBRANCH  11  15
ENDBRANCH   1  12
BRANCH   1  26
ATOM     26  N   UNL     1       3.109  -6.231   2.476  0.00  0.00    -0.275 N 
ATOM     27  C   UNL     1       3.711  -5.025   2.495  0.00  0.00    +0.243 C 
ATOM     28  O   UNL     1       3.205  -4.084   1.915  0.00  0.00    -0.270 OA
BRANCH  27  29
ATOM     29  C   UNL     1       4.980  -4.848   3.218  0.00  0.00    +0.004 C 
ATOM     30  C   UNL     1       5.852  -3.928   2.815  0.00  0.00    +0.017 C 
ATOM     31  C   UNL     1       5.292  -5.708   4.415  0.00  0.00    +0.048 C 
ENDBRANCH  27  29
BRANCH  26  32
ATOM     32  C   UNL     1       3.705  -7.358   3.198  0.00  0.00    +0.183 C 
BRANCH  32  33
ATOM     33  C   UNL     1       5.010  -7.738   2.547  0.00  0.00    +0.122 A 
ATOM     34  C   UNL     1       5.915  -8.600   3.044  0.00  0.00    +0.046 A 
ATOM     35  C   UNL     1       6.979  -8.657   2.115  0.00  0.00    +0.045 A 
ATOM     36  C   UNL     1       6.661  -7.826   1.106  0.00  0.00    +0.102 A 
ATOM     37  O   UNL     1       5.465  -7.276   1.371  0.00  0.00    -0.463 OA
ATOM     38  C   UNL     1       7.502  -7.561  -0.116  0.00  0.00    +0.086 C 
ENDBRANCH  32  33
ENDBRANCH  26  32
ENDBRANCH   1  26
TORSDOF 10
