REMARK  Name = ZINC43226477
REMARK  6 active torsions:
REMARK  status: ('A' for Active; 'I' for Inactive)
REMARK    1  A    between atoms: C_3  and  N_29
REMARK    2  A    between atoms: C_6  and  C_7
REMARK    3  A    between atoms: C_7  and  C_9
REMARK    4  A    between atoms: C_12  and  N_15
REMARK    5  A    between atoms: C_16  and  C_18
REMARK    6  A    between atoms: C_21  and  C_23
REMARK                            x       y       z     vdW  Elec       q    Type
REMARK                         _______ _______ _______ _____ _____    ______ ____
ROOT
ATOM      1  C   UNL     1      -1.337  -2.234  -0.043  0.00  0.00    +0.022 A 
ATOM      2  C   UNL     1      -0.141  -2.958  -0.030  0.00  0.00    +0.013 A 
ATOM      3  C   UNL     1      -0.167  -4.330  -0.142  0.00  0.00    +0.024 A 
ATOM      4  C   UNL     1      -1.382  -4.996  -0.268  0.00  0.00    +0.034 A 
ATOM      5  C   UNL     1      -2.575  -4.279  -0.282  0.00  0.00    +0.024 A 
ATOM      6  C   UNL     1      -2.557  -2.908  -0.165  0.00  0.00    +0.013 A 
ENDROOT
BRANCH   4   7
ATOM      7  N   UNL     1      -1.405  -6.384  -0.382  0.00  0.00    -0.280 N 
ATOM      8  C   UNL     1      -2.351  -6.984  -1.132  0.00  0.00    +0.267 C 
ATOM      9  O   UNL     1      -3.228  -6.319  -1.649  0.00  0.00    -0.268 OA
ATOM     10  H   UNL     1      -0.739  -6.920   0.078  0.00  0.00    +0.155 HD
BRANCH   8  11
ATOM     11  C   UNL     1      -2.322  -8.443  -1.325  0.00  0.00    +0.133 A 
ATOM     12  C   UNL     1      -3.259  -9.093  -2.083  0.00  0.00    +0.079 A 
ATOM     13  S   UNL     1      -2.769 -10.696  -1.969  0.00  0.00    -0.081 S 
ATOM     14  C   UNL     1      -1.421 -10.498  -0.987  0.00  0.00    +0.065 A 
ATOM     15  N   UNL     1      -1.376  -9.211  -0.774  0.00  0.00    -0.241 NA
BRANCH  14  16
ATOM     16  C   UNL     1      -0.480 -11.559  -0.476  0.00  0.00    -0.015 C 
ATOM     17  C   UNL     1       0.423 -12.056  -1.623  0.00  0.00    -0.011 C 
ATOM     18  C   UNL     1       0.534 -13.578  -1.346  0.00  0.00    -0.020 C 
ATOM     19  C   UNL     1      -0.879 -13.900  -0.799  0.00  0.00    -0.082 C 
ATOM     20  N   UNL     1      -1.249 -12.718   0.013  0.00  0.00    +0.385 N 
ATOM     21  H   UNL     1      -1.028 -12.887   0.983  0.00  0.00    -0.085 HD
ATOM     22  H   UNL     1      -2.237 -12.535  -0.082  0.00  0.00    -0.085 HD
ENDBRANCH  14  16
ENDBRANCH   8  11
ENDBRANCH   4   7
BRANCH   1  23
ATOM     23  C   UNL     1      -1.313  -0.764   0.077  0.00  0.00    +0.193 C 
ATOM     24  O   UNL     1      -2.210  -0.187   0.663  0.00  0.00    -0.287 OA
BRANCH  23  30
ATOM     25  C   UNL     1       0.739  -0.634  -1.326  0.00  0.00    +0.013 A 
ATOM     26  C   UNL     1       1.770   0.085  -1.874  0.00  0.00    +0.023 A 
ATOM     27  C   UNL     1       1.880   1.451  -1.622  0.00  0.00    +0.025 A 
ATOM     28  C   UNL     1       0.944   2.090  -0.813  0.00  0.00    +0.023 A 
ATOM     29  C   UNL     1      -0.090   1.377  -0.263  0.00  0.00    +0.013 A 
ATOM     30  C   UNL     1      -0.203   0.006  -0.514  0.00  0.00    +0.022 A 
BRANCH  27  31
ATOM     31  N   UNL     1       2.926   2.176  -2.178  0.00  0.00    -0.358 N 
ATOM     32  H   UNL     1       3.579   1.732  -2.741  0.00  0.00    +0.142 HD
ATOM     33  H   UNL     1       3.004   3.127  -2.004  0.00  0.00    +0.142 HD
ENDBRANCH  27  31
ENDBRANCH  23  30
ENDBRANCH   1  23
TORSDOF 6
