REMARK  Name = ZINC02707398
REMARK  8 active torsions:
REMARK  status: ('A' for Active; 'I' for Inactive)
REMARK    1  A    between atoms: C_1  and  O_2
REMARK    2  A    between atoms: O_2  and  C_3
REMARK    3  A    between atoms: C_6  and  C_13
REMARK    4  A    between atoms: C_7  and  O_11
REMARK    5  A    between atoms: C_8  and  O_9
REMARK    6  A    between atoms: O_9  and  C_10
REMARK    7  A    between atoms: O_11  and  C_12
REMARK    8  A    between atoms: C_30  and  C_32
REMARK                            x       y       z     vdW  Elec       q    Type
REMARK                         _______ _______ _______ _____ _____    ______ ____
ROOT
ATOM      1  C   UNL     1       3.643  -0.701  -0.679  0.00  0.00    +0.238 C 
ATOM      2  C   UNL     1       2.303  -0.093  -0.333  0.00  0.00    +0.025 C 
ATOM      3  C   UNL     1       1.222  -0.876  -0.303  0.00  0.00    +0.050 C 
ATOM      4  C   UNL     1       1.391  -2.322  -0.580  0.00  0.00    +0.038 A 
ATOM      5  C   UNL     1       0.306  -3.132  -0.892  0.00  0.00    +0.013 A 
ATOM      6  C   UNL     1       0.510  -4.476  -1.143  0.00  0.00    +0.001 A 
ATOM      7  C   UNL     1       1.785  -5.012  -1.083  0.00  0.00    +0.004 A 
ATOM      8  C   UNL     1       2.870  -4.212  -0.773  0.00  0.00    +0.046 A 
ATOM      9  C   UNL     1       2.680  -2.866  -0.520  0.00  0.00    +0.131 A 
ATOM     10  O   UNL     1       3.719  -2.048  -0.214  0.00  0.00    -0.479 OA
ATOM     11  N   UNL     1      -0.052  -0.377  -0.009  0.00  0.00    -0.283 N 
ATOM     12  C   UNL     1      -0.214   0.999  -0.020  0.00  0.00    +0.219 A 
ATOM     13  N   UNL     1      -1.298   1.725  -0.022  0.00  0.00    -0.201 NA
ATOM     14  C   UNL     1      -0.968   3.021  -0.038  0.00  0.00    +0.247 A 
ATOM     15  N   UNL     1       0.337   3.133  -0.051  0.00  0.00    -0.156 NA
ATOM     16  N   UNL     1       0.853   1.837  -0.035  0.00  0.00    -0.221 N 
ATOM     17  C   UNL     1       2.238   1.383  -0.030  0.00  0.00    +0.172 C 
ATOM     18  H   UNL     1      -0.792  -0.971   0.193  0.00  0.00    +0.155 HD
ENDROOT
BRANCH  17  19
ATOM     19  C   UNL     1       2.844   1.642   1.326  0.00  0.00    -0.019 A 
ATOM     20  C   UNL     1       2.299   1.049   2.450  0.00  0.00    +0.009 A 
ATOM     21  C   UNL     1       2.856   1.281   3.693  0.00  0.00    +0.039 A 
ATOM     22  C   UNL     1       3.954   2.117   3.814  0.00  0.00    +0.123 A 
ATOM     23  C   UNL     1       4.495   2.715   2.688  0.00  0.00    +0.039 A 
ATOM     24  C   UNL     1       3.939   2.477   1.445  0.00  0.00    +0.009 A 
ATOM     25  F   UNL     1       4.496   2.349   5.029  0.00  0.00    -0.205 F 
ENDBRANCH  17  19
BRANCH   1  29
ATOM     26  C   UNL     1       4.161  -0.650  -4.927  0.00  0.00    +0.165 A 
ATOM     27  C   UNL     1       3.643  -1.774  -4.300  0.00  0.00    +0.050 A 
ATOM     28  C   UNL     1       3.477  -1.786  -2.928  0.00  0.00    +0.015 A 
ATOM     29  C   UNL     1       3.826  -0.681  -2.175  0.00  0.00    +0.042 A 
ATOM     30  C   UNL     1       4.340   0.448  -2.795  0.00  0.00    +0.172 A 
ATOM     31  C   UNL     1       4.514   0.463  -4.174  0.00  0.00    +0.204 A 
BRANCH  26  33
ATOM     32  C   UNL     1       3.940  -1.818  -6.987  0.00  0.00    +0.277 C 
ATOM     33  O   UNL     1       4.324  -0.639  -6.277  0.00  0.00    -0.491 OA
ENDBRANCH  26  33
BRANCH  31  34
ATOM     34  O   UNL     1       5.023   1.567  -4.785  0.00  0.00    -0.488 OA
ATOM     35  C   UNL     1       4.088   2.559  -5.215  0.00  0.00    +0.277 C 
ENDBRANCH  31  34
BRANCH  30  36
ATOM     36  O   UNL     1       4.679   1.537  -2.054  0.00  0.00    -0.491 OA
ATOM     37  C   UNL     1       6.019   1.596  -1.562  0.00  0.00    +0.277 C 
ENDBRANCH  30  36
ENDBRANCH   1  29
TORSDOF 5
