REMARK  Name = ZINC39859859
REMARK  7 active torsions:
REMARK  status: ('A' for Active; 'I' for Inactive)
REMARK    1  A    between atoms: C_1  and  C_2
REMARK    2  A    between atoms: C_2  and  O_3
REMARK    3  A    between atoms: O_3  and  C_4
REMARK    4  A    between atoms: C_7  and  N_10
REMARK    5  A    between atoms: C_14  and  C_15
REMARK    6  A    between atoms: C_18  and  C_20
REMARK    7  A    between atoms: C_23  and  N_26
REMARK                            x       y       z     vdW  Elec       q    Type
REMARK                         _______ _______ _______ _____ _____    ______ ____
ROOT
ATOM      1  N   UNL     1      -1.983  -5.992   0.079  0.00  0.00    -0.197 N 
ATOM      2  C   UNL     1      -3.189  -6.530   0.181  0.00  0.00    +0.265 C 
ATOM      3  O   UNL     1      -4.183  -5.853   0.347  0.00  0.00    -0.269 OA
ATOM      4  C   UNL     1      -3.254  -8.018   0.081  0.00  0.00    +0.083 C 
ATOM      5  C   UNL     1      -4.377  -8.856   0.152  0.00  0.00    +0.066 C 
ATOM      6  S   UNL     1      -1.639  -8.435  -0.139  0.00  0.00    -0.025 S 
ATOM      7  C   UNL     1      -0.923  -6.803  -0.110  0.00  0.00    +0.290 C 
ATOM      8  O   UNL     1       0.246  -6.495  -0.230  0.00  0.00    -0.262 OA
ENDROOT
BRANCH   1  12
ATOM      9  C   UNL     1      -1.476  -1.859   0.317  0.00  0.00    +0.121 A 
ATOM     10  C   UNL     1      -1.098  -2.539  -0.832  0.00  0.00    +0.047 A 
ATOM     11  C   UNL     1      -1.266  -3.907  -0.911  0.00  0.00    +0.027 A 
ATOM     12  C   UNL     1      -1.812  -4.602   0.159  0.00  0.00    +0.045 A 
ATOM     13  C   UNL     1      -2.190  -3.921   1.308  0.00  0.00    +0.027 A 
ATOM     14  C   UNL     1      -2.017  -2.554   1.389  0.00  0.00    +0.047 A 
BRANCH   9  15
ATOM     15  O   UNL     1      -1.312  -0.511   0.395  0.00  0.00    -0.492 OA
BRANCH  15  17
ATOM     16  C   UNL     1      -0.641   1.642  -0.474  0.00  0.00    +0.048 C 
ATOM     17  C   UNL     1      -0.749   0.140  -0.746  0.00  0.00    +0.225 C 
ENDBRANCH  15  17
ENDBRANCH   9  15
ENDBRANCH   1  12
BRANCH   5  18
ATOM     18  C   UNL     1      -5.651  -8.309   0.167  0.00  0.00    +0.130 A 
ATOM     19  C   UNL     1      -6.911  -9.040   0.354  0.00  0.00    +0.050 A 
ATOM     20  C   UNL     1      -7.903  -8.113   0.298  0.00  0.00    +0.050 A 
ATOM     21  C   UNL     1      -7.297  -6.853   0.085  0.00  0.00    +0.136 A 
ATOM     22  O   UNL     1      -5.963  -7.002   0.017  0.00  0.00    -0.455 OA
BRANCH  21  23
ATOM     23  C   UNL     1      -8.011  -5.584  -0.037  0.00  0.00    +0.017 A 
ATOM     24  C   UNL     1      -9.414  -5.547   0.062  0.00  0.00    +0.014 A 
ATOM     25  C   UNL     1     -10.074  -4.351  -0.054  0.00  0.00    +0.033 A 
ATOM     26  C   UNL     1      -9.363  -3.179  -0.269  0.00  0.00    +0.126 A 
ATOM     27  C   UNL     1      -7.979  -3.204  -0.368  0.00  0.00    +0.033 A 
ATOM     28  C   UNL     1      -7.299  -4.388  -0.249  0.00  0.00    +0.014 A 
BRANCH  26  29
ATOM     29  N   UNL     1     -10.086  -1.893  -0.393  0.00  0.00    +0.056 N 
ATOM     30  O   UNL     1     -11.399  -1.865  -0.299  0.00  0.00    -0.126 OA
ATOM     31  O   UNL     1      -9.416  -0.778  -0.596  0.00  0.00    -0.126 OA
ENDBRANCH  26  29
ENDBRANCH  21  23
ENDBRANCH   5  18
TORSDOF 6
