REMARK  Name = ZINC00909826
REMARK  11 active torsions:
REMARK  status: ('A' for Active; 'I' for Inactive)
REMARK    1  A    between atoms: C_1  and  C_2
REMARK    2  A    between atoms: C_2  and  C_3
REMARK    3  A    between atoms: C_3  and  C_4
REMARK    4  A    between atoms: C_3  and  C_5
REMARK    5  A    between atoms: C_3  and  N_6
REMARK    6  A    between atoms: C_7  and  C_11
REMARK    7  A    between atoms: C_11  and  C_13
REMARK    8  A    between atoms: C_11  and  N_65
REMARK    9  A    between atoms: C_17  and  C_26
REMARK   10  A    between atoms: C_19  and  C_25
REMARK   11  A    between atoms: C_29  and  C_32
REMARK                            x       y       z     vdW  Elec       q    Type
REMARK                         _______ _______ _______ _____ _____    ______ ____
ROOT
ATOM      1  C   UNL     1      -1.353  -0.834   0.057  0.00  0.00    +0.039 C 
ENDROOT
BRANCH   1   2
ATOM      2  C   UNL     1      -0.194   0.113   0.233  0.00  0.00    +0.011 A 
ATOM      3  C   UNL     1       1.075  -0.365   0.234  0.00  0.00    +0.017 A 
ATOM      4  C   UNL     1       2.179   0.582   0.408  0.00  0.00    -0.001 A 
ATOM      5  C   UNL     1       3.509   0.149   0.418  0.00  0.00    +0.013 A 
ATOM      6  C   UNL     1       4.515   1.057   0.581  0.00  0.00    -0.050 A 
ATOM      7  C   UNL     1       4.231   2.407   0.738  0.00  0.00    +0.008 A 
ATOM      8  C   UNL     1       2.928   2.856   0.732  0.00  0.00    -0.026 A 
ATOM      9  C   UNL     1       1.886   1.949   0.567  0.00  0.00    +0.052 A 
ATOM     10  N   UNL     1       0.573   2.371   0.556  0.00  0.00    -0.322 N 
ATOM     11  H   UNL     1       0.367   3.343   0.669  0.00  0.00    +0.169 HD
ATOM     12  C   UNL     1      -0.434   1.494   0.396  0.00  0.00    +0.251 A 
ATOM     13  O   UNL     1      -1.582   1.903   0.386  0.00  0.00    -0.268 OA
ATOM     14  C   UNL     1       2.633   4.324   0.902  0.00  0.00    +0.046 C 
ATOM     15  C   UNL     1       5.948   0.590   0.592  0.00  0.00    +0.044 C 
ENDBRANCH   1   2
BRANCH   1  22
ATOM     16  C   UNL     1      -3.533  -1.418   0.932  0.00  0.00    -0.077 C 
ATOM     17  C   UNL     1      -4.538  -1.113   2.045  0.00  0.00    -0.015 C 
ATOM     18  C   UNL     1      -3.937  -1.516   3.394  0.00  0.00    -0.018 C 
ATOM     19  C   UNL     1      -2.619  -0.764   3.602  0.00  0.00    -0.015 C 
ATOM     20  C   UNL     1      -1.669  -1.079   2.444  0.00  0.00    -0.077 C 
ATOM     21  C   UNL     1      -4.913  -1.158   4.517  0.00  0.00    +0.007 C 
ATOM     22  N   UNL     1      -2.296  -0.645   1.178  0.00  0.00    +0.389 N 
ATOM     23  H   UNL     1      -2.535   0.351   1.248  0.00  0.00    -0.080 HD
ENDBRANCH   1  22
BRANCH   1  25
ATOM     24  N   UNL     1      -2.087  -1.298  -2.341  0.00  0.00    -0.225 N 
ATOM     25  C   UNL     1      -2.060  -0.528  -1.238  0.00  0.00    +0.143 A 
ATOM     26  N   UNL     1      -2.773   0.539  -1.507  0.00  0.00    -0.115 NA
ATOM     27  N   UNL     1      -3.208   0.432  -2.715  0.00  0.00    -0.023 NA
ATOM     28  N   UNL     1      -2.798  -0.678  -3.221  0.00  0.00    -0.043 NA
BRANCH  24  29
ATOM     29  C   UNL     1      -1.431  -2.597  -2.511  0.00  0.00    +0.061 C 
ATOM     30  C   UNL     1       0.071  -2.447  -2.261  0.00  0.00    +0.036 C 
ATOM     31  C   UNL     1      -2.016  -3.599  -1.514  0.00  0.00    +0.036 C 
BRANCH  29  33
ATOM     32  C   UNL     1      -0.978  -4.460  -4.114  0.00  0.00    +0.006 C 
ATOM     33  C   UNL     1      -1.663  -3.103  -3.937  0.00  0.00    +0.026 C 
ENDBRANCH  29  33
ENDBRANCH  24  29
ENDBRANCH   1  25
TORSDOF 5
