REMARK  Name = ZINC09499149
REMARK  6 active torsions:
REMARK  status: ('A' for Active; 'I' for Inactive)
REMARK    1  A    between atoms: C_1  and  C_2
REMARK    2  A    between atoms: N_23  and  C_26
REMARK    3  A    between atoms: C_28  and  O_36
REMARK    4  A    between atoms: C_29  and  N_33
REMARK    5  A    between atoms: C_31  and  C_32
REMARK    6  A    between atoms: O_36  and  C_37
REMARK                            x       y       z     vdW  Elec       q    Type
REMARK                         _______ _______ _______ _____ _____    ______ ____
ROOT
ATOM      1  C   UNL     1       5.541  -1.559  -0.829  0.00  0.00    +0.045 C 
ATOM      2  C   UNL     1       4.576  -0.962   0.162  0.00  0.00    -0.029 A 
ATOM      3  C   UNL     1       4.972  -0.753   1.467  0.00  0.00    +0.005 A 
ATOM      4  C   UNL     1       4.093  -0.205   2.384  0.00  0.00    +0.001 A 
ATOM      5  C   UNL     1       2.811   0.135   1.990  0.00  0.00    +0.004 A 
ATOM      6  C   UNL     1       2.411  -0.072   0.690  0.00  0.00    -0.027 A 
ATOM      7  C   UNL     1       3.287  -0.623  -0.242  0.00  0.00    +0.039 A 
ATOM      8  N   UNL     1       2.660  -0.738  -1.484  0.00  0.00    -0.286 N 
ATOM      9  C   UNL     1       1.390  -0.292  -1.456  0.00  0.00    +0.212 C 
ATOM     10  O   UNL     1       0.610  -0.270  -2.385  0.00  0.00    -0.277 OA
ATOM     11  C   UNL     1       1.126   0.175  -0.050  0.00  0.00    +0.053 C 
ATOM     12  C   UNL     1       0.736   1.657  -0.020  0.00  0.00    +0.089 C 
ATOM     13  C   UNL     1      -0.815   1.653   0.065  0.00  0.00    +0.074 C 
ATOM     14  C   UNL     1      -1.214   0.166   0.083  0.00  0.00    -0.054 C 
ATOM     15  C   UNL     1       0.009  -0.366   2.026  0.00  0.00    -0.076 C 
ATOM     16  C   UNL     1      -1.473  -0.429   2.448  0.00  0.00    -0.020 C 
ATOM     17  C   UNL     1      -2.269  -0.064   1.181  0.00  0.00    -0.016 C 
ATOM     18  C   UNL     1      -1.092   2.261   1.421  0.00  0.00    +0.228 C 
ATOM     19  O   UNL     1      -2.193   2.447   1.894  0.00  0.00    -0.275 OA
ATOM     20  N   UNL     1       0.067   2.563   2.018  0.00  0.00    -0.210 N 
ATOM     21  C   UNL     1       1.155   2.268   1.298  0.00  0.00    +0.229 C 
ATOM     22  O   UNL     1       2.300   2.461   1.648  0.00  0.00    -0.275 OA
ATOM     23  H   UNL     1       3.091  -1.098  -2.276  0.00  0.00    +0.155 HD
ATOM     24  N   UNL     1      -0.024  -0.504   0.555  0.00  0.00    +0.395 N 
ATOM     25  H   UNL     1      -0.031  -1.496   0.291  0.00  0.00    -0.079 HD
ENDROOT
BRANCH  20  26
ATOM     26  C   UNL     1       0.135   3.141   3.293  0.00  0.00    +0.050 A 
ATOM     27  C   UNL     1       0.266   2.335   4.415  0.00  0.00    +0.072 A 
ATOM     28  C   UNL     1       0.333   2.910   5.674  0.00  0.00    +0.152 A 
ATOM     29  C   UNL     1       0.268   4.290   5.810  0.00  0.00    +0.168 A 
ATOM     30  C   UNL     1       0.137   5.090   4.692  0.00  0.00    +0.041 A 
ATOM     31  C   UNL     1       0.076   4.521   3.435  0.00  0.00    -0.026 A 
ATOM     32  C   UNL     1      -0.060   5.398   2.217  0.00  0.00    +0.046 C 
BRANCH  29  33
ATOM     33  N   UNL     1       0.340   4.904   7.155  0.00  0.00    +0.060 N 
ATOM     34  O   UNL     1       0.283   6.115   7.276  0.00  0.00    -0.126 OA
ATOM     35  O   UNL     1       0.455   4.199   8.141  0.00  0.00    -0.126 OA
ENDBRANCH  29  33
BRANCH  28  36
ATOM     36  O   UNL     1       0.462   2.123   6.775  0.00  0.00    -0.493 OA
ATOM     37  C   UNL     1       0.521   0.712   6.560  0.00  0.00    +0.277 C 
ENDBRANCH  28  36
ENDBRANCH  20  26
TORSDOF 3
