REMARK  Name = ZINC05642673
REMARK  7 active torsions:
REMARK  status: ('A' for Active; 'I' for Inactive)
REMARK    1  A    between atoms: C_1  and  C_2
REMARK    2  A    between atoms: C_2  and  C_3
REMARK    3  A    between atoms: C_3  and  C_4
REMARK    4  A    between atoms: C_3  and  N_6
REMARK    5  A    between atoms: C_4  and  C_5
REMARK    6  A    between atoms: C_13  and  C_20
REMARK    7  A    between atoms: C_17  and  O_19
REMARK                            x       y       z     vdW  Elec       q    Type
REMARK                         _______ _______ _______ _____ _____    ______ ____
ROOT
ATOM      1  N   UNL     1      -0.055  -0.114  -2.441  0.00  0.00    -0.263 N 
ATOM      2  C   UNL     1       0.397   0.693  -3.483  0.00  0.00    +0.161 A 
ATOM      3  C   UNL     1      -0.630   0.798  -4.386  0.00  0.00    +0.079 A 
ATOM      4  C   UNL     1      -1.724   0.052  -3.888  0.00  0.00    +0.271 A 
ATOM      5  O   UNL     1      -2.807  -0.073  -4.433  0.00  0.00    -0.266 OA
ATOM      6  N   UNL     1      -1.366  -0.499  -2.719  0.00  0.00    -0.261 N 
ATOM      7  H   UNL     1      -1.924  -1.065  -2.162  0.00  0.00    +0.190 HD
ATOM      8  C   UNL     1      -0.690   1.536  -5.689  0.00  0.00    +0.116 C 
ATOM      9  S   UNL     1       0.277   3.050  -5.680  0.00  0.00    -0.138 S 
ATOM     10  C   UNL     1       1.994   2.534  -5.535  0.00  0.00    +0.165 C 
ATOM     11  C   UNL     1       2.311   1.950  -4.215  0.00  0.00    +0.199 C 
ATOM     12  N   UNL     1       1.624   1.203  -3.475  0.00  0.00    -0.197 NA
ENDROOT
BRANCH   8  13
ATOM     13  C   UNL     1      -2.127   1.881  -5.986  0.00  0.00    -0.026 A 
ATOM     14  C   UNL     1      -2.839   2.679  -5.111  0.00  0.00    +0.009 A 
ATOM     15  C   UNL     1      -4.157   2.999  -5.379  0.00  0.00    +0.050 A 
ATOM     16  C   UNL     1      -4.767   2.519  -6.527  0.00  0.00    +0.166 A 
ATOM     17  C   UNL     1      -4.050   1.714  -7.408  0.00  0.00    +0.167 A 
ATOM     18  C   UNL     1      -2.727   1.403  -7.136  0.00  0.00    +0.054 A 
ATOM     19  O   UNL     1      -4.864   1.374  -8.450  0.00  0.00    -0.453 OA
ATOM     20  C   UNL     1      -6.203   1.639  -7.993  0.00  0.00    +0.466 C 
ATOM     21  O   UNL     1      -6.031   2.683  -7.016  0.00  0.00    -0.453 OA
ENDBRANCH   8  13
BRANCH  11  22
ATOM     22  O   UNL     1       3.525   2.268  -3.730  0.00  0.00    -0.495 OA
ATOM     23  H   UNL     1       3.717   1.879  -2.866  0.00  0.00    +0.293 HD
ENDBRANCH  11  22
BRANCH   1  24
ATOM     24  C   UNL     1       0.718  -0.497  -1.257  0.00  0.00    +0.107 C 
BRANCH  24  26
ATOM     25  C   UNL     1      -0.019   1.526   0.010  0.00  0.00    +0.006 C 
ATOM     26  C   UNL     1       0.002  -0.004   0.002  0.00  0.00    +0.023 C 
ENDBRANCH  24  26
BRANCH  24  27
ATOM     27  C   UNL     1       0.849  -2.021  -1.205  0.00  0.00    +0.023 C 
ATOM     28  C   UNL     1       1.673  -2.503  -2.400  0.00  0.00    +0.006 C 
ENDBRANCH  24  27
ENDBRANCH   1  24
TORSDOF 5
