REMARK  Name = ZINC21970996
REMARK  5 active torsions:
REMARK  status: ('A' for Active; 'I' for Inactive)
REMARK    1  A    between atoms: C_1  and  S_2
REMARK    2  A    between atoms: S_2  and  N_5
REMARK    3  A    between atoms: C_13  and  C_15
REMARK    4  A    between atoms: N_17  and  N_18
REMARK    5  A    between atoms: C_19  and  C_21
REMARK                            x       y       z     vdW  Elec       q    Type
REMARK                         _______ _______ _______ _____ _____    ______ ____
ROOT
ATOM      1  C   UNL     1       1.202  -2.154   0.203  0.00  0.00    +0.260 C 
ATOM      2  O   UNL     1       2.260  -2.752   0.189  0.00  0.00    -0.269 OA
ATOM      3  N   UNL     1       0.042  -2.837   0.263  0.00  0.00    -0.230 N 
ATOM      4  H   UNL     1      -0.916  -2.296   0.275  0.00  0.00    +0.173 HD
ENDROOT
BRANCH   1  13
ATOM      5  N   UNL     1       1.128   3.482   0.002  0.00  0.00    -0.207 N 
ATOM      6  C   UNL     1       2.365   4.238   0.240  0.00  0.00    +0.131 C 
ATOM      7  C   UNL     1       3.489   3.559  -0.554  0.00  0.00    +0.025 C 
ATOM      8  C   UNL     1       3.691   2.144  -0.012  0.00  0.00    +0.038 C 
ATOM      9  C   UNL     1       2.377   1.410   0.045  0.00  0.00    -0.024 A 
ATOM     10  C   UNL     1       1.165   2.090   0.057  0.00  0.00    +0.054 A 
ATOM     11  C   UNL     1      -0.035   1.385   0.121  0.00  0.00    +0.026 A 
ATOM     12  C   UNL     1      -0.029   0.010   0.169  0.00  0.00    +0.015 A 
ATOM     13  C   UNL     1       1.187  -0.679   0.153  0.00  0.00    +0.039 A 
ATOM     14  C   UNL     1       2.388   0.031   0.091  0.00  0.00    +0.018 A 
BRANCH   5  16
ATOM     15  C   UNL     1      -1.162   4.346   1.262  0.00  0.00    +0.218 C 
ATOM     16  S   UNL     1      -0.290   4.272  -0.327  0.00  0.00    +0.043 S 
ATOM     17  O   UNL     1       0.107   5.576  -0.728  0.00  0.00    -0.155 OA
ATOM     18  O   UNL     1      -0.982   3.416  -1.226  0.00  0.00    -0.155 OA
ENDBRANCH   5  16
ENDBRANCH   1  13
BRANCH   3  19
ATOM     19  N   UNL     1       0.056  -4.238   0.310  0.00  0.00    -0.230 N 
ATOM     20  C   UNL     1      -1.104  -4.921   0.370  0.00  0.00    +0.267 C 
ATOM     21  O   UNL     1      -2.163  -4.322   0.384  0.00  0.00    -0.268 OA
ATOM     22  H   UNL     1       1.013  -4.779   0.298  0.00  0.00    +0.173 HD
BRANCH  20  23
ATOM     23  C   UNL     1      -1.090  -6.386   0.420  0.00  0.00    +0.076 A 
ATOM     24  C   UNL     1      -2.154  -7.268   0.484  0.00  0.00    +0.024 A 
ATOM     25  C   UNL     1      -1.874  -8.629   0.514  0.00  0.00    -0.036 A 
ATOM     26  C   UNL     1      -0.568  -8.979   0.506  0.00  0.00    -0.006 A 
ATOM     27  S   UNL     1       0.306  -7.500   0.405  0.00  0.00    -0.088 S 
ATOM     28  C   UNL     1      -0.008 -10.382   0.586  0.00  0.00    +0.043 C 
ATOM     29  C   UNL     1      -0.371 -11.091  -0.729  0.00  0.00    +0.005 C 
ATOM     30  C   UNL     1      -1.810 -11.551  -0.696  0.00  0.00    +0.001 C 
ATOM     31  C   UNL     1      -2.861 -10.475  -0.795  0.00  0.00    +0.005 C 
ATOM     32  C   UNL     1      -2.991  -9.679   0.504  0.00  0.00    +0.036 C 
ENDBRANCH  20  23
ENDBRANCH   3  19
TORSDOF 4
