REMARK  Name = ZINC53851359
REMARK  6 active torsions:
REMARK  status: ('A' for Active; 'I' for Inactive)
REMARK    1  A    between atoms: C_1  and  C_2
REMARK    2  A    between atoms: C_2  and  C_3
REMARK    3  A    between atoms: C_2  and  C_4
REMARK    4  A    between atoms: C_2  and  C_5
REMARK    5  A    between atoms: C_15  and  C_20
REMARK    6  A    between atoms: C_20  and  C_21
REMARK                            x       y       z     vdW  Elec       q    Type
REMARK                         _______ _______ _______ _____ _____    ______ ____
ROOT
ATOM      1  C   UNL     1       0.718  -0.497  -1.257  0.00  0.00    -0.000 C 
ATOM      2  C   UNL     1      -0.015   0.015  -2.499  0.00  0.00    +0.009 C 
ATOM      3  C   UNL     1       0.534  -0.672  -3.750  0.00  0.00    +0.038 C 
ATOM      4  C   UNL     1       2.052  -0.506  -3.778  0.00  0.00    -0.011 A 
ATOM      5  C   UNL     1       2.727  -0.185  -2.640  0.00  0.00    -0.004 A 
ATOM      6  S   UNL     1       4.430  -0.098  -3.137  0.00  0.00    -0.086 S 
ATOM      7  C   UNL     1       4.200  -0.491  -4.841  0.00  0.00    +0.102 A 
ATOM      8  C   UNL     1       2.804  -0.673  -4.951  0.00  0.00    +0.089 A 
ATOM      9  N   UNL     1       2.309  -0.996  -6.194  0.00  0.00    -0.232 NA
ATOM     10  C   UNL     1       3.146  -1.113  -7.185  0.00  0.00    +0.119 A 
ATOM     11  N   UNL     1       4.489  -0.943  -7.101  0.00  0.00    -0.310 N 
ATOM     12  H   UNL     1       5.036  -1.051  -7.895  0.00  0.00    +0.170 HD
ATOM     13  C   UNL     1       5.080  -0.621  -5.915  0.00  0.00    +0.266 A 
ATOM     14  O   UNL     1       6.283  -0.460  -5.802  0.00  0.00    -0.267 OA
ATOM     15  C   UNL     1       2.157   0.039  -1.275  0.00  0.00    +0.046 C 
ENDROOT
BRANCH   1  17
ATOM     16  C   UNL     1      -0.019   1.526   0.010  0.00  0.00    +0.011 C 
ATOM     17  C   UNL     1       0.002  -0.004   0.002  0.00  0.00    -0.035 C 
ATOM     18  C   UNL     1       0.742  -0.511   1.242  0.00  0.00    +0.011 C 
ATOM     19  C   UNL     1      -1.433  -0.534   0.013  0.00  0.00    +0.011 C 
ENDBRANCH   1  17
BRANCH  10  20
ATOM     20  C   UNL     1       2.577  -1.467  -8.535  0.00  0.00    +0.170 C 
BRANCH  20  21
ATOM     21  C   UNL     1       1.081  -1.614  -8.426  0.00  0.00    +0.223 C 
ATOM     22  O   UNL     1       0.531  -1.447  -7.357  0.00  0.00    -0.275 OA
ATOM     23  N   UNL     1       0.354  -1.930  -9.515  0.00  0.00    -0.301 N 
ATOM     24  C   UNL     1       0.889  -2.165 -10.864  0.00  0.00    +0.108 C 
ATOM     25  C   UNL     1      -0.310  -2.470 -11.787  0.00  0.00    +0.020 C 
ATOM     26  C   UNL     1      -1.504  -1.833 -11.027  0.00  0.00    +0.020 C 
ATOM     27  C   UNL     1      -1.110  -2.104  -9.551  0.00  0.00    +0.108 C 
ENDBRANCH  20  21
ENDBRANCH  10  20
TORSDOF 3
