REMARK  Name = ZINC11866710
REMARK  8 active torsions:
REMARK  status: ('A' for Active; 'I' for Inactive)
REMARK    1  A    between atoms: C_4  and  C_7
REMARK    2  A    between atoms: C_7  and  C_8
REMARK    3  A    between atoms: C_8  and  C_10
REMARK    4  A    between atoms: C_8  and  N_66
REMARK    5  A    between atoms: C_10  and  O_12
REMARK    6  A    between atoms: O_12  and  C_13
REMARK    7  A    between atoms: C_13  and  C_14
REMARK    8  A    between atoms: C_31  and  C_32
REMARK                            x       y       z     vdW  Elec       q    Type
REMARK                         _______ _______ _______ _____ _____    ______ ____
ROOT
ATOM      1  C   UNL     1      -3.124   6.554  -1.282  0.00  0.00    -0.030 C 
ATOM      2  C   UNL     1      -2.519   7.860  -1.730  0.00  0.00    +0.021 A 
ATOM      3  C   UNL     1      -1.283   7.894  -2.352  0.00  0.00    +0.123 A 
ATOM      4  C   UNL     1      -0.730   9.110  -2.755  0.00  0.00    +0.046 A 
ATOM      5  C   UNL     1      -1.401  10.279  -2.544  0.00  0.00    +0.016 A 
ATOM      6  C   UNL     1      -2.651  10.260  -1.919  0.00  0.00    +0.026 A 
ATOM      7  C   UNL     1      -3.216   9.042  -1.508  0.00  0.00    +0.144 A 
ATOM      8  O   UNL     1      -4.421   9.011  -0.904  0.00  0.00    -0.422 OA
ATOM      9  C   UNL     1      -5.103  10.140  -0.684  0.00  0.00    +0.338 A 
ATOM     10  O   UNL     1      -6.188  10.066  -0.136  0.00  0.00    -0.245 OA
ATOM     11  C   UNL     1      -4.625  11.406  -1.057  0.00  0.00    +0.101 A 
ATOM     12  C   UNL     1      -3.394  11.509  -1.680  0.00  0.00    -0.000 A 
ATOM     13  O   UNL     1      -0.589   6.748  -2.580  0.00  0.00    -0.509 OA
ATOM     14  C   UNL     1      -0.988   5.586  -1.849  0.00  0.00    +0.159 C 
ATOM     15  N   UNL     1      -2.452   5.444  -1.986  0.00  0.00    +0.414 N 
ATOM     16  H   UNL     1      -2.701   5.478  -2.981  0.00  0.00    -0.075 HD
ENDROOT
BRANCH  12  17
ATOM     17  C   UNL     1      -2.848  12.820  -2.092  0.00  0.00    -0.017 A 
ATOM     18  C   UNL     1      -1.547  13.180  -1.736  0.00  0.00    +0.008 A 
ATOM     19  C   UNL     1      -1.041  14.402  -2.128  0.00  0.00    +0.001 A 
ATOM     20  C   UNL     1      -1.824  15.276  -2.861  0.00  0.00    +0.000 A 
ATOM     21  C   UNL     1      -3.117  14.928  -3.212  0.00  0.00    +0.001 A 
ATOM     22  C   UNL     1      -3.632  13.706  -2.832  0.00  0.00    +0.008 A 
ENDBRANCH  12  17
BRANCH  15  23
ATOM     23  C   UNL     1      -2.891   4.147  -1.422  0.00  0.00    +0.052 C 
BRANCH  23  24
ATOM     24  C   UNL     1      -2.665   4.122   0.068  0.00  0.00    +0.294 C 
ATOM     25  O   UNL     1      -1.824   4.833   0.563  0.00  0.00    -0.253 OA
BRANCH  24  26
ATOM     26  O   UNL     1      -3.399   3.309   0.844  0.00  0.00    -0.461 OA
BRANCH  26  27
ATOM     27  C   UNL     1      -3.127   3.337   2.270  0.00  0.00    +0.267 C 
BRANCH  27  28
ATOM     28  C   UNL     1      -4.040   2.368   2.975  0.00  0.00    -0.010 A 
ATOM     29  C   UNL     1      -5.271   2.791   3.441  0.00  0.00    +0.007 A 
ATOM     30  C   UNL     1      -6.111   1.900   4.083  0.00  0.00    +0.000 A 
ATOM     31  C   UNL     1      -5.716   0.589   4.268  0.00  0.00    +0.000 A 
ATOM     32  C   UNL     1      -4.483   0.166   3.807  0.00  0.00    +0.000 A 
ATOM     33  C   UNL     1      -3.645   1.056   3.160  0.00  0.00    +0.007 A 
ENDBRANCH  27  28
ENDBRANCH  26  27
ENDBRANCH  24  26
ENDBRANCH  23  24
BRANCH  23  34
ATOM     34  C   UNL     1      -2.092   3.019  -2.078  0.00  0.00    +0.031 C 
BRANCH  34  38
ATOM     35  C   UNL     1      -2.853   2.995  -6.282  0.00  0.00    +0.000 A 
ATOM     36  C   UNL     1      -3.720   2.351  -5.418  0.00  0.00    +0.000 A 
ATOM     37  C   UNL     1      -3.477   2.363  -4.058  0.00  0.00    +0.003 A 
ATOM     38  C   UNL     1      -2.361   3.010  -3.561  0.00  0.00    -0.048 A 
ATOM     39  C   UNL     1      -1.494   3.654  -4.424  0.00  0.00    +0.003 A 
ATOM     40  C   UNL     1      -1.740   3.646  -5.785  0.00  0.00    +0.000 A 
ENDBRANCH  34  38
ENDBRANCH  23  34
ENDBRANCH  15  23
TORSDOF 8
