REMARK  Name = ZINC09882161
REMARK  5 active torsions:
REMARK  status: ('A' for Active; 'I' for Inactive)
REMARK    1  A    between atoms: C_7  and  N_12
REMARK    2  A    between atoms: N_12  and  S_13
REMARK    3  A    between atoms: S_13  and  C_16
REMARK    4  A    between atoms: C_20  and  C_22
REMARK    5  A    between atoms: N_24  and  C_25
REMARK                            x       y       z     vdW  Elec       q    Type
REMARK                         _______ _______ _______ _____ _____    ______ ____
ROOT
ATOM      1  C   UNL     1      -4.989  -2.903  -0.768  0.00  0.00    +0.106 A 
ATOM      2  C   UNL     1      -6.201  -2.257  -0.934  0.00  0.00    +0.028 A 
ATOM      3  C   UNL     1      -6.249  -0.878  -1.037  0.00  0.00    +0.003 A 
ATOM      4  C   UNL     1      -5.086  -0.138  -0.975  0.00  0.00    +0.013 A 
ATOM      5  C   UNL     1      -3.860  -0.783  -0.808  0.00  0.00    +0.039 A 
ATOM      6  C   UNL     1      -3.818  -2.175  -0.711  0.00  0.00    +0.041 A 
ENDROOT
BRANCH   5   7
ATOM      7  C   UNL     1      -2.610   0.003  -0.741  0.00  0.00    +0.248 C 
ATOM      8  O   UNL     1      -1.543  -0.562  -0.595  0.00  0.00    -0.270 OA
ATOM      9  N   UNL     1      -2.653   1.347  -0.841  0.00  0.00    -0.281 N 
ATOM     10  H   UNL     1      -3.508   1.803  -0.882  0.00  0.00    +0.155 HD
BRANCH   9  11
ATOM     11  C   UNL     1      -1.463   2.084  -0.885  0.00  0.00    +0.037 A 
ATOM     12  C   UNL     1      -1.410   3.350  -0.317  0.00  0.00    +0.027 A 
ATOM     13  C   UNL     1      -0.236   4.079  -0.354  0.00  0.00    +0.051 A 
ATOM     14  C   UNL     1       0.887   3.545  -0.964  0.00  0.00    +0.162 A 
ATOM     15  C   UNL     1       0.835   2.282  -1.538  0.00  0.00    +0.164 A 
ATOM     16  C   UNL     1      -0.339   1.550  -1.503  0.00  0.00    +0.072 A 
ATOM     17  O   UNL     1       1.948   1.768  -2.137  0.00  0.00    -0.488 OA
ATOM     18  C   UNL     1       3.033   1.442  -1.266  0.00  0.00    +0.232 C 
ATOM     19  C   UNL     1       3.888   2.668  -0.987  0.00  0.00    +0.082 C 
ATOM     20  C   UNL     1       3.128   3.741  -0.222  0.00  0.00    +0.232 C 
ATOM     21  O   UNL     1       2.051   4.257  -1.006  0.00  0.00    -0.488 OA
ENDBRANCH   9  11
ENDBRANCH   5   7
BRANCH   1  22
ATOM     22  S   UNL     1      -4.939  -4.660  -0.638  0.00  0.00    +0.059 S 
ATOM     23  O   UNL     1      -3.743  -4.982   0.057  0.00  0.00    -0.153 OA
ATOM     24  O   UNL     1      -6.220  -5.069  -0.181  0.00  0.00    -0.153 OA
BRANCH  22  25
ATOM     25  N   UNL     1      -4.770  -5.259  -2.173  0.00  0.00    -0.182 NA
ATOM     26  H   UNL     1      -5.480  -5.791  -2.566  0.00  0.00    +0.149 HD
BRANCH  25  33
ATOM     27  C   UNL     1      -2.375  -8.568  -2.934  0.00  0.00    +0.001 A 
ATOM     28  C   UNL     1      -1.864  -8.707  -4.211  0.00  0.00    +0.004 A 
ATOM     29  C   UNL     1      -1.897  -7.641  -5.086  0.00  0.00    +0.046 A 
ATOM     30  C   UNL     1      -2.444  -6.425  -4.689  0.00  0.00    +0.125 A 
ATOM     31  C   UNL     1      -2.953  -6.288  -3.409  0.00  0.00    +0.013 A 
ATOM     32  C   UNL     1      -2.918  -7.362  -2.535  0.00  0.00    +0.009 A 
ATOM     33  C   UNL     1      -3.550  -4.987  -2.936  0.00  0.00    +0.113 C 
ATOM     34  C   UNL     1      -3.888  -4.106  -4.141  0.00  0.00    +0.066 C 
ATOM     35  C   UNL     1      -2.671  -4.080  -5.075  0.00  0.00    +0.231 C 
ATOM     36  O   UNL     1      -2.463  -5.400  -5.580  0.00  0.00    -0.492 OA
ENDBRANCH  25  33
ENDBRANCH  22  25
ENDBRANCH   1  22
TORSDOF 5
