REMARK  Name = ZINC32871897
REMARK  5 active torsions:
REMARK  status: ('A' for Active; 'I' for Inactive)
REMARK    1  A    between atoms: C_1  and  C_2
REMARK    2  A    between atoms: C_5  and  C_7
REMARK    3  A    between atoms: C_10  and  C_12
REMARK    4  A    between atoms: C_12  and  N_13
REMARK    5  A    between atoms: N_13  and  C_14
REMARK                            x       y       z     vdW  Elec       q    Type
REMARK                         _______ _______ _______ _____ _____    ______ ____
ROOT
ATOM      1  N   UNL     1      -0.698   1.558   1.213  0.00  0.00    -0.310 N 
ATOM      2  C   UNL     1      -0.013   1.086   0.008  0.00  0.00    +0.131 C 
ATOM      3  C   UNL     1       0.025   1.793   2.377  0.00  0.00    +0.144 A 
ATOM      4  C   UNL     1       1.426   1.672   2.363  0.00  0.00    +0.049 A 
ATOM      5  C   UNL     1       2.143   1.905   3.495  0.00  0.00    +0.055 A 
ATOM      6  C   UNL     1       1.464   2.257   4.675  0.00  0.00    +0.200 A 
ATOM      7  N   UNL     1       1.852   2.537   5.912  0.00  0.00    -0.107 NA
ATOM      8  N   UNL     1       0.830   2.803   6.647  0.00  0.00    -0.021 NA
ATOM      9  N   UNL     1      -0.261   2.719   5.963  0.00  0.00    -0.021 NA
ATOM     10  N   UNL     1       0.100   2.361   4.658  0.00  0.00    -0.108 N 
ATOM     11  N   UNL     1      -0.609   2.122   3.481  0.00  0.00    -0.131 NA
ENDROOT
BRANCH   1  12
ATOM     12  C   UNL     1      -2.146   1.783   1.192  0.00  0.00    +0.180 C 
BRANCH  12  16
ATOM     13  C   UNL     1      -3.857  -1.432   1.455  0.00  0.00    +0.109 A 
ATOM     14  C   UNL     1      -3.840  -1.092   2.756  0.00  0.00    +0.045 A 
ATOM     15  C   UNL     1      -3.196   0.163   2.843  0.00  0.00    +0.046 A 
ATOM     16  C   UNL     1      -2.857   0.515   1.590  0.00  0.00    +0.122 A 
ATOM     17  O   UNL     1      -3.265  -0.452   0.752  0.00  0.00    -0.463 OA
BRANCH  13  21
ATOM     18  C   UNL     1      -3.751  -5.135   0.239  0.00  0.00    +0.008 C 
ATOM     19  C   UNL     1      -3.503  -3.630   0.118  0.00  0.00    -0.003 C 
ATOM     20  C   UNL     1      -4.542  -2.802  -0.642  0.00  0.00    +0.015 C 
ATOM     21  C   UNL     1      -4.445  -2.696   0.881  0.00  0.00    +0.058 C 
ENDBRANCH  13  21
ENDBRANCH  12  16
ENDBRANCH   1  12
TORSDOF 3
