REMARK  Name = ZINC08937028
REMARK  8 active torsions:
REMARK  status: ('A' for Active; 'I' for Inactive)
REMARK    1  A    between atoms: C_1  and  C_2
REMARK    2  A    between atoms: C_2  and  C_29
REMARK    3  A    between atoms: N_5  and  N_9
REMARK    4  A    between atoms: C_10  and  C_12
REMARK    5  A    between atoms: C_12  and  N_66
REMARK    6  A    between atoms: C_15  and  N_18
REMARK    7  A    between atoms: C_29  and  C_30
REMARK    8  A    between atoms: C_30  and  C_31
REMARK                            x       y       z     vdW  Elec       q    Type
REMARK                         _______ _______ _______ _____ _____    ______ ____
ROOT
ATOM      1  N   UNL     1      -6.795  -3.182   1.322  0.00  0.00    -0.225 N 
ATOM      2  C   UNL     1      -5.686  -2.440   1.128  0.00  0.00    +0.213 C 
ATOM      3  O   UNL     1      -4.723  -2.589   1.850  0.00  0.00    -0.276 OA
ATOM      4  H   UNL     1      -7.565  -3.062   0.745  0.00  0.00    +0.173 HD
ENDROOT
BRANCH   1   9
ATOM      5  C   UNL     1      -8.589  -5.940   4.590  0.00  0.00    +0.041 C 
ATOM      6  C   UNL     1      -7.269  -5.215   4.317  0.00  0.00    +0.112 C 
ATOM      7  C   UNL     1      -7.510  -3.954   3.511  0.00  0.00    +0.263 C 
ATOM      8  O   UNL     1      -8.172  -2.992   3.837  0.00  0.00    -0.271 OA
ATOM      9  N   UNL     1      -6.834  -4.125   2.358  0.00  0.00    -0.137 N 
ATOM     10  C   UNL     1      -6.210  -5.308   2.321  0.00  0.00    +0.326 C 
ATOM     11  O   UNL     1      -5.541  -5.689   1.381  0.00  0.00    -0.251 OA
ATOM     12  N   UNL     1      -6.404  -6.026   3.442  0.00  0.00    -0.284 N 
ATOM     13  H   UNL     1      -6.048  -6.907   3.635  0.00  0.00    +0.151 HD
BRANCH   6  14
ATOM     14  C   UNL     1      -6.555  -4.887   5.630  0.00  0.00    +0.040 C 
BRANCH  14  15
ATOM     15  C   UNL     1      -6.214  -6.186   6.364  0.00  0.00    +0.038 C 
BRANCH  15  16
ATOM     16  C   UNL     1      -5.511  -5.862   7.657  0.00  0.00    -0.047 A 
ATOM     17  C   UNL     1      -4.133  -5.761   7.687  0.00  0.00    +0.003 A 
ATOM     18  C   UNL     1      -3.488  -5.459   8.872  0.00  0.00    +0.000 A 
ATOM     19  C   UNL     1      -4.221  -5.270  10.029  0.00  0.00    +0.000 A 
ATOM     20  C   UNL     1      -5.599  -5.377   9.999  0.00  0.00    +0.000 A 
ATOM     21  C   UNL     1      -6.244  -5.673   8.813  0.00  0.00    +0.003 A 
ENDBRANCH  15  16
ENDBRANCH  14  15
ENDBRANCH   6  14
ENDBRANCH   1   9
BRANCH   2  22
ATOM     22  C   UNL     1      -5.643  -1.426   0.014  0.00  0.00    +0.020 C 
BRANCH  22  28
ATOM     23  C   UNL     1      -4.168   0.066  -1.193  0.00  0.00    -0.076 C 
ATOM     24  C   UNL     1      -2.746   0.631  -1.232  0.00  0.00    +0.006 C 
ATOM     25  C   UNL     1      -2.504   1.477   0.021  0.00  0.00    +0.089 C 
ATOM     26  C   UNL     1      -2.734   0.612   1.263  0.00  0.00    +0.006 C 
ATOM     27  C   UNL     1      -4.155   0.047   1.230  0.00  0.00    -0.076 C 
ATOM     28  N   UNL     1      -4.316  -0.777   0.013  0.00  0.00    +0.386 N 
ATOM     29  H   UNL     1      -3.590  -1.502   0.004  0.00  0.00    -0.081 HD
BRANCH  25  30
ATOM     30  N   UNL     1      -1.125   1.973   0.018  0.00  0.00    -0.289 N 
ATOM     31  C   UNL     1      -0.741   3.312   0.026  0.00  0.00    +0.070 A 
ATOM     32  C   UNL     1      -1.448   4.505   0.038  0.00  0.00    +0.028 A 
ATOM     33  C   UNL     1      -0.768   5.707   0.038  0.00  0.00    +0.002 A 
ATOM     34  C   UNL     1       0.617   5.726   0.026  0.00  0.00    +0.002 A 
ATOM     35  C   UNL     1       1.329   4.543   0.013  0.00  0.00    +0.028 A 
ATOM     36  C   UNL     1       0.655   3.331   0.013  0.00  0.00    +0.067 A 
ATOM     37  N   UNL     1       1.076   2.003   0.003  0.00  0.00    -0.306 N 
ATOM     38  H   UNL     1       1.997   1.699  -0.007  0.00  0.00    +0.170 HD
ATOM     39  C   UNL     1      -0.014   1.213   0.009  0.00  0.00    +0.328 A 
ATOM     40  O   UNL     1       0.002  -0.004   0.002  0.00  0.00    -0.247 OA
ENDBRANCH  25  30
ENDBRANCH  22  28
ENDBRANCH   2  22
TORSDOF 7
