REMARK  Name = ZINC18516761
REMARK  8 active torsions:
REMARK  status: ('A' for Active; 'I' for Inactive)
REMARK    1  A    between atoms: C_1  and  C_2
REMARK    2  A    between atoms: C_2  and  C_4
REMARK    3  A    between atoms: C_2  and  S_15
REMARK    4  A    between atoms: N_6  and  C_7
REMARK    5  A    between atoms: S_15  and  C_16
REMARK    6  A    between atoms: N_21  and  C_22
REMARK    7  A    between atoms: C_25  and  O_28
REMARK    8  A    between atoms: O_28  and  C_29
REMARK                            x       y       z     vdW  Elec       q    Type
REMARK                         _______ _______ _______ _____ _____    ______ ____
ROOT
ATOM      1  C   UNL     1       1.139  -0.604   0.579  0.00  0.00    +0.161 A 
ATOM      2  N   UNL     1      -0.008   0.022   0.392  0.00  0.00    -0.133 NA
ATOM      3  N   UNL     1      -0.021   1.383   0.192  0.00  0.00    -0.125 NA
ATOM      4  C   UNL     1       1.113   2.056   0.189  0.00  0.00    +0.187 A 
ATOM      5  S   UNL     1       2.298   0.752   0.478  0.00  0.00    -0.024 S 
ATOM      6  N   UNL     1       1.328   3.418   0.007  0.00  0.00    -0.292 N 
ATOM      7  H   UNL     1       2.233   3.761  -0.056  0.00  0.00    +0.154 HD
ENDROOT
BRANCH   6   8
ATOM      8  C   UNL     1       0.239   4.292  -0.083  0.00  0.00    +0.033 A 
ATOM      9  C   UNL     1       0.368   5.493  -0.770  0.00  0.00    +0.027 A 
ATOM     10  C   UNL     1      -0.709   6.353  -0.863  0.00  0.00    +0.048 A 
ATOM     11  C   UNL     1      -1.914   6.023  -0.261  0.00  0.00    +0.130 A 
ATOM     12  C   UNL     1      -2.042   4.827   0.429  0.00  0.00    +0.048 A 
ATOM     13  C   UNL     1      -0.968   3.963   0.519  0.00  0.00    +0.027 A 
BRANCH  11  14
ATOM     14  O   UNL     1      -2.972   6.874  -0.348  0.00  0.00    -0.406 OA
BRANCH  14  15
ATOM     15  C   UNL     1      -2.770   8.088  -1.074  0.00  0.00    +0.575 C 
ATOM     16  F   UNL     1      -2.419   7.789  -2.395  0.00  0.00    -0.133 F 
ATOM     17  F   UNL     1      -3.950   8.839  -1.065  0.00  0.00    -0.133 F 
ATOM     18  F   UNL     1      -1.744   8.825  -0.474  0.00  0.00    -0.133 F 
ENDBRANCH  14  15
ENDBRANCH  11  14
ENDBRANCH   6   8
BRANCH   1  19
ATOM     19  S   UNL     1       1.445  -2.317   0.855  0.00  0.00    -0.084 S 
BRANCH  19  21
ATOM     20  C   UNL     1      -0.810  -2.919  -0.572  0.00  0.00    +0.029 C 
ATOM     21  C   UNL     1      -0.206  -3.067   0.826  0.00  0.00    +0.136 C 
BRANCH  21  22
ATOM     22  C   UNL     1      -0.100  -4.530   1.175  0.00  0.00    +0.226 C 
ATOM     23  O   UNL     1       0.963  -5.103   1.064  0.00  0.00    -0.275 OA
ATOM     24  N   UNL     1      -1.185  -5.200   1.609  0.00  0.00    -0.310 N 
ATOM     25  H   UNL     1      -2.035  -4.742   1.697  0.00  0.00    +0.149 HD
BRANCH  24  26
ATOM     26  C   UNL     1      -1.081  -6.622   1.947  0.00  0.00    +0.095 C 
ATOM     27  C   UNL     1      -1.284  -7.473   0.683  0.00  0.00    +0.046 C 
ATOM     28  C   UNL     1      -1.496  -8.956   1.073  0.00  0.00    +0.168 C 
ATOM     29  S   UNL     1      -2.241  -8.829   2.750  0.00  0.00    -0.029 S 
ATOM     30  O   UNL     1      -1.364  -9.432   3.692  0.00  0.00    -0.174 OA
ATOM     31  O   UNL     1      -3.596  -9.251   2.686  0.00  0.00    -0.174 OA
ATOM     32  C   UNL     1      -2.191  -7.001   2.969  0.00  0.00    +0.188 C 
ENDBRANCH  24  26
ENDBRANCH  21  22
ENDBRANCH  19  21
ENDBRANCH   1  19
TORSDOF 7
