REMARK  Name = ZINC17201687
REMARK  3 active torsions:
REMARK  status: ('A' for Active; 'I' for Inactive)
REMARK    1  A    between atoms: N_10  and  N_11
REMARK    2  A    between atoms: C_12  and  C_14
REMARK    3  A    between atoms: C_18  and  N_20
REMARK                            x       y       z     vdW  Elec       q    Type
REMARK                         _______ _______ _______ _____ _____    ______ ____
ROOT
ATOM      1  N   UNL     1       0.096  -2.856  -0.015  0.00  0.00    -0.203 N 
ATOM      2  C   UNL     1       1.250  -2.160  -0.022  0.00  0.00    +0.263 C 
ATOM      3  O   UNL     1       2.314  -2.748  -0.035  0.00  0.00    -0.268 OA
ATOM      4  H   UNL     1      -0.753  -2.387  -0.004  0.00  0.00    +0.178 HD
ENDROOT
BRANCH   1  14
ATOM      5  C   UNL     1      -1.810  -9.084  -0.032  0.00  0.00    +0.000 A 
ATOM      6  C   UNL     1      -0.475  -8.718  -0.043  0.00  0.00    +0.001 A 
ATOM      7  C   UNL     1      -0.123  -7.386  -0.038  0.00  0.00    +0.010 A 
ATOM      8  C   UNL     1      -1.116  -6.396  -0.023  0.00  0.00    +0.001 A 
ATOM      9  C   UNL     1      -2.457  -6.774  -0.012  0.00  0.00    -0.038 A 
ATOM     10  C   UNL     1      -2.795  -8.114  -0.017  0.00  0.00    +0.004 A 
ATOM     11  C   UNL     1      -3.330  -5.543   0.003  0.00  0.00    +0.042 C 
ATOM     12  C   UNL     1      -2.380  -4.338   0.006  0.00  0.00    +0.062 C 
ATOM     13  C   UNL     1      -0.990  -4.926  -0.017  0.00  0.00    +0.067 C 
ATOM     14  N   UNL     1       0.122  -4.256  -0.023  0.00  0.00    -0.184 NA
ENDBRANCH   1  14
BRANCH   2  15
ATOM     15  C   UNL     1       1.222  -0.682  -0.013  0.00  0.00    +0.041 A 
ATOM     16  C   UNL     1       0.002  -0.004   0.002  0.00  0.00    +0.013 A 
ATOM     17  C   UNL     1      -0.017   1.375   0.010  0.00  0.00    +0.003 A 
ATOM     18  C   UNL     1       1.171   2.086   0.002  0.00  0.00    +0.033 A 
ATOM     19  C   UNL     1       2.383   1.420  -0.013  0.00  0.00    +0.127 A 
ATOM     20  C   UNL     1       2.416   0.041  -0.021  0.00  0.00    +0.045 A 
BRANCH  19  21
ATOM     21  N   UNL     1       3.648   2.189  -0.021  0.00  0.00    +0.056 N 
ATOM     22  O   UNL     1       4.716   1.605  -0.035  0.00  0.00    -0.126 OA
ATOM     23  O   UNL     1       3.620   3.407  -0.014  0.00  0.00    -0.126 OA
ENDBRANCH  19  21
ENDBRANCH   2  15
TORSDOF 3
