REMARK  Name = ZINC01387703
REMARK  9 active torsions:
REMARK  status: ('A' for Active; 'I' for Inactive)
REMARK    1  A    between atoms: C_1  and  C_2
REMARK    2  A    between atoms: C_2  and  C_4
REMARK    3  A    between atoms: C_6  and  N_23
REMARK    4  A    between atoms: C_10  and  C_11
REMARK    5  A    between atoms: C_12  and  C_13
REMARK    6  A    between atoms: C_14  and  O_22
REMARK    7  A    between atoms: C_16  and  C_20
REMARK    8  A    between atoms: C_16  and  C_21
REMARK    9  A    between atoms: C_24  and  C_26
REMARK                            x       y       z     vdW  Elec       q    Type
REMARK                         _______ _______ _______ _____ _____    ______ ____
ROOT
ATOM      1  C   UNL     1      -4.960   4.047  -0.129  0.00  0.00    +0.061 A 
ATOM      2  C   UNL     1      -3.740   3.333  -0.048  0.00  0.00    +0.045 A 
ATOM      3  C   UNL     1      -2.565   4.029  -0.054  0.00  0.00    +0.120 A 
ATOM      4  C   UNL     1      -2.588   5.439  -0.134  0.00  0.00    +0.359 A 
ATOM      5  O   UNL     1      -1.540   6.059  -0.134  0.00  0.00    -0.243 OA
ATOM      6  O   UNL     1      -3.754   6.104  -0.217  0.00  0.00    -0.421 OA
ATOM      7  C   UNL     1      -4.930   5.449  -0.214  0.00  0.00    +0.143 A 
ENDROOT
BRANCH   3   8
ATOM      8  N   UNL     1      -1.343   3.347   0.026  0.00  0.00    -0.276 N 
ATOM      9  C   UNL     1      -1.288   2.125   0.592  0.00  0.00    +0.248 C 
ATOM     10  O   UNL     1      -2.276   1.658   1.126  0.00  0.00    -0.270 OA
ATOM     11  H   UNL     1      -0.537   3.755  -0.326  0.00  0.00    +0.155 HD
BRANCH   9  12
ATOM     12  C   UNL     1      -0.029   1.353   0.562  0.00  0.00    +0.037 A 
ATOM     13  C   UNL     1       1.105   1.885  -0.056  0.00  0.00    +0.014 A 
ATOM     14  C   UNL     1       2.276   1.158  -0.085  0.00  0.00    +0.021 A 
ATOM     15  C   UNL     1       2.329  -0.098   0.497  0.00  0.00    +0.041 A 
ATOM     16  C   UNL     1       1.208  -0.631   1.112  0.00  0.00    +0.021 A 
ATOM     17  C   UNL     1       0.031   0.087   1.147  0.00  0.00    +0.014 A 
ATOM     18 CL   UNL     1       3.807  -1.008   0.457  0.00  0.00    -0.084 Cl
ENDBRANCH   9  12
ENDBRANCH   3   8
BRANCH   1  20
ATOM     19  C   UNL     1      -6.226   1.864   0.087  0.00  0.00    +0.092 C 
ATOM     20  C   UNL     1      -6.197   3.356  -0.126  0.00  0.00    +0.164 C 
ATOM     21  O   UNL     1      -7.233   3.965  -0.296  0.00  0.00    -0.292 OA
ENDBRANCH   1  20
BRANCH   7  22
ATOM     22  C   UNL     1      -6.135   6.172  -0.296  0.00  0.00    +0.048 C 
ATOM     23  C   UNL     1      -6.115   7.529  -0.268  0.00  0.00    +0.018 C 
BRANCH  23  24
ATOM     24  C   UNL     1      -7.374   8.280  -0.237  0.00  0.00    +0.055 C 
ATOM     25  C   UNL     1      -7.358   9.653  -0.320  0.00  0.00    +0.105 C 
ATOM     26  C   UNL     1      -8.611  10.478  -0.286  0.00  0.00    +0.081 C 
ATOM     27  C   UNL     1      -9.829   9.647  -0.683  0.00  0.00    -0.021 C 
ATOM     28  C   UNL     1      -9.888   8.386   0.190  0.00  0.00    +0.086 C 
ATOM     29  C   UNL     1      -8.651   7.566  -0.111  0.00  0.00    +0.167 C 
ATOM     30  O   UNL     1      -8.713   6.361  -0.244  0.00  0.00    -0.292 OA
ATOM     31  C   UNL     1      -9.716   9.245  -2.155  0.00  0.00    +0.012 C 
ATOM     32  C   UNL     1     -11.101  10.472  -0.474  0.00  0.00    +0.012 C 
BRANCH  25  33
ATOM     33  O   UNL     1      -6.176  10.279  -0.440  0.00  0.00    -0.510 OA
ATOM     34  H   UNL     1      -6.325  11.267  -0.488  0.00  0.00    +0.292 HD
ENDBRANCH  25  33
ENDBRANCH  23  24
ENDBRANCH   7  22
TORSDOF 6
