REMARK  Name = ZINC35445923
REMARK  8 active torsions:
REMARK  status: ('A' for Active; 'I' for Inactive)
REMARK    1  A    between atoms: C_1  and  C_2
REMARK    2  A    between atoms: C_2  and  C_4
REMARK    3  A    between atoms: C_2  and  N_33
REMARK    4  A    between atoms: C_4  and  C_5
REMARK    5  A    between atoms: C_5  and  N_6
REMARK    6  A    between atoms: C_7  and  C_9
REMARK    7  A    between atoms: C_9  and  N_10
REMARK    8  A    between atoms: C_13  and  C_26
REMARK                            x       y       z     vdW  Elec       q    Type
REMARK                         _______ _______ _______ _____ _____    ______ ____
ROOT
ATOM      1  N   UNL     1       1.999  -6.264   3.437  0.00  0.00    -0.259 N 
ATOM      2  C   UNL     1       0.895  -6.908   4.010  0.00  0.00    +0.059 A 
ATOM      3  C   UNL     1      -0.230  -6.187   4.360  0.00  0.00    +0.038 A 
ATOM      4  C   UNL     1      -1.319  -6.843   4.942  0.00  0.00    +0.039 A 
ATOM      5  C   UNL     1      -1.265  -8.222   5.167  0.00  0.00    +0.015 A 
ATOM      6  C   UNL     1      -0.141  -8.936   4.811  0.00  0.00    +0.026 A 
ATOM      7  C   UNL     1       0.939  -8.286   4.228  0.00  0.00    +0.052 A 
ATOM      8  N   UNL     1       2.069  -9.021   3.842  0.00  0.00    -0.317 N 
ATOM      9  C   UNL     1       2.270 -10.320   4.483  0.00  0.00    +0.106 C 
ATOM     10  C   UNL     1       3.755 -10.636   4.638  0.00  0.00    +0.019 C 
ATOM     11  C   UNL     1       4.425 -10.477   3.268  0.00  0.00    +0.004 C 
ATOM     12  C   UNL     1       4.370  -9.006   2.873  0.00  0.00    +0.032 C 
ATOM     13  C   UNL     1       2.943  -8.486   2.813  0.00  0.00    +0.160 C 
ATOM     14  C   UNL     1       2.973  -6.980   2.852  0.00  0.00    +0.241 C 
ATOM     15  O   UNL     1       3.907  -6.396   2.344  0.00  0.00    -0.273 OA
ENDROOT
BRANCH   4  16
ATOM     16  C   UNL     1      -2.524  -6.081   5.319  0.00  0.00    +0.247 C 
ATOM     17  O   UNL     1      -3.522  -6.667   5.693  0.00  0.00    -0.270 OA
ATOM     18  N   UNL     1      -2.520  -4.735   5.250  0.00  0.00    -0.298 N 
ATOM     19  C   UNL     1      -1.427  -3.909   4.715  0.00  0.00    +0.108 C 
ATOM     20  C   UNL     1      -1.855  -2.433   4.863  0.00  0.00    +0.020 C 
ATOM     21  C   UNL     1      -2.920  -2.491   5.989  0.00  0.00    +0.020 C 
ATOM     22  C   UNL     1      -3.611  -3.848   5.691  0.00  0.00    +0.108 C 
ENDBRANCH   4  16
BRANCH   1  23
ATOM     23  C   UNL     1       2.089  -4.802   3.470  0.00  0.00    +0.209 C 
BRANCH  23  25
ATOM     24  N   UNL     1       1.389  -2.896   2.058  0.00  0.00    -0.314 N 
ATOM     25  C   UNL     1       1.428  -4.230   2.243  0.00  0.00    +0.231 C 
ATOM     26  O   UNL     1       0.930  -4.971   1.421  0.00  0.00    -0.274 OA
ATOM     27  H   UNL     1       1.786  -2.304   2.715  0.00  0.00    +0.149 HD
BRANCH  24  28
ATOM     28  C   UNL     1       0.746  -2.340   0.865  0.00  0.00    +0.102 C 
BRANCH  28  29
ATOM     29  C   UNL     1       0.839  -0.813   0.899  0.00  0.00    +0.003 C 
BRANCH  29  31
ATOM     30  C   UNL     1       0.723  -0.641  -1.590  0.00  0.00    -0.013 C 
ATOM     31  C   UNL     1       0.056  -0.227  -0.277  0.00  0.00    -0.070 C 
BRANCH  31  32
ATOM     32  N   UNL     1       0.043   1.238  -0.175  0.00  0.00    +0.381 N 
ATOM     33  C   UNL     1      -0.852   1.815  -1.211  0.00  0.00    -0.079 C 
ATOM     34  C   UNL     1      -1.199   3.214  -0.640  0.00  0.00    -0.020 C 
ATOM     35  C   UNL     1      -1.325   2.946   0.877  0.00  0.00    -0.020 C 
ATOM     36  C   UNL     1      -0.525   1.654   1.126  0.00  0.00    -0.079 C 
ATOM     37  H   UNL     1       0.978   1.603  -0.279  0.00  0.00    -0.081 HD
ENDBRANCH  31  32
ENDBRANCH  29  31
ENDBRANCH  28  29
ENDBRANCH  24  28
ENDBRANCH  23  25
ENDBRANCH   1  23
TORSDOF 7
