REMARK  Name = ZINC14470437
REMARK  7 active torsions:
REMARK  status: ('A' for Active; 'I' for Inactive)
REMARK    1  A    between atoms: C_4  and  C_7
REMARK    2  A    between atoms: C_7  and  O_8
REMARK    3  A    between atoms: O_8  and  C_9
REMARK    4  A    between atoms: C_12  and  C_15
REMARK    5  A    between atoms: C_26  and  C_31
REMARK    6  A    between atoms: N_33  and  C_34
REMARK    7  A    between atoms: C_34  and  C_35
REMARK                            x       y       z     vdW  Elec       q    Type
REMARK                         _______ _______ _______ _____ _____    ______ ____
ROOT
ATOM      1  C   UNL     1       3.671   2.186  -0.022  0.00  0.00    +0.105 C 
ATOM      2  C   UNL     1       4.022   2.607  -1.438  0.00  0.00    +0.029 C 
ATOM      3  C   UNL     1       4.061   1.506  -2.506  0.00  0.00    +0.033 C 
ATOM      4  C   UNL     1       3.682   2.287  -3.766  0.00  0.00    -0.030 C 
ATOM      5  C   UNL     1       2.961   3.353  -3.441  0.00  0.00    -0.023 C 
ATOM      6  C   UNL     1       2.766   3.361  -1.968  0.00  0.00    +0.049 C 
ATOM      7  C   UNL     1       2.634   4.619  -1.202  0.00  0.00    -0.019 A 
ATOM      8  C   UNL     1       2.166   5.780  -1.768  0.00  0.00    +0.019 A 
ATOM      9  C   UNL     1       2.046   6.940  -0.998  0.00  0.00    +0.037 A 
ATOM     10  C   UNL     1       2.403   6.913   0.353  0.00  0.00    +0.015 A 
ATOM     11  C   UNL     1       2.876   5.752   0.916  0.00  0.00    +0.024 A 
ATOM     12  C   UNL     1       3.005   4.595   0.151  0.00  0.00    +0.031 A 
ATOM     13  N   UNL     1       3.522   3.441   0.746  0.00  0.00    -0.336 N 
ATOM     14  H   UNL     1       3.788   3.463   1.678  0.00  0.00    +0.147 HD
ENDROOT
BRANCH   1  18
ATOM     15  C   UNL     1       0.002  -0.004   0.002  0.00  0.00    +0.121 A 
ATOM     16  C   UNL     1      -0.009   1.372   0.181  0.00  0.00    +0.046 A 
ATOM     17  C   UNL     1       1.179   2.077   0.173  0.00  0.00    +0.009 A 
ATOM     18  C   UNL     1       2.377   1.414  -0.013  0.00  0.00    -0.027 A 
ATOM     19  C   UNL     1       2.391   0.043  -0.191  0.00  0.00    +0.009 A 
ATOM     20  C   UNL     1       1.206  -0.667  -0.184  0.00  0.00    +0.046 A 
BRANCH  15  21
ATOM     21  O   UNL     1      -1.165  -0.701   0.010  0.00  0.00    -0.487 OA
BRANCH  21  22
ATOM     22  C   UNL     1      -1.078  -2.114  -0.180  0.00  0.00    +0.264 C 
BRANCH  22  26
ATOM     23  C   UNL     1      -4.997  -3.810  -0.071  0.00  0.00    +0.000 A 
ATOM     24  C   UNL     1      -4.462  -3.383  -1.272  0.00  0.00    +0.000 A 
ATOM     25  C   UNL     1      -3.194  -2.834  -1.307  0.00  0.00    +0.007 A 
ATOM     26  C   UNL     1      -2.460  -2.713  -0.141  0.00  0.00    -0.010 A 
ATOM     27  C   UNL     1      -2.993  -3.145   1.058  0.00  0.00    +0.007 A 
ATOM     28  C   UNL     1      -4.263  -3.690   1.095  0.00  0.00    +0.000 A 
ENDBRANCH  22  26
ENDBRANCH  21  22
ENDBRANCH  15  21
ENDBRANCH   1  18
BRANCH   9  29
ATOM     29  C   UNL     1       1.543   8.186  -1.608  0.00  0.00    +0.244 C 
ATOM     30  O   UNL     1       1.233   8.205  -2.783  0.00  0.00    -0.270 OA
ATOM     31  N   UNL     1       1.429   9.302  -0.862  0.00  0.00    -0.309 N 
ATOM     32  H   UNL     1       1.676   9.287   0.076  0.00  0.00    +0.149 HD
BRANCH  31  33
ATOM     33  C   UNL     1       0.930  10.540  -1.467  0.00  0.00    +0.136 C 
BRANCH  33  34
ATOM     34  C   UNL     1       0.898  11.647  -0.411  0.00  0.00    +0.135 C 
ATOM     35  C   UNL     1       0.261  12.921  -1.008  0.00  0.00    +0.035 C 
ATOM     36  C   UNL     1       1.141  14.046  -0.394  0.00  0.00    +0.031 C 
ATOM     37  C   UNL     1       2.521  13.344  -0.338  0.00  0.00    +0.160 C 
ATOM     38  O   UNL     1       2.233  11.975  -0.011  0.00  0.00    -0.375 OA
ENDBRANCH  33  34
ENDBRANCH  31  33
ENDBRANCH   9  29
TORSDOF 7
