REMARK  Name = ZINC09169123
REMARK  6 active torsions:
REMARK  status: ('A' for Active; 'I' for Inactive)
REMARK    1  A    between atoms: C_1  and  C_2
REMARK    2  A    between atoms: C_2  and  C_30
REMARK    3  A    between atoms: C_7  and  N_14
REMARK    4  A    between atoms: N_14  and  S_15
REMARK    5  A    between atoms: S_15  and  C_18
REMARK    6  A    between atoms: C_21  and  C_24
REMARK                            x       y       z     vdW  Elec       q    Type
REMARK                         _______ _______ _______ _____ _____    ______ ____
ROOT
ATOM      1  N   UNL     1      -1.962  -0.369   1.048  0.00  0.00    -0.216 N 
ATOM      2  H   UNL     1      -2.443  -0.147   1.861  0.00  0.00    +0.174 HD
ENDROOT
BRANCH   1   9
ATOM      3  C   UNL     1       2.325   1.899   2.713  0.00  0.00    +0.024 C 
ATOM      4  C   UNL     1       2.695   3.250   2.099  0.00  0.00    +0.076 C 
ATOM      5  C   UNL     1       1.427   4.075   1.889  0.00  0.00    +0.244 C 
ATOM      6  O   UNL     1       0.707   3.603   0.753  0.00  0.00    -0.489 OA
ATOM      7  C   UNL     1       0.576   2.257   0.615  0.00  0.00    +0.143 A 
ATOM      8  C   UNL     1      -0.628   1.636   0.898  0.00  0.00    +0.072 A 
ATOM      9  C   UNL     1      -0.745   0.259   0.762  0.00  0.00    +0.052 A 
ATOM     10  C   UNL     1       0.343  -0.495   0.342  0.00  0.00    +0.026 A 
ATOM     11  C   UNL     1       1.545   0.124   0.056  0.00  0.00    +0.029 A 
ATOM     12  C   UNL     1       1.666   1.497   0.190  0.00  0.00    +0.076 A 
ATOM     13  N   UNL     1       2.879   2.140  -0.103  0.00  0.00    -0.282 N 
ATOM     14  C   UNL     1       3.390   3.026   0.781  0.00  0.00    +0.226 C 
ATOM     15  O   UNL     1       4.403   3.637   0.514  0.00  0.00    -0.275 OA
ATOM     16  C   UNL     1       3.633   3.999   3.046  0.00  0.00    +0.024 C 
ATOM     17  H   UNL     1       3.346   1.950  -0.932  0.00  0.00    +0.155 HD
ENDBRANCH   1   9
BRANCH   1  18
ATOM     18  S   UNL     1      -2.580  -1.493   0.001  0.00  0.00    +0.072 S 
ATOM     19  O   UNL     1      -1.549  -2.443  -0.231  0.00  0.00    -0.150 OA
ATOM     20  O   UNL     1      -3.856  -1.861   0.506  0.00  0.00    -0.150 OA
BRANCH  18  21
ATOM     21  C   UNL     1      -2.863  -0.674  -1.534  0.00  0.00    +0.109 A 
ATOM     22  C   UNL     1      -4.044   0.017  -1.738  0.00  0.00    +0.029 A 
ATOM     23  C   UNL     1      -4.269   0.664  -2.936  0.00  0.00    +0.010 A 
ATOM     24  C   UNL     1      -3.309   0.612  -3.944  0.00  0.00    -0.018 A 
ATOM     25  C   UNL     1      -2.123  -0.089  -3.735  0.00  0.00    +0.010 A 
ATOM     26  C   UNL     1      -1.906  -0.728  -2.531  0.00  0.00    +0.029 A 
BRANCH  24  27
ATOM     27  C   UNL     1      -3.548   1.301  -5.237  0.00  0.00    -0.018 A 
ATOM     28  C   UNL     1      -2.585   1.254  -6.243  0.00  0.00    +0.008 A 
ATOM     29  C   UNL     1      -2.815   1.893  -7.445  0.00  0.00    +0.001 A 
ATOM     30  C   UNL     1      -3.994   2.588  -7.647  0.00  0.00    +0.000 A 
ATOM     31  C   UNL     1      -4.950   2.642  -6.650  0.00  0.00    +0.001 A 
ATOM     32  C   UNL     1      -4.734   2.003  -5.446  0.00  0.00    +0.008 A 
ENDBRANCH  24  27
ENDBRANCH  18  21
ENDBRANCH   1  18
TORSDOF 4
