REMARK  Name = ZINC60538151
REMARK  5 active torsions:
REMARK  status: ('A' for Active; 'I' for Inactive)
REMARK    1  A    between atoms: C_1  and  C_2
REMARK    2  A    between atoms: C_3  and  C_22
REMARK    3  A    between atoms: C_5  and  N_9
REMARK    4  A    between atoms: C_6  and  C_7
REMARK    5  A    between atoms: C_10  and  C_12
REMARK                            x       y       z     vdW  Elec       q    Type
REMARK                         _______ _______ _______ _____ _____    ______ ____
ROOT
ATOM      1  N   UNL     1       0.054  -3.116   2.083  0.00  0.00    -0.275 N 
ATOM      2  C   UNL     1       0.071  -4.425   1.763  0.00  0.00    +0.249 C 
ATOM      3  O   UNL     1       0.070  -4.766   0.596  0.00  0.00    -0.270 OA
ATOM      4  H   UNL     1       0.055  -2.845   3.014  0.00  0.00    +0.156 HD
ENDROOT
BRANCH   2   5
ATOM      5  C   UNL     1       0.090  -5.445   2.829  0.00  0.00    +0.042 A 
ATOM      6  C   UNL     1       0.113  -6.803   2.499  0.00  0.00    +0.062 A 
ATOM      7  C   UNL     1       0.131  -7.755   3.499  0.00  0.00    +0.168 A 
ATOM      8  C   UNL     1       0.126  -7.361   4.838  0.00  0.00    +0.184 A 
ATOM      9  C   UNL     1       0.103  -6.011   5.165  0.00  0.00    +0.087 A 
ATOM     10  C   UNL     1       0.091  -5.056   4.171  0.00  0.00    +0.037 A 
ATOM     11 CL   UNL     1       0.097  -5.525   6.832  0.00  0.00    -0.080 Cl
ATOM     12  O   UNL     1       0.146  -8.478   5.620  0.00  0.00    -0.451 OA
ATOM     13  C   UNL     1      -0.251  -9.560   4.757  0.00  0.00    +0.466 C 
ATOM     14  O   UNL     1       0.154  -9.120   3.447  0.00  0.00    -0.453 OA
ENDBRANCH   2   5
BRANCH   1  19
ATOM     15  C   UNL     1      -0.018   1.503   0.010  0.00  0.00    +0.046 C 
ATOM     16  C   UNL     1       0.002  -0.004   0.002  0.00  0.00    -0.021 A 
ATOM     17  C   UNL     1       0.006  -0.713  -1.143  0.00  0.00    -0.007 A 
ATOM     18  S   UNL     1       0.032  -2.401  -0.579  0.00  0.00    -0.077 S 
ATOM     19  C   UNL     1       0.037  -2.158   1.081  0.00  0.00    +0.090 A 
ATOM     20  C   UNL     1       0.025  -0.778   1.222  0.00  0.00    +0.083 A 
ATOM     21  C   UNL     1      -0.008  -0.201  -2.560  0.00  0.00    +0.052 C 
BRANCH  20  22
ATOM     22  C   UNL     1       0.029  -0.152   2.510  0.00  0.00    +0.102 C 
ATOM     23  N   UNL     1       0.033   0.344   3.532  0.00  0.00    -0.191 NA
ENDBRANCH  20  22
ENDBRANCH   1  19
TORSDOF 3
