REMARK  Name = ZINC64197734
REMARK  8 active torsions:
REMARK  status: ('A' for Active; 'I' for Inactive)
REMARK    1  A    between atoms: C_1  and  C_2
REMARK    2  A    between atoms: C_4  and  C_37
REMARK    3  A    between atoms: C_6  and  N_8
REMARK    4  A    between atoms: C_9  and  C_11
REMARK    5  A    between atoms: C_11  and  C_13
REMARK    6  A    between atoms: C_11  and  N_23
REMARK    7  A    between atoms: C_13  and  C_14
REMARK    8  A    between atoms: C_24  and  C_26
REMARK                            x       y       z     vdW  Elec       q    Type
REMARK                         _______ _______ _______ _____ _____    ______ ____
ROOT
ATOM      1  C   UNL     1       0.280  -2.900   4.854  0.00  0.00    +0.163 C 
ENDROOT
BRANCH   1   3
ATOM      2  N   UNL     1       0.052  -2.797   2.393  0.00  0.00    -0.284 N 
ATOM      3  C   UNL     1       0.150  -2.134   3.562  0.00  0.00    +0.238 C 
ATOM      4  O   UNL     1       0.134  -0.922   3.575  0.00  0.00    -0.273 OA
ATOM      5  H   UNL     1      -0.012  -3.765   2.388  0.00  0.00    +0.155 HD
BRANCH   2  11
ATOM      6  C   UNL     1      -1.512  -2.365  -2.248  0.00  0.00    +0.044 C 
ATOM      7  C   UNL     1      -0.707  -1.857  -1.080  0.00  0.00    -0.048 A 
ATOM      8  C   UNL     1       0.025  -0.690  -1.201  0.00  0.00    +0.006 A 
ATOM      9  C   UNL     1       0.765  -0.220  -0.131  0.00  0.00    -0.048 A 
ATOM     10  C   UNL     1       0.776  -0.916   1.061  0.00  0.00    +0.026 A 
ATOM     11  C   UNL     1       0.043  -2.089   1.186  0.00  0.00    +0.034 A 
ATOM     12  C   UNL     1      -0.704  -2.555   0.112  0.00  0.00    +0.026 A 
ATOM     13  C   UNL     1       1.561   1.052  -0.268  0.00  0.00    +0.044 C 
ENDBRANCH   2  11
ENDBRANCH   1   3
BRANCH   1  14
ATOM     14  N   UNL     1       0.370  -1.959   5.973  0.00  0.00    -0.302 N 
ATOM     15  C   UNL     1       0.976  -2.329   7.118  0.00  0.00    +0.231 C 
ATOM     16  O   UNL     1       1.447  -3.442   7.222  0.00  0.00    -0.274 OA
ATOM     17  H   UNL     1      -0.007  -1.069   5.889  0.00  0.00    +0.150 HD
BRANCH  15  18
ATOM     18  C   UNL     1       1.068  -1.361   8.269  0.00  0.00    +0.145 C 
ATOM     19  C   UNL     1       2.222  -0.387   8.030  0.00  0.00    +0.063 C 
ATOM     20  C   UNL     1       2.477   0.424   9.274  0.00  0.00    -0.041 A 
ATOM     21  C   UNL     1       3.223   1.588   9.164  0.00  0.00    +0.004 A 
ATOM     22  C   UNL     1       3.483   2.358  10.279  0.00  0.00    +0.000 A 
ATOM     23  C   UNL     1       2.997   1.967  11.514  0.00  0.00    +0.000 A 
ATOM     24  C   UNL     1       2.253   0.810  11.624  0.00  0.00    +0.005 A 
ATOM     25  C   UNL     1       1.989   0.036  10.504  0.00  0.00    -0.030 A 
ATOM     26  C   UNL     1       1.164  -1.212  10.673  0.00  0.00    +0.117 C 
ATOM     27  N   UNL     1       1.324  -2.098   9.516  0.00  0.00    -0.301 NA
ATOM     28  H   UNL     1       0.722  -2.905   9.590  0.00  0.00    +0.123 HD
ENDBRANCH  15  18
ENDBRANCH   1  14
BRANCH   1  29
ATOM     29  C   UNL     1      -0.945  -3.798   5.040  0.00  0.00    +0.065 C 
BRANCH  29  30
ATOM     30  C   UNL     1      -0.759  -4.653   6.266  0.00  0.00    -0.039 C 
ATOM     31  C   UNL     1      -1.214  -4.396   7.514  0.00  0.00    -0.001 A 
ATOM     32  C   UNL     1      -1.988  -3.285   8.080  0.00  0.00    +0.010 A 
ATOM     33  C   UNL     1      -2.300  -3.307   9.396  0.00  0.00    +0.001 A 
ATOM     34  C   UNL     1      -1.904  -4.361  10.230  0.00  0.00    +0.002 A 
ATOM     35  C   UNL     1      -1.191  -5.416   9.783  0.00  0.00    +0.026 A 
ATOM     36  C   UNL     1      -0.808  -5.497   8.416  0.00  0.00    +0.043 A 
ATOM     37  N   UNL     1      -0.128  -6.401   7.752  0.00  0.00    -0.380 N 
ATOM     38  C   UNL     1      -0.031  -5.976   6.351  0.00  0.00    +0.144 C 
ATOM     39  H   UNL     1       0.245  -7.215   8.124  0.00  0.00    +0.160 HD
ENDBRANCH  29  30
ENDBRANCH   1  29
TORSDOF 6
