REMARK  Name = ZINC61537607
REMARK  3 active torsions:
REMARK  status: ('A' for Active; 'I' for Inactive)
REMARK    1  A    between atoms: C_1  and  C_2
REMARK    2  A    between atoms: C_2  and  C_4
REMARK    3  A    between atoms: C_2  and  N_10
REMARK                            x       y       z     vdW  Elec       q    Type
REMARK                         _______ _______ _______ _____ _____    ______ ____
ROOT
ATOM      1  N   UNL     1       0.688  -0.476  -1.203  0.00  0.00    -0.308 N 
ATOM      2  C   UNL     1       2.063  -0.590  -1.215  0.00  0.00    +0.221 A 
ATOM      3  N   UNL     1       2.686  -1.013  -2.310  0.00  0.00    -0.181 NA
ATOM      4  C   UNL     1       4.010  -1.120  -2.318  0.00  0.00    +0.223 A 
ATOM      5  N   UNL     1       4.709  -0.803  -1.230  0.00  0.00    -0.184 NA
ATOM      6  C   UNL     1       4.085  -0.382  -0.141  0.00  0.00    +0.229 A 
ATOM      7  N   UNL     1       2.767  -0.270  -0.132  0.00  0.00    -0.184 NA
ATOM      8 CL   UNL     1       5.000   0.029   1.276  0.00  0.00    -0.041 Cl
ATOM      9  N   UNL     1       4.661  -1.560  -3.452  0.00  0.00    -0.299 N 
ATOM     10  C   UNL     1       4.016  -1.935  -4.719  0.00  0.00    +0.108 C 
ATOM     11  C   UNL     1       5.132  -2.385  -5.686  0.00  0.00    +0.020 C 
ATOM     12  C   UNL     1       6.287  -2.775  -4.726  0.00  0.00    +0.020 C 
ATOM     13  C   UNL     1       6.119  -1.724  -3.597  0.00  0.00    +0.108 C 
ATOM     14  H   UNL     1       0.175  -0.710  -1.993  0.00  0.00    +0.149 HD
ENDROOT
BRANCH   1  16
ATOM     15  C   UNL     1      -0.019   1.526   0.010  0.00  0.00    +0.030 C 
ATOM     16  C   UNL     1       0.002  -0.004   0.002  0.00  0.00    +0.099 C 
BRANCH  16  17
ATOM     17  C   UNL     1      -1.433  -0.534   0.013  0.00  0.00    +0.138 C 
ATOM     18  C   UNL     1      -1.422  -2.077  -0.000  0.00  0.00    +0.035 C 
ATOM     19  C   UNL     1      -2.607  -2.408  -0.948  0.00  0.00    +0.031 C 
ATOM     20  C   UNL     1      -2.518  -1.230  -1.952  0.00  0.00    +0.160 C 
ATOM     21  O   UNL     1      -2.122  -0.094  -1.163  0.00  0.00    -0.375 OA
ENDBRANCH  16  17
ENDBRANCH   1  16
TORSDOF 2
