REMARK  Name = ZINC20080950
REMARK  10 active torsions:
REMARK  status: ('A' for Active; 'I' for Inactive)
REMARK    1  A    between atoms: C_1  and  C_2
REMARK    2  A    between atoms: C_2  and  C_3
REMARK    3  A    between atoms: C_3  and  N_4
REMARK    4  A    between atoms: N_7  and  C_10
REMARK    5  A    between atoms: C_10  and  C_12
REMARK    6  A    between atoms: C_10  and  C_27
REMARK    7  A    between atoms: N_31  and  C_32
REMARK    8  A    between atoms: C_32  and  C_33
REMARK    9  A    between atoms: C_36  and  O_39
REMARK   10  A    between atoms: O_39  and  C_40
REMARK                            x       y       z     vdW  Elec       q    Type
REMARK                         _______ _______ _______ _____ _____    ______ ____
ROOT
ATOM      1  C   UNL     1      -1.701  -0.458   0.262  0.00  0.00    +0.162 C 
ENDROOT
BRANCH   1   2
ATOM      2  C   UNL     1      -0.568   0.513   0.056  0.00  0.00    +0.042 A 
ATOM      3  C   UNL     1      -0.000   1.128   1.125  0.00  0.00    +0.021 A 
ATOM      4  C   UNL     1       1.097   2.065   0.892  0.00  0.00    +0.003 A 
ATOM      5  C   UNL     1       1.721   2.727   1.957  0.00  0.00    +0.059 A 
ATOM      6  C   UNL     1       2.753   3.603   1.707  0.00  0.00    +0.167 A 
ATOM      7  C   UNL     1       3.179   3.835   0.392  0.00  0.00    +0.168 A 
ATOM      8  C   UNL     1       2.569   3.186  -0.665  0.00  0.00    +0.075 A 
ATOM      9  C   UNL     1       1.527   2.298  -0.429  0.00  0.00    +0.053 A 
ATOM     10  N   UNL     1       0.908   1.641  -1.473  0.00  0.00    -0.322 N 
ATOM     11  H   UNL     1       1.238   1.817  -2.507  0.00  0.00    +0.169 HD
ATOM     12  C   UNL     1      -0.100   0.780  -1.247  0.00  0.00    +0.254 A 
ATOM     13  O   UNL     1      -0.620   0.212  -2.193  0.00  0.00    -0.268 OA
ATOM     14  O   UNL     1       4.204   4.735   0.422  0.00  0.00    -0.453 OA
ATOM     15  C   UNL     1       4.674   4.740   1.782  0.00  0.00    +0.466 C 
ATOM     16  O   UNL     1       3.516   4.361   2.549  0.00  0.00    -0.453 OA
ENDBRANCH   1   2
BRANCH   1  20
ATOM     17  N   UNL     1      -5.545   0.833  -0.924  0.00  0.00    +0.381 N 
ATOM     18  C   UNL     1      -5.140  -0.536  -1.273  0.00  0.00    -0.063 C 
ATOM     19  C   UNL     1      -3.982  -0.969  -0.369  0.00  0.00    +0.067 C 
ATOM     20  N   UNL     1      -2.861  -0.034  -0.533  0.00  0.00    -0.292 NA
ATOM     21  C   UNL     1      -3.265   1.335  -0.184  0.00  0.00    +0.067 C 
ATOM     22  C   UNL     1      -4.423   1.768  -1.088  0.00  0.00    -0.063 C 
ATOM     23  H   UNL     1      -5.841   0.840   0.135  0.00  0.00    -0.082 HD
BRANCH  17  24
ATOM     24  C   UNL     1      -6.704   1.257  -1.719  0.00  0.00    -0.079 C 
BRANCH  24  26
ATOM     25  C   UNL     1      -8.150   3.197  -2.343  0.00  0.00    +0.002 C 
ATOM     26  C   UNL     1      -6.942   2.755  -1.515  0.00  0.00    -0.022 C 
ENDBRANCH  24  26
ENDBRANCH  17  24
ENDBRANCH   1  20
BRANCH   1  27
ATOM     27  C   UNL     1      -2.076  -0.489   1.721  0.00  0.00    +0.173 A 
ATOM     28  N   UNL     1      -2.684   0.458   2.393  0.00  0.00    -0.111 NA
ATOM     29  N   UNL     1      -2.826   0.055   3.609  0.00  0.00    -0.023 NA
ATOM     30  N   UNL     1      -2.326  -1.125   3.729  0.00  0.00    -0.044 NA
ATOM     31  N   UNL     1      -1.858  -1.498   2.586  0.00  0.00    -0.223 N 
BRANCH  31  32
ATOM     32  C   UNL     1      -1.208  -2.776   2.286  0.00  0.00    +0.182 C 
BRANCH  32  33
ATOM     33  C   UNL     1       0.260  -2.682   2.613  0.00  0.00    -0.026 A 
ATOM     34  C   UNL     1       1.167  -2.345   1.626  0.00  0.00    +0.009 A 
ATOM     35  C   UNL     1       2.512  -2.253   1.924  0.00  0.00    +0.046 A 
ATOM     36  C   UNL     1       2.955  -2.510   3.214  0.00  0.00    +0.120 A 
ATOM     37  C   UNL     1       2.043  -2.854   4.202  0.00  0.00    +0.046 A 
ATOM     38  C   UNL     1       0.698  -2.940   3.899  0.00  0.00    +0.009 A 
BRANCH  36  39
ATOM     39  O   UNL     1       4.278  -2.426   3.509  0.00  0.00    -0.495 OA
ATOM     40  C   UNL     1       5.159  -2.066   2.443  0.00  0.00    +0.277 C 
ENDBRANCH  36  39
ENDBRANCH  32  33
ENDBRANCH  31  32
ENDBRANCH   1  27
TORSDOF 8
