REMARK  Name = ZINC54641480
REMARK  14 active torsions:
REMARK  status: ('A' for Active; 'I' for Inactive)
REMARK    1  A    between atoms: C_1  and  C_2
REMARK    2  A    between atoms: C_2  and  O_3
REMARK    3  A    between atoms: O_3  and  C_4
REMARK    4  A    between atoms: C_6  and  C_21
REMARK    5  A    between atoms: C_9  and  O_10
REMARK    6  A    between atoms: O_10  and  C_11
REMARK    7  A    between atoms: C_11  and  C_12
REMARK    8  A    between atoms: C_14  and  C_20
REMARK    9  A    between atoms: C_15  and  C_19
REMARK   10  A    between atoms: C_17  and  C_18
REMARK   11  A    between atoms: C_23  and  C_32
REMARK   12  A    between atoms: C_24  and  C_31
REMARK   13  A    between atoms: C_32  and  O_34
REMARK   14  A    between atoms: O_34  and  C_35
REMARK                            x       y       z     vdW  Elec       q    Type
REMARK                         _______ _______ _______ _____ _____    ______ ____
ROOT
ATOM      1  C   UNL     1       0.738  -1.729  -1.096  0.00  0.00    +0.162 A 
ATOM      2  C   UNL     1       0.124  -2.641  -0.252  0.00  0.00    +0.055 A 
ATOM      3  C   UNL     1       0.326  -3.996  -0.433  0.00  0.00    -0.015 A 
ATOM      4  C   UNL     1       1.141  -4.446  -1.456  0.00  0.00    +0.010 A 
ATOM      5  C   UNL     1       1.757  -3.542  -2.301  0.00  0.00    +0.050 A 
ATOM      6  C   UNL     1       1.553  -2.182  -2.129  0.00  0.00    +0.162 A 
ENDROOT
BRANCH   3   7
ATOM      7  C   UNL     1      -0.342  -4.986   0.485  0.00  0.00    +0.181 C 
ATOM      8  C   UNL     1       0.707  -5.807   1.188  0.00  0.00    +0.082 C 
ATOM      9  C   UNL     1       0.939  -7.098   0.903  0.00  0.00    +0.020 C 
ATOM     10  N   UNL     1       0.223  -7.779  -0.051  0.00  0.00    -0.286 N 
ATOM     11  C   UNL     1      -0.925  -7.173  -0.540  0.00  0.00    +0.240 A 
ATOM     12  N   UNL     1      -1.206  -5.866  -0.293  0.00  0.00    -0.201 N 
ATOM     13  N   UNL     1      -2.422  -5.619  -0.926  0.00  0.00    -0.042 NA
ATOM     14  N   UNL     1      -2.777  -6.729  -1.488  0.00  0.00    -0.021 NA
ATOM     15  N   UNL     1      -1.897  -7.646  -1.266  0.00  0.00    -0.092 NA
ATOM     16  C   UNL     1       2.022  -7.826   1.656  0.00  0.00    +0.061 C 
ATOM     17  H   UNL     1       0.510  -8.649  -0.371  0.00  0.00    +0.155 HD
BRANCH   8  18
ATOM     18  C   UNL     1       1.483  -5.190   2.193  0.00  0.00    +0.339 C 
ATOM     19  O   UNL     1       1.035  -5.065   3.318  0.00  0.00    -0.245 OA
BRANCH  18  20
ATOM     20  O   UNL     1       2.722  -4.738   1.907  0.00  0.00    -0.458 OA
BRANCH  20  21
ATOM     21  C   UNL     1       3.451  -4.124   2.972  0.00  0.00    +0.177 C 
ATOM     22  C   UNL     1       3.160  -2.622   2.990  0.00  0.00    +0.044 C 
ATOM     23  C   UNL     1       3.941  -1.965   4.130  0.00  0.00    +0.004 C 
ATOM     24  C   UNL     1       5.439  -2.192   3.919  0.00  0.00    +0.000 C 
ATOM     25  C   UNL     1       5.730  -3.694   3.901  0.00  0.00    +0.004 C 
ATOM     26  C   UNL     1       4.950  -4.351   2.761  0.00  0.00    +0.044 C 
ENDBRANCH  20  21
ENDBRANCH  18  20
ENDBRANCH   8  18
ENDBRANCH   3   7
BRANCH   1  27
ATOM     27  O   UNL     1       0.539  -0.396  -0.919  0.00  0.00    -0.489 OA
BRANCH  27  29
ATOM     28  C   UNL     1      -0.412   1.522   0.202  0.00  0.00    +0.048 C 
ATOM     29  C   UNL     1      -0.310  -0.004   0.162  0.00  0.00    +0.226 C 
ENDBRANCH  27  29
ENDBRANCH   1  27
BRANCH   6  30
ATOM     30  O   UNL     1       2.154  -1.292  -2.963  0.00  0.00    -0.484 OA
BRANCH  30  31
ATOM     31  C   UNL     1       2.977  -1.828  -4.001  0.00  0.00    +0.265 C 
BRANCH  31  32
ATOM     32  C   UNL     1       3.553  -0.701  -4.818  0.00  0.00    -0.007 A 
ATOM     33  C   UNL     1       3.252   0.610  -4.497  0.00  0.00    +0.010 A 
ATOM     34  C   UNL     1       3.781   1.643  -5.247  0.00  0.00    -0.047 A 
ATOM     35  C   UNL     1       4.611   1.367  -6.318  0.00  0.00    -0.047 A 
ATOM     36  C   UNL     1       4.912   0.056  -6.638  0.00  0.00    +0.007 A 
ATOM     37  C   UNL     1       4.386  -0.978  -5.886  0.00  0.00    -0.044 A 
ATOM     38  C   UNL     1       4.719  -2.406  -6.232  0.00  0.00    +0.044 C 
ATOM     39  C   UNL     1       5.186   2.494  -7.136  0.00  0.00    +0.044 C 
ATOM     40  C   UNL     1       3.452   3.072  -4.898  0.00  0.00    +0.044 C 
ENDBRANCH  31  32
ENDBRANCH  30  31
ENDBRANCH   6  30
TORSDOF 9
