REMARK  Name = ZINC36348076
REMARK  5 active torsions:
REMARK  status: ('A' for Active; 'I' for Inactive)
REMARK    1  A    between atoms: C_1  and  C_2
REMARK    2  A    between atoms: C_2  and  C_3
REMARK    3  A    between atoms: C_6  and  C_9
REMARK    4  A    between atoms: N_19  and  C_20
REMARK    5  A    between atoms: C_20  and  C_21
REMARK                            x       y       z     vdW  Elec       q    Type
REMARK                         _______ _______ _______ _____ _____    ______ ____
ROOT
ATOM      1  C   UNL     1      -5.457  -2.122   0.133  0.00  0.00    +0.011 C 
ATOM      2  C   UNL     1      -6.390  -0.936   0.082  0.00  0.00    +0.009 A 
ATOM      3  C   UNL     1      -6.205   0.249   0.694  0.00  0.00    +0.021 A 
ATOM      4  C   UNL     1      -7.319   1.058   0.395  0.00  0.00    +0.019 A 
ATOM      5  C   UNL     1      -8.142   0.336  -0.394  0.00  0.00    +0.086 A 
ATOM      6  N   UNL     1      -7.574  -0.885  -0.597  0.00  0.00    -0.352 N 
ATOM      7  C   UNL     1      -8.118  -1.974  -1.417  0.00  0.00    +0.119 C 
ATOM      8  C   UNL     1      -8.007  -3.287  -0.636  0.00  0.00    +0.003 C 
ATOM      9  C   UNL     1      -6.652  -3.931  -0.904  0.00  0.00    -0.075 C 
ATOM     10  N   UNL     1      -5.614  -2.917  -1.093  0.00  0.00    +0.391 N 
ATOM     11  H   UNL     1      -5.875  -2.309  -1.855  0.00  0.00    -0.080 HD
ENDROOT
BRANCH   1  15
ATOM     12  C   UNL     1      -1.424  -0.748   0.439  0.00  0.00    -0.048 A 
ATOM     13  C   UNL     1      -2.186  -0.414  -0.664  0.00  0.00    +0.004 A 
ATOM     14  C   UNL     1      -3.491  -0.859  -0.764  0.00  0.00    +0.002 A 
ATOM     15  C   UNL     1      -4.034  -1.638   0.241  0.00  0.00    -0.055 A 
ATOM     16  C   UNL     1      -3.272  -1.973   1.345  0.00  0.00    +0.002 A 
ATOM     17  C   UNL     1      -1.965  -1.532   1.442  0.00  0.00    +0.004 A 
BRANCH  12  19
ATOM     18  C   UNL     1       0.937  -1.286  -0.097  0.00  0.00    +0.009 C 
ATOM     19  C   UNL     1      -0.001  -0.264   0.547  0.00  0.00    +0.032 C 
ENDBRANCH  12  19
ENDBRANCH   1  15
BRANCH  10  20
ATOM     20  C   UNL     1      -4.340  -3.576  -1.412  0.00  0.00    -0.042 C 
BRANCH  20  21
ATOM     21  C   UNL     1      -4.472  -4.318  -2.717  0.00  0.00    -0.061 A 
ATOM     22  C   UNL     1      -4.896  -5.634  -2.723  0.00  0.00    +0.002 A 
ATOM     23  C   UNL     1      -5.017  -6.317  -3.919  0.00  0.00    +0.003 A 
ATOM     24  C   UNL     1      -4.715  -5.684  -5.110  0.00  0.00    +0.038 A 
ATOM     25  C   UNL     1      -4.291  -4.366  -5.105  0.00  0.00    +0.124 A 
ATOM     26  C   UNL     1      -4.176  -3.681  -3.907  0.00  0.00    +0.040 A 
ATOM     27  F   UNL     1      -3.995  -3.746  -6.269  0.00  0.00    -0.205 F 
ENDBRANCH  20  21
ENDBRANCH  10  20
TORSDOF 4
