REMARK  Name = ZINC36119137
REMARK  8 active torsions:
REMARK  status: ('A' for Active; 'I' for Inactive)
REMARK    1  A    between atoms: C_1  and  C_2
REMARK    2  A    between atoms: C_2  and  C_3
REMARK    3  A    between atoms: C_8  and  N_9
REMARK    4  A    between atoms: C_10  and  C_12
REMARK    5  A    between atoms: C_15  and  C_18
REMARK    6  A    between atoms: C_18  and  N_19
REMARK    7  A    between atoms: N_19  and  C_20
REMARK    8  A    between atoms: C_24  and  O_25
REMARK                            x       y       z     vdW  Elec       q    Type
REMARK                         _______ _______ _______ _____ _____    ______ ____
ROOT
ATOM      1  C   UNL     1       4.947  -0.219   1.171  0.00  0.00    +0.075 C 
ATOM      2  C   UNL     1       4.793   1.248   1.578  0.00  0.00    +0.013 C 
ATOM      3  C   UNL     1       5.324   2.146   0.459  0.00  0.00    +0.006 C 
ATOM      4  C   UNL     1       6.802   1.837   0.215  0.00  0.00    +0.006 C 
ATOM      5  C   UNL     1       6.956   0.370  -0.192  0.00  0.00    +0.006 C 
ATOM      6  C   UNL     1       6.425  -0.528   0.927  0.00  0.00    +0.013 C 
ENDROOT
BRANCH   1   8
ATOM      7  N   UNL     1       2.833  -0.268  -0.113  0.00  0.00    -0.285 N 
ATOM      8  C   UNL     1       4.165  -0.474  -0.091  0.00  0.00    +0.220 C 
ATOM      9  O   UNL     1       4.734  -0.865  -1.088  0.00  0.00    -0.275 OA
ATOM     10  H   UNL     1       2.388   0.106   0.663  0.00  0.00    +0.155 HD
BRANCH   7  16
ATOM     11  C   UNL     1       0.800  -1.084  -1.129  0.00  0.00    -0.026 A 
ATOM     12  C   UNL     1       0.070  -1.399  -2.259  0.00  0.00    +0.005 A 
ATOM     13  C   UNL     1       0.627  -1.233  -3.513  0.00  0.00    +0.000 A 
ATOM     14  C   UNL     1       1.917  -0.751  -3.641  0.00  0.00    +0.002 A 
ATOM     15  C   UNL     1       2.652  -0.433  -2.516  0.00  0.00    +0.023 A 
ATOM     16  C   UNL     1       2.093  -0.594  -1.255  0.00  0.00    +0.037 A 
BRANCH  11  18
ATOM     17  C   UNL     1      -0.422   0.057   0.702  0.00  0.00    +0.009 C 
ATOM     18  C   UNL     1       0.191  -1.265   0.237  0.00  0.00    +0.033 C 
ENDBRANCH  11  18
ENDBRANCH   7  16
ENDBRANCH   1   8
BRANCH   4  19
ATOM     19  C   UNL     1       7.333   2.735  -0.904  0.00  0.00    +0.105 C 
BRANCH  19  20
ATOM     20  N   UNL     1       8.775   2.524  -1.057  0.00  0.00    -0.339 N 
ATOM     21  H   UNL     1       9.235   1.888  -0.487  0.00  0.00    +0.146 HD
BRANCH  20  22
ATOM     22  C   UNL     1       9.474   3.225  -2.006  0.00  0.00    +0.101 C 
ATOM     23  C   UNL     1      10.887   3.256  -2.424  0.00  0.00    +0.114 C 
ATOM     24  C   UNL     1      10.504   4.279  -3.427  0.00  0.00    +0.247 C 
ATOM     25  O   UNL     1      11.085   4.921  -4.282  0.00  0.00    -0.282 OA
ATOM     26  C   UNL     1       9.126   4.178  -2.952  0.00  0.00    +0.189 C 
ATOM     27  N   UNL     1      11.986   2.651  -2.070  0.00  0.00    -0.362 N 
ATOM     28  C   UNL     1      11.986   1.648  -0.993  0.00  0.00    +0.144 C 
ATOM     29  C   UNL     1      12.694   0.389  -1.506  0.00  0.00    +0.181 C 
ATOM     30  O   UNL     1      13.971   0.750  -2.037  0.00  0.00    -0.376 OA
ATOM     31  C   UNL     1      13.909   1.629  -3.163  0.00  0.00    +0.181 C 
ATOM     32  C   UNL     1      13.263   2.948  -2.739  0.00  0.00    +0.144 C 
BRANCH  26  33
ATOM     33  O   UNL     1       7.963   4.780  -3.300  0.00  0.00    -0.502 OA
ATOM     34  H   UNL     1       8.051   5.419  -4.019  0.00  0.00    +0.292 HD
ENDBRANCH  26  33
ENDBRANCH  20  22
ENDBRANCH  19  20
ENDBRANCH   4  19
TORSDOF 7
