REMARK  Name = ZINC67481923
REMARK  6 active torsions:
REMARK  status: ('A' for Active; 'I' for Inactive)
REMARK    1  A    between atoms: C_1  and  C_2
REMARK    2  A    between atoms: C_4  and  C_7
REMARK    3  A    between atoms: N_15  and  C_16
REMARK    4  A    between atoms: C_16  and  C_17
REMARK    5  A    between atoms: N_22  and  C_23
REMARK    6  A    between atoms: C_23  and  C_24
REMARK                            x       y       z     vdW  Elec       q    Type
REMARK                         _______ _______ _______ _____ _____    ______ ____
ROOT
ATOM      1  C   UNL     1      -0.250  -3.583  -1.255  0.00  0.00    +0.081 C 
ATOM      2  C   UNL     1      -1.420  -4.540  -1.014  0.00  0.00    +0.032 C 
ATOM      3  C   UNL     1      -1.389  -5.654  -2.066  0.00  0.00    +0.110 C 
ATOM      4  N   UNL     1      -0.068  -6.296  -2.034  0.00  0.00    -0.286 N 
ATOM      5  C   UNL     1       1.130  -5.455  -2.166  0.00  0.00    +0.110 C 
ATOM      6  C   UNL     1       1.070  -4.344  -1.113  0.00  0.00    +0.032 C 
ATOM      7  C   UNL     1       0.043  -7.631  -1.887  0.00  0.00    +0.302 C 
ATOM      8  O   UNL     1      -0.949  -8.306  -1.693  0.00  0.00    -0.253 OA
ATOM      9  N   UNL     1       1.254  -8.219  -1.956  0.00  0.00    -0.301 N 
ATOM     10  H   UNL     1       2.053  -7.674  -2.037  0.00  0.00    +0.150 HD
ENDROOT
BRANCH   1  14
ATOM     11  C   UNL     1      -0.535   1.013   0.715  0.00  0.00    +0.091 C 
ATOM     12  C   UNL     1      -0.420  -0.486   0.622  0.00  0.00    +0.169 A 
ATOM     13  N   UNL     1      -0.409  -1.196  -0.512  0.00  0.00    -0.196 NA
ATOM     14  C   UNL     1      -0.298  -2.468  -0.243  0.00  0.00    +0.231 A 
ATOM     15  O   UNL     1      -0.233  -2.611   1.087  0.00  0.00    -0.338 OA
ATOM     16  N   UNL     1      -0.309  -1.302   1.631  0.00  0.00    -0.062 NA
ENDBRANCH   1  14
BRANCH   9  17
ATOM     17  C   UNL     1       1.365  -9.678  -1.906  0.00  0.00    +0.090 C 
BRANCH  17  18
ATOM     18  C   UNL     1       2.837 -10.082  -2.002  0.00  0.00    -0.051 C 
ATOM     19  C   UNL     1       2.954 -11.617  -2.121  0.00  0.00    -0.016 C 
ATOM     20  C   UNL     1       3.101 -11.838  -3.649  0.00  0.00    -0.020 C 
ATOM     21  C   UNL     1       3.941 -10.604  -4.065  0.00  0.00    -0.078 C 
ATOM     22  N   UNL     1       3.440  -9.499  -3.214  0.00  0.00    +0.383 N 
ATOM     23  H   UNL     1       2.744  -8.971  -3.719  0.00  0.00    -0.081 HD
BRANCH  22  24
ATOM     24  C   UNL     1       4.553  -8.617  -2.838  0.00  0.00    -0.075 C 
BRANCH  24  25
ATOM     25  C   UNL     1       5.101  -7.927  -4.089  0.00  0.00    -0.028 C 
ATOM     26  C   UNL     1       6.305  -7.063  -3.708  0.00  0.00    +0.002 C 
ATOM     27  C   UNL     1       6.854  -6.373  -4.958  0.00  0.00    +0.000 C 
ATOM     28  C   UNL     1       5.766  -5.490  -5.573  0.00  0.00    +0.000 C 
ATOM     29  C   UNL     1       4.562  -6.354  -5.954  0.00  0.00    +0.000 C 
ATOM     30  C   UNL     1       4.013  -7.044  -4.703  0.00  0.00    +0.002 C 
ENDBRANCH  24  25
ENDBRANCH  22  24
ENDBRANCH  17  18
ENDBRANCH   9  17
TORSDOF 5
