REMARK  Name = ZINC28059511
REMARK  6 active torsions:
REMARK  status: ('A' for Active; 'I' for Inactive)
REMARK    1  A    between atoms: C_1  and  O_2
REMARK    2  A    between atoms: O_2  and  C_3
REMARK    3  A    between atoms: C_6  and  C_11
REMARK    4  A    between atoms: C_8  and  O_9
REMARK    5  A    between atoms: O_9  and  C_10
REMARK    6  A    between atoms: C_22  and  C_24
REMARK                            x       y       z     vdW  Elec       q    Type
REMARK                         _______ _______ _______ _____ _____    ______ ____
ROOT
ATOM      1  C   UNL     1      -1.778   0.858   1.898  0.00  0.00    +0.174 C 
ATOM      2  C   UNL     1      -0.681   1.657   1.238  0.00  0.00    +0.025 C 
ATOM      3  C   UNL     1      -0.284   2.843   1.703  0.00  0.00    +0.050 C 
ATOM      4  C   UNL     1       0.817   3.544   1.000  0.00  0.00    +0.038 A 
ATOM      5  C   UNL     1       1.061   4.897   1.199  0.00  0.00    +0.013 A 
ATOM      6  C   UNL     1       2.100   5.508   0.523  0.00  0.00    +0.001 A 
ATOM      7  C   UNL     1       2.893   4.779  -0.345  0.00  0.00    +0.004 A 
ATOM      8  C   UNL     1       2.657   3.431  -0.549  0.00  0.00    +0.046 A 
ATOM      9  C   UNL     1       1.621   2.807   0.120  0.00  0.00    +0.131 A 
ATOM     10  O   UNL     1       1.355   1.487  -0.053  0.00  0.00    -0.479 OA
ATOM     11  C   UNL     1      -0.013   1.086   0.008  0.00  0.00    +0.234 C 
ATOM     12  N   UNL     1      -0.874   3.444   2.821  0.00  0.00    -0.282 N 
ATOM     13  C   UNL     1      -2.063   2.901   3.281  0.00  0.00    +0.240 A 
ATOM     14  N   UNL     1      -2.500   1.689   2.850  0.00  0.00    -0.201 N 
ATOM     15  N   UNL     1      -3.712   1.476   3.506  0.00  0.00    -0.042 NA
ATOM     16  N   UNL     1      -3.913   2.514   4.254  0.00  0.00    -0.021 NA
ATOM     17  N   UNL     1      -2.944   3.355   4.125  0.00  0.00    -0.092 NA
ATOM     18  H   UNL     1      -0.393   4.311   3.298  0.00  0.00    +0.155 HD
ENDROOT
BRANCH  11  19
ATOM     19  C   UNL     1      -0.731   1.579  -1.222  0.00  0.00    -0.003 A 
ATOM     20  C   UNL     1      -1.590   0.739  -1.904  0.00  0.00    +0.008 A 
ATOM     21  C   UNL     1      -2.252   1.193  -3.030  0.00  0.00    +0.015 A 
ATOM     22  C   UNL     1      -2.047   2.485  -3.478  0.00  0.00    +0.018 A 
ATOM     23  C   UNL     1      -1.183   3.324  -2.798  0.00  0.00    +0.015 A 
ATOM     24  C   UNL     1      -0.525   2.871  -1.670  0.00  0.00    +0.008 A 
ATOM     25 BR   UNL     1      -2.948   3.104  -5.021  0.00  0.00    -0.050 Br
ENDBRANCH  11  19
BRANCH   1  29
ATOM     26  C   UNL     1      -0.050  -2.470   3.954  0.00  0.00    +0.162 A 
ATOM     27  C   UNL     1       0.300  -1.177   4.307  0.00  0.00    +0.050 A 
ATOM     28  C   UNL     1      -0.256  -0.103   3.636  0.00  0.00    +0.010 A 
ATOM     29  C   UNL     1      -1.170  -0.317   2.621  0.00  0.00    -0.015 A 
ATOM     30  C   UNL     1      -1.523  -1.605   2.264  0.00  0.00    +0.055 A 
ATOM     31  C   UNL     1      -0.965  -2.685   2.928  0.00  0.00    +0.162 A 
BRANCH  26  33
ATOM     32  C   UNL     1       1.433  -3.232   5.650  0.00  0.00    +0.277 C 
ATOM     33  O   UNL     1       0.501  -3.528   4.608  0.00  0.00    -0.491 OA
ENDBRANCH  26  33
BRANCH  31  34
ATOM     34  O   UNL     1      -1.311  -3.953   2.578  0.00  0.00    -0.491 OA
ATOM     35  C   UNL     1      -2.256  -4.097   1.516  0.00  0.00    +0.277 C 
ENDBRANCH  31  34
ENDBRANCH   1  29
TORSDOF 4
