REMARK  Name = ZINC14198892
REMARK  7 active torsions:
REMARK  status: ('A' for Active; 'I' for Inactive)
REMARK    1  A    between atoms: C_1  and  O_2
REMARK    2  A    between atoms: O_2  and  C_3
REMARK    3  A    between atoms: C_7  and  C_9
REMARK    4  A    between atoms: C_10  and  C_11
REMARK    5  A    between atoms: N_16  and  C_19
REMARK    6  A    between atoms: C_19  and  C_20
REMARK    7  A    between atoms: C_26  and  C_31
REMARK                            x       y       z     vdW  Elec       q    Type
REMARK                         _______ _______ _______ _____ _____    ______ ____
ROOT
ATOM      1  C   UNL     1       1.988  -6.124  -3.444  0.00  0.00    +0.240 C 
ATOM      2  O   UNL     1       1.579  -6.804  -2.521  0.00  0.00    -0.271 OA
ATOM      3  N   UNL     1       2.497  -6.716  -4.543  0.00  0.00    -0.296 N 
ATOM      4  C   UNL     1       3.107  -5.916  -5.616  0.00  0.00    +0.123 C 
ATOM      5  C   UNL     1       4.491  -6.496  -5.929  0.00  0.00    +0.104 C 
ATOM      6  N   UNL     1       4.364  -7.930  -6.218  0.00  0.00    -0.292 NA
ATOM      7  C   UNL     1       3.867  -8.668  -5.048  0.00  0.00    +0.104 C 
ATOM      8  C   UNL     1       2.463  -8.178  -4.697  0.00  0.00    +0.123 C 
ENDROOT
BRANCH   1  10
ATOM      9  C   UNL     1       1.328  -4.073  -2.307  0.00  0.00    +0.013 C 
ATOM     10  C   UNL     1       1.928  -4.663  -3.360  0.00  0.00    +0.068 C 
BRANCH   9  15
ATOM     11  C   UNL     1       0.592  -0.608  -1.061  0.00  0.00    +0.121 A 
ATOM     12  C   UNL     1       1.155   0.163  -2.071  0.00  0.00    +0.045 A 
ATOM     13  C   UNL     1       1.770  -0.444  -3.151  0.00  0.00    +0.004 A 
ATOM     14  C   UNL     1       1.830  -1.819  -3.234  0.00  0.00    +0.008 A 
ATOM     15  C   UNL     1       1.267  -2.604  -2.223  0.00  0.00    -0.021 A 
ATOM     16  C   UNL     1       0.651  -1.989  -1.129  0.00  0.00    +0.053 A 
BRANCH  11  18
ATOM     17  C   UNL     1      -0.035   1.423   0.002  0.00  0.00    +0.277 C 
ATOM     18  O   UNL     1      -0.011  -0.005  -0.003  0.00  0.00    -0.495 OA
ENDBRANCH  11  18
ENDBRANCH   9  15
ENDBRANCH   1  10
BRANCH   6  19
ATOM     19  C   UNL     1       5.639  -8.487  -6.689  0.00  0.00    +0.158 C 
BRANCH  19  20
ATOM     20  C   UNL     1       5.416  -9.885  -7.206  0.00  0.00    +0.125 A 
ATOM     21  N   UNL     1       6.469 -10.594  -7.688  0.00  0.00    -0.309 N 
ATOM     22  H   UNL     1       7.351 -10.191  -7.694  0.00  0.00    +0.170 HD
ATOM     23  C   UNL     1       6.312 -11.845  -8.158  0.00  0.00    +0.260 A 
ATOM     24  O   UNL     1       7.268 -12.469  -8.588  0.00  0.00    -0.267 OA
ATOM     25  C   UNL     1       5.008 -12.433  -8.146  0.00  0.00    +0.080 A 
ATOM     26  C   UNL     1       4.587 -13.757  -8.594  0.00  0.00    +0.010 A 
ATOM     27  C   UNL     1       3.279 -14.097  -8.481  0.00  0.00    +0.057 A 
ATOM     28  S   UNL     1       2.536 -12.646  -7.761  0.00  0.00    -0.076 S 
ATOM     29  C   UNL     1       3.982 -11.626  -7.628  0.00  0.00    +0.116 A 
ATOM     30  N   UNL     1       4.214 -10.396  -7.176  0.00  0.00    -0.225 NA
BRANCH  26  31
ATOM     31  C   UNL     1       5.567 -14.707  -9.159  0.00  0.00    +0.021 A 
ATOM     32  C   UNL     1       5.780 -16.021  -8.838  0.00  0.00    +0.016 A 
ATOM     33  C   UNL     1       6.763 -16.716  -9.509  0.00  0.00    +0.008 A 
ATOM     34  C   UNL     1       7.487 -16.081 -10.464  0.00  0.00    +0.046 A 
ATOM     35  S   UNL     1       6.777 -14.444 -10.446  0.00  0.00    -0.097 S 
ENDBRANCH  26  31
ENDBRANCH  19  20
ENDBRANCH   6  19
TORSDOF 6
