REMARK  Name = ZINC25668593
REMARK  9 active torsions:
REMARK  status: ('A' for Active; 'I' for Inactive)
REMARK    1  A    between atoms: C_4  and  C_7
REMARK    2  A    between atoms: C_7  and  C_29
REMARK    3  A    between atoms: N_8  and  N_9
REMARK    4  A    between atoms: C_10  and  C_12
REMARK    5  A    between atoms: C_12  and  O_13
REMARK    6  A    between atoms: O_13  and  C_14
REMARK    7  A    between atoms: C_14  and  C_16
REMARK    8  A    between atoms: C_16  and  O_17
REMARK    9  A    between atoms: O_17  and  C_18
REMARK                            x       y       z     vdW  Elec       q    Type
REMARK                         _______ _______ _______ _____ _____    ______ ____
ROOT
ATOM      1  N   UNL     1       5.854  -0.752   0.643  0.00  0.00    -0.204 N 
ATOM      2  C   UNL     1       6.999  -0.090   0.899  0.00  0.00    +0.270 C 
ATOM      3  O   UNL     1       7.031   1.120   0.821  0.00  0.00    -0.270 OA
ATOM      4  H   UNL     1       5.829  -1.720   0.705  0.00  0.00    +0.177 HD
ENDROOT
BRANCH   1   6
ATOM      5  C   UNL     1       3.563  -0.672   0.148  0.00  0.00    +0.096 C 
ATOM      6  N   UNL     1       4.700  -0.043   0.285  0.00  0.00    -0.179 NA
BRANCH   5  10
ATOM      7  C   UNL     1       0.162   1.390  -1.348  0.00  0.00    +0.000 A 
ATOM      8  C   UNL     1       1.406   1.994  -1.388  0.00  0.00    +0.001 A 
ATOM      9  C   UNL     1       2.514   1.330  -0.904  0.00  0.00    +0.010 A 
ATOM     10  C   UNL     1       2.378   0.047  -0.373  0.00  0.00    +0.002 A 
ATOM     11  C   UNL     1       1.121  -0.557  -0.336  0.00  0.00    +0.010 A 
ATOM     12  C   UNL     1       0.020   0.118  -0.823  0.00  0.00    +0.001 A 
ENDBRANCH   5  10
BRANCH   5  13
ATOM     13  C   UNL     1       3.460  -2.103   0.513  0.00  0.00    +0.002 A 
ATOM     14  C   UNL     1       4.057  -2.572   1.683  0.00  0.00    +0.010 A 
ATOM     15  C   UNL     1       3.958  -3.907   2.018  0.00  0.00    +0.001 A 
ATOM     16  C   UNL     1       3.267  -4.779   1.196  0.00  0.00    +0.000 A 
ATOM     17  C   UNL     1       2.672  -4.320   0.034  0.00  0.00    +0.001 A 
ATOM     18  C   UNL     1       2.760  -2.986  -0.309  0.00  0.00    +0.010 A 
ENDBRANCH   5  13
ENDBRANCH   1   6
BRANCH   2  19
ATOM     19  C   UNL     1       8.241  -0.853   1.283  0.00  0.00    +0.329 C 
BRANCH  19  20
ATOM     20  O   UNL     1       9.315   0.064   1.503  0.00  0.00    -0.453 OA
BRANCH  20  21
ATOM     21  C   UNL     1      10.500  -0.459   1.855  0.00  0.00    +0.346 C 
ATOM     22  O   UNL     1      10.622  -1.655   1.973  0.00  0.00    -0.247 OA
BRANCH  21  23
ATOM     23  C   UNL     1      11.679   0.447   2.103  0.00  0.00    +0.349 C 
BRANCH  23  24
ATOM     24  O   UNL     1      12.816  -0.340   2.461  0.00  0.00    -0.481 OA
BRANCH  24  25
ATOM     25  C   UNL     1      13.972   0.328   2.720  0.00  0.00    +0.122 A 
ATOM     26  C   UNL     1      14.007   1.712   2.636  0.00  0.00    +0.047 A 
ATOM     27  C   UNL     1      15.180   2.392   2.898  0.00  0.00    +0.027 A 
ATOM     28  C   UNL     1      16.325   1.689   3.247  0.00  0.00    +0.037 A 
ATOM     29  C   UNL     1      16.290   0.303   3.331  0.00  0.00    -0.022 A 
ATOM     30  C   UNL     1      15.115  -0.375   3.074  0.00  0.00    +0.051 A 
ATOM     31  C   UNL     1      17.534  -0.457   3.711  0.00  0.00    +0.046 C 
ATOM     32  C   UNL     1      18.763   0.261   3.152  0.00  0.00    +0.101 C 
ATOM     33  C   UNL     1      18.696   1.727   3.487  0.00  0.00    +0.218 C 
ATOM     34  O   UNL     1      19.718   2.332   3.735  0.00  0.00    -0.275 OA
ATOM     35  N   UNL     1      17.517   2.374   3.514  0.00  0.00    -0.285 N 
ATOM     36  H   UNL     1      17.492   3.322   3.720  0.00  0.00    +0.155 HD
ENDBRANCH  24  25
ENDBRANCH  23  24
ENDBRANCH  21  23
ENDBRANCH  20  21
ENDBRANCH  19  20
ENDBRANCH   2  19
TORSDOF 9
