REMARK  Name = ZINC05376819
REMARK  5 active torsions:
REMARK  status: ('A' for Active; 'I' for Inactive)
REMARK    1  A    between atoms: C_1  and  N_2
REMARK    2  A    between atoms: C_6  and  N_29
REMARK    3  A    between atoms: C_11  and  C_13
REMARK    4  A    between atoms: N_21  and  C_28
REMARK    5  A    between atoms: N_24  and  C_27
REMARK                            x       y       z     vdW  Elec       q    Type
REMARK                         _______ _______ _______ _____ _____    ______ ____
ROOT
ATOM      1  C   UNL     1      -0.018   1.461   0.010  0.00  0.00    +0.130 C 
ATOM      2  N   UNL     1       0.002  -0.004   0.002  0.00  0.00    -0.324 N 
ATOM      3  C   UNL     1       0.006  -0.708  -1.207  0.00  0.00    +0.033 A 
ATOM      4  C   UNL     1       0.271  -0.024  -2.389  0.00  0.00    +0.025 A 
ATOM      5  C   UNL     1       0.276  -0.701  -3.592  0.00  0.00    +0.034 A 
ATOM      6  C   UNL     1       0.017  -2.059  -3.621  0.00  0.00    +0.127 A 
ATOM      7  C   UNL     1      -0.246  -2.740  -2.448  0.00  0.00    +0.038 A 
ATOM      8  C   UNL     1      -0.251  -2.070  -1.236  0.00  0.00    -0.023 A 
ATOM      9  C   UNL     1      -0.531  -2.845   0.024  0.00  0.00    +0.065 C 
ATOM     10  C   UNL     1      -0.995  -1.904   1.138  0.00  0.00    +0.150 C 
ATOM     11  C   UNL     1       0.024  -0.757   1.263  0.00  0.00    +0.128 C 
ATOM     12  C   UNL     1      -2.343  -1.339   0.790  0.00  0.00    +0.240 C 
ATOM     13  O   UNL     1      -2.467  -0.698  -0.231  0.00  0.00    -0.274 OA
ATOM     14  N   UNL     1      -3.413  -1.523   1.577  0.00  0.00    -0.228 N 
ATOM     15  C   UNL     1      -3.341  -2.221   2.720  0.00  0.00    +0.317 C 
ATOM     16  O   UNL     1      -4.343  -2.358   3.394  0.00  0.00    -0.252 OA
ATOM     17  N   UNL     1      -2.191  -2.771   3.138  0.00  0.00    -0.228 N 
ATOM     18  C   UNL     1      -1.054  -2.656   2.438  0.00  0.00    +0.240 C 
ATOM     19  O   UNL     1      -0.045  -3.175   2.865  0.00  0.00    -0.274 OA
ATOM     20  C   UNL     1      -2.177  -3.519   4.398  0.00  0.00    +0.143 C 
ATOM     21  C   UNL     1      -4.697  -0.944   1.176  0.00  0.00    +0.143 C 
ENDROOT
BRANCH  11  22
ATOM     22  C   UNL     1       1.403  -1.317   1.499  0.00  0.00    -0.026 A 
ATOM     23  C   UNL     1       2.130  -1.833   0.442  0.00  0.00    +0.005 A 
ATOM     24  C   UNL     1       3.395  -2.346   0.658  0.00  0.00    +0.000 A 
ATOM     25  C   UNL     1       3.933  -2.344   1.932  0.00  0.00    +0.000 A 
ATOM     26  C   UNL     1       3.207  -1.828   2.988  0.00  0.00    +0.000 A 
ATOM     27  C   UNL     1       1.944  -1.310   2.771  0.00  0.00    +0.005 A 
ENDBRANCH  11  22
BRANCH   6  28
ATOM     28  N   UNL     1       0.020  -2.784  -4.911  0.00  0.00    +0.056 N 
ATOM     29  O   UNL     1       0.250  -2.188  -5.938  0.00  0.00    -0.126 OA
ATOM     30  O   UNL     1      -0.207  -3.971  -4.938  0.00  0.00    -0.126 OA
ENDBRANCH   6  28
TORSDOF 2
