REMARK  Name = ZINC35486633
REMARK  8 active torsions:
REMARK  status: ('A' for Active; 'I' for Inactive)
REMARK    1  A    between atoms: C_1  and  N_2
REMARK    2  A    between atoms: N_2  and  C_3
REMARK    3  A    between atoms: N_2  and  C_4
REMARK    4  A    between atoms: C_4  and  C_5
REMARK    5  A    between atoms: C_5  and  N_6
REMARK    6  A    between atoms: C_7  and  C_23
REMARK    7  A    between atoms: C_27  and  O_29
REMARK    8  A    between atoms: O_29  and  C_30
REMARK                            x       y       z     vdW  Elec       q    Type
REMARK                         _______ _______ _______ _____ _____    ______ ____
ROOT
ATOM      1  N   UNL     1      -4.989  -1.380  -0.963  0.00  0.00    -0.285 N 
ATOM      2  C   UNL     1      -5.074  -2.764  -1.457  0.00  0.00    +0.145 C 
ATOM      3  C   UNL     1      -6.444  -3.240  -1.098  0.00  0.00    +0.072 A 
ATOM      4  C   UNL     1      -7.112  -4.524  -1.334  0.00  0.00    +0.199 A 
ATOM      5  O   UNL     1      -6.533  -5.512  -1.750  0.00  0.00    -0.287 OA
ATOM      6  C   UNL     1      -8.563  -4.505  -1.019  0.00  0.00    +0.065 A 
ATOM      7  C   UNL     1      -9.377  -5.581  -1.375  0.00  0.00    +0.030 A 
ATOM      8  C   UNL     1     -10.722  -5.544  -1.079  0.00  0.00    +0.019 A 
ATOM      9  C   UNL     1     -11.261  -4.441  -0.429  0.00  0.00    +0.019 A 
ATOM     10  C   UNL     1     -10.467  -3.376  -0.071  0.00  0.00    +0.048 A 
ATOM     11  C   UNL     1      -9.102  -3.389  -0.358  0.00  0.00    +0.140 A 
ATOM     12  O   UNL     1      -8.343  -2.333   0.014  0.00  0.00    -0.450 OA
ATOM     13  C   UNL     1      -7.083  -2.222  -0.451  0.00  0.00    +0.199 A 
ATOM     14  C   UNL     1      -6.163  -1.074  -0.373  0.00  0.00    +0.283 C 
ATOM     15  O   UNL     1      -6.424  -0.006   0.145  0.00  0.00    -0.267 OA
ATOM     16 BR   UNL     1     -11.835  -6.996  -1.557  0.00  0.00    -0.050 Br
ENDROOT
BRANCH   2  17
ATOM     17  C   UNL     1      -4.032  -3.620  -0.786  0.00  0.00    -0.019 A 
ATOM     18  C   UNL     1      -3.767  -3.459   0.562  0.00  0.00    +0.006 A 
ATOM     19  C   UNL     1      -2.812  -4.243   1.180  0.00  0.00    +0.004 A 
ATOM     20  C   UNL     1      -2.118  -5.191   0.452  0.00  0.00    +0.046 A 
ATOM     21  C   UNL     1      -2.381  -5.355  -0.900  0.00  0.00    +0.129 A 
ATOM     22  C   UNL     1      -3.345  -4.570  -1.517  0.00  0.00    +0.052 A 
BRANCH  21  23
ATOM     23  O   UNL     1      -1.700  -6.286  -1.618  0.00  0.00    -0.456 OA
BRANCH  23  24
ATOM     24  C   UNL     1      -1.984  -6.404  -2.942  0.00  0.00    +0.128 A 
ATOM     25  C   UNL     1      -1.285  -5.649  -3.873  0.00  0.00    +0.046 A 
ATOM     26  C   UNL     1      -1.577  -5.772  -5.218  0.00  0.00    +0.004 A 
ATOM     27  C   UNL     1      -2.564  -6.645  -5.636  0.00  0.00    +0.000 A 
ATOM     28  C   UNL     1      -3.261  -7.399  -4.710  0.00  0.00    +0.004 A 
ATOM     29  C   UNL     1      -2.970  -7.285  -3.364  0.00  0.00    +0.046 A 
ENDBRANCH  23  24
ENDBRANCH  21  23
ENDBRANCH   2  17
BRANCH   1  30
ATOM     30  C   UNL     1      -3.830  -0.492  -1.084  0.00  0.00    +0.090 C 
BRANCH  30  31
ATOM     31  C   UNL     1      -2.921  -0.670   0.133  0.00  0.00    -0.060 C 
BRANCH  31  33
ATOM     32  C   UNL     1      -2.205   1.618   0.061  0.00  0.00    -0.097 C 
ATOM     33  N   UNL     1      -1.759   0.220   0.011  0.00  0.00    +0.377 N 
ATOM     34  C   UNL     1      -0.827  -0.037   1.118  0.00  0.00    -0.097 C 
ATOM     35  H   UNL     1      -1.293   0.046  -0.867  0.00  0.00    -0.083 HD
ENDBRANCH  31  33
ENDBRANCH  30  31
ENDBRANCH   1  30
TORSDOF 6
