REMARK  Name = ZINC21599669
REMARK  12 active torsions:
REMARK  status: ('A' for Active; 'I' for Inactive)
REMARK    1  A    between atoms: C_1  and  C_2
REMARK    2  A    between atoms: C_2  and  C_3
REMARK    3  A    between atoms: C_6  and  C_9
REMARK    4  A    between atoms: C_9  and  N_10
REMARK    5  A    between atoms: C_11  and  N_15
REMARK    6  A    between atoms: C_16  and  C_18
REMARK    7  A    between atoms: C_18  and  C_20
REMARK    8  A    between atoms: C_18  and  S_21
REMARK    9  A    between atoms: S_21  and  C_22
REMARK   10  A    between atoms: C_22  and  C_23
REMARK   11  A    between atoms: C_29  and  C_35
REMARK   12  A    between atoms: C_30  and  C_34
REMARK                            x       y       z     vdW  Elec       q    Type
REMARK                         _______ _______ _______ _____ _____    ______ ____
ROOT
ATOM      1  N   UNL     1       5.441  -0.438   4.454  0.00  0.00    -0.270 N 
ATOM      2  C   UNL     1       6.576   0.289   4.442  0.00  0.00    +0.231 C 
ATOM      3  O   UNL     1       6.717   1.207   5.222  0.00  0.00    -0.274 OA
ATOM      4  H   UNL     1       5.329  -1.173   3.830  0.00  0.00    +0.156 HD
ENDROOT
BRANCH   1   6
ATOM      5  N   UNL     1       3.245  -0.778   5.486  0.00  0.00    -0.246 N 
ATOM      6  C   UNL     1       4.429  -0.135   5.364  0.00  0.00    +0.124 A 
ATOM      7  C   UNL     1       4.452   0.861   6.291  0.00  0.00    +0.065 A 
ATOM      8  C   UNL     1       3.246   0.819   6.995  0.00  0.00    +0.136 A 
ATOM      9  N   UNL     1       2.521  -0.157   6.512  0.00  0.00    -0.178 NA
BRANCH   5  10
ATOM     10  C   UNL     1       2.797  -1.919   4.683  0.00  0.00    +0.180 C 
BRANCH  10  14
ATOM     11  C   UNL     1       0.731  -0.503   1.223  0.00  0.00    -0.048 A 
ATOM     12  C   UNL     1       2.097  -0.710   1.176  0.00  0.00    +0.004 A 
ATOM     13  C   UNL     1       2.766  -1.167   2.296  0.00  0.00    +0.006 A 
ATOM     14  C   UNL     1       2.068  -1.419   3.463  0.00  0.00    -0.026 A 
ATOM     15  C   UNL     1       0.702  -1.212   3.510  0.00  0.00    +0.006 A 
ATOM     16  C   UNL     1       0.034  -0.750   2.391  0.00  0.00    +0.004 A 
BRANCH  11  18
ATOM     17  C   UNL     1      -0.019   1.526   0.010  0.00  0.00    +0.009 C 
ATOM     18  C   UNL     1       0.002  -0.004   0.002  0.00  0.00    +0.032 C 
ENDBRANCH  11  18
ENDBRANCH  10  14
ENDBRANCH   5  10
ENDBRANCH   1   6
BRANCH   2  19
ATOM     19  C   UNL     1       7.670  -0.039   3.458  0.00  0.00    +0.130 C 
ATOM     20  C   UNL     1       7.383   0.657   2.126  0.00  0.00    +0.029 C 
BRANCH  19  21
ATOM     21  S   UNL     1       9.262   0.537   4.111  0.00  0.00    -0.141 S 
BRANCH  21  22
ATOM     22  C   UNL     1      10.474  -0.060   2.901  0.00  0.00    +0.144 C 
BRANCH  22  23
ATOM     23  C   UNL     1      11.858   0.356   3.329  0.00  0.00    +0.121 A 
ATOM     24  N   UNL     1      12.924   0.016   2.560  0.00  0.00    -0.310 N 
ATOM     25  H   UNL     1      12.780  -0.490   1.745  0.00  0.00    +0.170 HD
ATOM     26  C   UNL     1      14.177   0.368   2.905  0.00  0.00    +0.260 A 
ATOM     27  O   UNL     1      15.123   0.056   2.203  0.00  0.00    -0.267 OA
ATOM     28  C   UNL     1      14.380   1.116   4.110  0.00  0.00    +0.075 A 
ATOM     29  C   UNL     1      15.615   1.607   4.691  0.00  0.00    -0.026 A 
ATOM     30  C   UNL     1      15.569   2.295   5.844  0.00  0.00    -0.008 A 
ATOM     31  S   UNL     1      13.830   2.329   6.235  0.00  0.00    -0.073 S 
ATOM     32  C   UNL     1      13.217   1.420   4.840  0.00  0.00    +0.116 A 
ATOM     33  N   UNL     1      12.010   1.041   4.430  0.00  0.00    -0.226 NA
ATOM     34  C   UNL     1      16.713   2.894   6.620  0.00  0.00    +0.052 C 
ATOM     35  C   UNL     1      16.934   1.349   4.009  0.00  0.00    +0.045 C 
ENDBRANCH  22  23
ENDBRANCH  21  22
ENDBRANCH  19  21
ENDBRANCH   2  19
TORSDOF 8
