REMARK  Name = ZINC44528902
REMARK  5 active torsions:
REMARK  status: ('A' for Active; 'I' for Inactive)
REMARK    1  A    between atoms: C_3  and  S_11
REMARK    2  A    between atoms: C_4  and  N_8
REMARK    3  A    between atoms: S_11  and  N_14
REMARK    4  A    between atoms: C_18  and  C_21
REMARK    5  A    between atoms: C_21  and  N_22
REMARK                            x       y       z     vdW  Elec       q    Type
REMARK                         _______ _______ _______ _____ _____    ______ ____
ROOT
ATOM      1  S   UNL     1       3.829   2.326   0.066  0.00  0.00    +0.063 S 
ATOM      2  O   UNL     1       4.714   1.708  -0.858  0.00  0.00    -0.153 OA
ATOM      3  O   UNL     1       3.473   3.699  -0.023  0.00  0.00    -0.153 OA
ENDROOT
BRANCH   1   6
ATOM      4  C   UNL     1       0.860  -0.227   0.964  0.00  0.00    +0.022 A 
ATOM      5  C   UNL     1       2.040   0.491   1.005  0.00  0.00    +0.032 A 
ATOM      6  C   UNL     1       2.325   1.411   0.013  0.00  0.00    +0.136 A 
ATOM      7  C   UNL     1       1.428   1.614  -1.020  0.00  0.00    +0.154 A 
ATOM      8  C   UNL     1       0.248   0.896  -1.062  0.00  0.00    +0.054 A 
ATOM      9  C   UNL     1      -0.037  -0.025  -0.069  0.00  0.00    +0.043 A 
ATOM     10 CL   UNL     1      -1.519  -0.927  -0.121  0.00  0.00    -0.083 Cl
BRANCH   7  11
ATOM     11  N   UNL     1       1.733   2.600  -2.081  0.00  0.00    +0.058 N 
ATOM     12  O   UNL     1       0.898   2.869  -2.913  0.00  0.00    -0.126 OA
ATOM     13  O   UNL     1       2.816   3.136  -2.115  0.00  0.00    -0.126 OA
ENDBRANCH   7  11
ENDBRANCH   1   6
BRANCH   1  14
ATOM     14  N   UNL     1       4.485   2.104   1.571  0.00  0.00    -0.176 NA
ATOM     15  C   UNL     1       4.064   2.942   2.702  0.00  0.00    +0.109 C 
ATOM     16  C   UNL     1       5.307   3.565   3.344  0.00  0.00    +0.017 C 
ATOM     17  C   UNL     1       6.294   2.456   3.716  0.00  0.00    +0.004 C 
ATOM     18  C   UNL     1       6.726   1.710   2.452  0.00  0.00    -0.013 C 
ATOM     19  C   UNL     1       5.494   1.062   1.801  0.00  0.00    +0.111 C 
BRANCH  18  20
ATOM     20  C   UNL     1       7.738   0.624   2.821  0.00  0.00    -0.082 C 
BRANCH  20  21
ATOM     21  N   UNL     1       8.962   1.250   3.339  0.00  0.00    +0.378 N 
ATOM     22  H   UNL     1       9.629   0.533   3.582  0.00  0.00    -0.090 HD
ATOM     23  H   UNL     1       9.357   1.852   2.632  0.00  0.00    -0.090 HD
ATOM     24  H   UNL     1       8.739   1.795   4.158  0.00  0.00    -0.090 HD
ENDBRANCH  20  21
ENDBRANCH  18  20
ENDBRANCH   1  14
TORSDOF 5
