REMARK  Name = ZINC38582621
REMARK  6 active torsions:
REMARK  status: ('A' for Active; 'I' for Inactive)
REMARK    1  A    between atoms: C_1  and  C_2
REMARK    2  A    between atoms: C_4  and  C_16
REMARK    3  A    between atoms: C_6  and  C_14
REMARK    4  A    between atoms: C_7  and  N_13
REMARK    5  A    between atoms: N_18  and  C_31
REMARK    6  A    between atoms: C_20  and  C_21
REMARK                            x       y       z     vdW  Elec       q    Type
REMARK                         _______ _______ _______ _____ _____    ______ ____
ROOT
ATOM      1  C   UNL     1      -3.212  -0.572  -1.199  0.00  0.00    +0.007 A 
ATOM      2  C   UNL     1      -3.254  -1.656  -2.007  0.00  0.00    +0.119 A 
ATOM      3  N   UNL     1      -3.953  -1.318  -3.114  0.00  0.00    -0.239 N 
ATOM      4  N   UNL     1      -4.353   0.018  -2.979  0.00  0.00    -0.171 NA
ATOM      5  C   UNL     1      -3.914   0.463  -1.829  0.00  0.00    +0.074 A 
ENDROOT
BRANCH   1   9
ATOM      6  C   UNL     1      -0.018   1.503   0.010  0.00  0.00    +0.067 C 
ATOM      7  C   UNL     1       0.002  -0.004   0.002  0.00  0.00    +0.066 C 
ATOM      8  C   UNL     1      -1.064  -0.768   0.003  0.00  0.00    +0.030 C 
ATOM      9  C   UNL     1      -2.536  -0.493   0.145  0.00  0.00    +0.101 C 
ATOM     10  C   UNL     1      -3.065  -1.577   1.066  0.00  0.00    +0.098 C 
ATOM     11  C   UNL     1      -2.303  -2.628   1.436  0.00  0.00    +0.195 C 
ATOM     12  O   UNL     1      -1.023  -2.853   1.091  0.00  0.00    -0.448 OA
ATOM     13  C   UNL     1      -0.529  -2.198  -0.081  0.00  0.00    +0.343 C 
ATOM     14  N   UNL     1       0.921  -1.985  -0.028  0.00  0.00    -0.138 NA
ATOM     15  N   UNL     1       1.127  -0.765  -0.013  0.00  0.00    -0.155 NA
BRANCH  11  16
ATOM     16  N   UNL     1      -2.896  -3.562   2.247  0.00  0.00    -0.329 N 
ATOM     17  H   UNL     1      -3.818  -3.448   2.526  0.00  0.00    +0.145 HD
ATOM     18  H   UNL     1      -2.393  -4.337   2.542  0.00  0.00    +0.145 HD
ENDBRANCH  11  16
BRANCH  10  19
ATOM     19  C   UNL     1      -4.407  -1.482   1.556  0.00  0.00    +0.101 C 
ATOM     20  N   UNL     1      -5.472  -1.407   1.944  0.00  0.00    -0.191 NA
ENDBRANCH  10  19
ENDBRANCH   1   9
BRANCH   5  21
ATOM     21  C   UNL     1      -4.123   1.850  -1.280  0.00  0.00    +0.016 C 
ATOM     22  C   UNL     1      -4.875   1.764   0.050  0.00  0.00    +0.016 C 
ATOM     23  C   UNL     1      -5.088   3.173   0.607  0.00  0.00    -0.010 C 
ATOM     24  C   UNL     1      -5.906   3.998  -0.389  0.00  0.00    +0.007 C 
ATOM     25  C   UNL     1      -5.154   4.083  -1.719  0.00  0.00    -0.010 C 
ATOM     26  C   UNL     1      -4.941   2.675  -2.276  0.00  0.00    +0.016 C 
ATOM     27  C   UNL     1      -3.797   4.754  -1.495  0.00  0.00    +0.007 C 
ATOM     28  C   UNL     1      -2.979   3.929  -0.499  0.00  0.00    -0.010 C 
ATOM     29  C   UNL     1      -3.731   3.843   0.831  0.00  0.00    +0.007 C 
ATOM     30  C   UNL     1      -2.766   2.520  -1.056  0.00  0.00    +0.016 C 
ENDBRANCH   5  21
BRANCH   3  31
ATOM     31  C   UNL     1      -4.229  -2.155  -4.204  0.00  0.00    +0.065 A 
ATOM     32  C   UNL     1      -3.774  -3.467  -4.206  0.00  0.00    +0.028 A 
ATOM     33  C   UNL     1      -4.047  -4.290  -5.281  0.00  0.00    +0.002 A 
ATOM     34  C   UNL     1      -4.772  -3.808  -6.355  0.00  0.00    +0.000 A 
ATOM     35  C   UNL     1      -5.227  -2.502  -6.357  0.00  0.00    +0.002 A 
ATOM     36  C   UNL     1      -4.962  -1.676  -5.282  0.00  0.00    +0.028 A 
ENDBRANCH   3  31
TORSDOF 5
