REMARK  Name = ZINC46919973
REMARK  7 active torsions:
REMARK  status: ('A' for Active; 'I' for Inactive)
REMARK    1  A    between atoms: N_4  and  C_6
REMARK    2  A    between atoms: C_7  and  C_15
REMARK    3  A    between atoms: N_17  and  C_18
REMARK    4  A    between atoms: C_18  and  C_19
REMARK    5  A    between atoms: C_22  and  C_25
REMARK    6  A    between atoms: N_27  and  C_28
REMARK    7  A    between atoms: C_28  and  C_29
REMARK                            x       y       z     vdW  Elec       q    Type
REMARK                         _______ _______ _______ _____ _____    ______ ____
ROOT
ATOM      1  C   UNL     1      -0.494  -2.823  -0.021  0.00  0.00    +0.247 C 
ATOM      2  O   UNL     1      -1.107  -2.790  -1.071  0.00  0.00    -0.270 OA
ATOM      3  N   UNL     1      -1.161  -2.802   1.150  0.00  0.00    -0.307 N 
ATOM      4  H   UNL     1      -0.672  -2.829   1.987  0.00  0.00    +0.149 HD
ENDROOT
BRANCH   1   6
ATOM      5  C   UNL     1       1.742  -1.734  -0.024  0.00  0.00    +0.097 A 
ATOM      6  C   UNL     1       0.972  -2.885  -0.029  0.00  0.00    +0.071 A 
ATOM      7  C   UNL     1       1.675  -4.155  -0.041  0.00  0.00    -0.023 A 
ATOM      8  C   UNL     1       3.021  -4.041  -0.046  0.00  0.00    -0.004 A 
ATOM      9  S   UNL     1       3.324  -2.299  -0.044  0.00  0.00    -0.075 S 
ATOM     10  C   UNL     1       4.018  -5.159  -0.057  0.00  0.00    +0.043 C 
ATOM     11  C   UNL     1       3.290  -6.458   0.319  0.00  0.00    +0.005 C 
ATOM     12  C   UNL     1       2.009  -6.566  -0.512  0.00  0.00    +0.005 C 
ATOM     13  C   UNL     1       0.996  -5.517  -0.049  0.00  0.00    +0.037 C 
BRANCH   5  17
ATOM     14  C   UNL     1      -0.016   1.344   0.009  0.00  0.00    +0.019 A 
ATOM     15  C   UNL     1       1.323   1.786  -0.001  0.00  0.00    +0.019 A 
ATOM     16  C   UNL     1       2.111   0.692  -0.014  0.00  0.00    +0.092 A 
ATOM     17  N   UNL     1       1.306  -0.413  -0.013  0.00  0.00    -0.317 N 
ATOM     18  C   UNL     1       0.002  -0.004   0.002  0.00  0.00    +0.092 A 
ENDBRANCH   5  17
ENDBRANCH   1   6
BRANCH   3  19
ATOM     19  C   UNL     1      -2.625  -2.740   1.158  0.00  0.00    +0.139 C 
BRANCH  19  20
ATOM     20  C   UNL     1      -3.119  -2.729   2.582  0.00  0.00    -0.030 A 
ATOM     21  C   UNL     1      -3.391  -3.923   3.226  0.00  0.00    +0.006 A 
ATOM     22  C   UNL     1      -3.844  -3.919   4.529  0.00  0.00    +0.013 A 
ATOM     23  C   UNL     1      -4.028  -2.708   5.197  0.00  0.00    +0.037 A 
ATOM     24  C   UNL     1      -3.752  -1.507   4.541  0.00  0.00    +0.013 A 
ATOM     25  C   UNL     1      -3.295  -1.525   3.240  0.00  0.00    +0.006 A 
BRANCH  23  26
ATOM     26  C   UNL     1      -4.514  -2.697   6.594  0.00  0.00    +0.244 C 
ATOM     27  O   UNL     1      -4.753  -3.744   7.162  0.00  0.00    -0.270 OA
ATOM     28  N   UNL     1      -4.691  -1.525   7.236  0.00  0.00    -0.303 N 
ATOM     29  H   UNL     1      -4.500  -0.690   6.782  0.00  0.00    +0.150 HD
BRANCH  28  30
ATOM     30  C   UNL     1      -5.172  -1.514   8.620  0.00  0.00    +0.200 C 
BRANCH  30  31
ATOM     31  C   UNL     1      -5.283  -0.091   9.102  0.00  0.00    +0.228 C 
ATOM     32  O   UNL     1      -4.989   0.825   8.362  0.00  0.00    -0.274 OA
ATOM     33  N   UNL     1      -5.709   0.166  10.354  0.00  0.00    -0.328 N 
ATOM     34  H   UNL     1      -5.944  -0.566  10.946  0.00  0.00    +0.145 HD
ATOM     35  H   UNL     1      -5.780   1.082  10.665  0.00  0.00    +0.145 HD
ENDBRANCH  30  31
ENDBRANCH  28  30
ENDBRANCH  23  26
ENDBRANCH  19  20
ENDBRANCH   3  19
TORSDOF 7
