REMARK  Name = ZINC61889161
REMARK  5 active torsions:
REMARK  status: ('A' for Active; 'I' for Inactive)
REMARK    1  A    between atoms: C_1  and  C_2
REMARK    2  A    between atoms: C_6  and  N_20
REMARK    3  A    between atoms: C_7  and  C_8
REMARK    4  A    between atoms: N_10  and  C_11
REMARK    5  A    between atoms: C_16  and  C_18
REMARK                            x       y       z     vdW  Elec       q    Type
REMARK                         _______ _______ _______ _____ _____    ______ ____
ROOT
ATOM      1  C   UNL     1       0.025   0.018   2.493  0.00  0.00    +0.247 C 
ATOM      2  O   UNL     1      -1.027   0.302   3.032  0.00  0.00    -0.270 OA
ATOM      3  N   UNL     1       1.193   0.365   3.069  0.00  0.00    -0.307 N 
ATOM      4  H   UNL     1       2.032   0.138   2.639  0.00  0.00    +0.149 HD
ENDROOT
BRANCH   1  11
ATOM      5  C   UNL     1      -0.018   1.503   0.010  0.00  0.00    +0.044 C 
ATOM      6  C   UNL     1       0.002  -0.004   0.002  0.00  0.00    -0.036 A 
ATOM      7  C   UNL     1       0.006  -0.689  -1.196  0.00  0.00    +0.004 A 
ATOM      8  C   UNL     1       0.025  -2.072  -1.205  0.00  0.00    +0.003 A 
ATOM      9  C   UNL     1       0.040  -2.778  -0.015  0.00  0.00    +0.033 A 
ATOM     10  C   UNL     1       0.037  -2.106   1.189  0.00  0.00    +0.139 A 
ATOM     11  C   UNL     1       0.023  -0.710   1.206  0.00  0.00    +0.070 A 
BRANCH  10  12
ATOM     12  N   UNL     1       0.054  -2.862   2.461  0.00  0.00    +0.057 N 
ATOM     13  O   UNL     1       0.070  -4.071   2.446  0.00  0.00    -0.126 OA
ATOM     14  O   UNL     1       0.051  -2.272   3.516  0.00  0.00    -0.126 OA
ENDBRANCH  10  12
ENDBRANCH   1  11
BRANCH   3  15
ATOM     15  C   UNL     1       1.195   1.086   4.344  0.00  0.00    +0.090 C 
ATOM     16  C   UNL     1       1.098   2.605   4.093  0.00  0.00    +0.023 C 
ATOM     17  C   UNL     1       2.007   3.229   5.181  0.00  0.00    +0.003 C 
ATOM     18  C   UNL     1       3.187   2.229   5.255  0.00  0.00    +0.020 C 
ATOM     19  C   UNL     1       2.522   0.846   5.084  0.00  0.00    +0.112 C 
BRANCH  19  20
ATOM     20  C   UNL     1       2.264   0.243   6.401  0.00  0.00    +0.068 C 
ATOM     21  N   UNL     1       2.064  -0.223   7.418  0.00  0.00    -0.196 NA
ENDBRANCH  19  20
ENDBRANCH   3  15
TORSDOF 4
