REMARK  Name = ZINC09670815
REMARK  7 active torsions:
REMARK  status: ('A' for Active; 'I' for Inactive)
REMARK    1  A    between atoms: C_1  and  C_2
REMARK    2  A    between atoms: C_5  and  S_8
REMARK    3  A    between atoms: S_8  and  N_11
REMARK    4  A    between atoms: N_19  and  C_20
REMARK    5  A    between atoms: C_20  and  C_21
REMARK    6  A    between atoms: C_21  and  C_23
REMARK    7  A    between atoms: C_21  and  N_62
REMARK                            x       y       z     vdW  Elec       q    Type
REMARK                         _______ _______ _______ _____ _____    ______ ____
ROOT
ATOM      1  N   UNL     1       1.455  -2.526   3.650  0.00  0.00    -0.174 NA
ATOM      2  C   UNL     1       1.842  -1.867   4.905  0.00  0.00    +0.128 C 
ATOM      3  C   UNL     1       0.663  -1.018   5.397  0.00  0.00    +0.126 C 
ATOM      4  N   UNL     1       0.183  -0.191   4.282  0.00  0.00    -0.283 N 
ATOM      5  C   UNL     1      -0.210  -0.851   3.028  0.00  0.00    +0.126 C 
ATOM      6  C   UNL     1       0.975  -1.699   2.535  0.00  0.00    +0.128 C 
ATOM      7  C   UNL     1       0.098   1.148   4.407  0.00  0.00    +0.302 C 
ATOM      8  O   UNL     1      -0.384   1.814   3.512  0.00  0.00    -0.253 OA
ATOM      9  N   UNL     1       0.548   1.750   5.527  0.00  0.00    -0.300 N 
ATOM     10  H   UNL     1       0.868   1.214   6.270  0.00  0.00    +0.150 HD
ENDROOT
BRANCH   1  11
ATOM     11  S   UNL     1       1.559  -4.172   3.495  0.00  0.00    +0.061 S 
ATOM     12  O   UNL     1       1.674  -4.442   2.105  0.00  0.00    -0.153 OA
ATOM     13  O   UNL     1       2.528  -4.608   4.439  0.00  0.00    -0.153 OA
BRANCH  11  18
ATOM     14  C   UNL     1      -3.731  -6.469   5.269  0.00  0.00    +0.044 C 
ATOM     15  C   UNL     1      -2.409  -5.895   4.826  0.00  0.00    -0.050 A 
ATOM     16  C   UNL     1      -2.214  -5.552   3.501  0.00  0.00    +0.005 A 
ATOM     17  C   UNL     1      -1.002  -5.026   3.095  0.00  0.00    +0.029 A 
ATOM     18  C   UNL     1       0.014  -4.842   4.013  0.00  0.00    +0.105 A 
ATOM     19  C   UNL     1      -0.179  -5.190   5.337  0.00  0.00    +0.029 A 
ATOM     20  C   UNL     1      -1.393  -5.712   5.745  0.00  0.00    +0.005 A 
ENDBRANCH  11  18
ENDBRANCH   1  11
BRANCH   9  21
ATOM     21  C   UNL     1       0.554   3.212   5.621  0.00  0.00    +0.095 C 
BRANCH  21  22
ATOM     22  C   UNL     1       1.218   3.635   6.932  0.00  0.00    -0.013 C 
BRANCH  22  28
ATOM     23  C   UNL     1       3.344   3.287   5.824  0.00  0.00    -0.049 C 
ATOM     24  C   UNL     1       4.696   2.579   5.943  0.00  0.00    +0.141 C 
ATOM     25  O   UNL     1       5.354   3.014   7.135  0.00  0.00    -0.383 OA
ATOM     26  C   UNL     1       4.607   2.766   8.329  0.00  0.00    +0.141 C 
ATOM     27  C   UNL     1       3.254   3.478   8.235  0.00  0.00    -0.049 C 
ATOM     28  N   UNL     1       2.545   2.991   7.033  0.00  0.00    +0.389 N 
ATOM     29  H   UNL     1       2.418   1.975   7.108  0.00  0.00    -0.081 HD
ENDBRANCH  22  28
BRANCH  22  30
ATOM     30  C   UNL     1       0.369   3.186   8.093  0.00  0.00    -0.022 A 
ATOM     31  C   UNL     1      -0.504   3.905   8.841  0.00  0.00    +0.009 A 
ATOM     32  C   UNL     1      -1.184   3.275   9.867  0.00  0.00    +0.008 A 
ATOM     33  C   UNL     1      -0.951   1.961  10.101  0.00  0.00    +0.045 A 
ATOM     34  S   UNL     1       0.256   1.571   8.845  0.00  0.00    -0.103 S 
ENDBRANCH  22  30
ENDBRANCH  21  22
ENDBRANCH   9  21
TORSDOF 6
