REMARK  Name = ZINC03328309
REMARK  6 active torsions:
REMARK  status: ('A' for Active; 'I' for Inactive)
REMARK    1  A    between atoms: C_8  and  N_21
REMARK    2  A    between atoms: C_9  and  N_11
REMARK    3  A    between atoms: N_11  and  S_12
REMARK    4  A    between atoms: S_12  and  C_15
REMARK    5  A    between atoms: N_21  and  C_22
REMARK    6  A    between atoms: C_25  and  O_28
REMARK                            x       y       z     vdW  Elec       q    Type
REMARK                         _______ _______ _______ _____ _____    ______ ____
ROOT
ATOM      1  C   UNL     1       5.491  -3.571   4.091  0.00  0.00    +0.002 A 
ATOM      2  C   UNL     1       5.079  -3.723   2.770  0.00  0.00    +0.002 A 
ATOM      3  C   UNL     1       4.789  -2.638   1.999  0.00  0.00    +0.030 A 
ATOM      4  C   UNL     1       4.906  -1.347   2.540  0.00  0.00    +0.091 A 
ATOM      5  C   UNL     1       5.325  -1.193   3.883  0.00  0.00    +0.091 A 
ATOM      6  C   UNL     1       5.616  -2.334   4.648  0.00  0.00    +0.030 A 
ATOM      7  N   UNL     1       5.440   0.035   4.408  0.00  0.00    -0.227 NA
ATOM      8  C   UNL     1       5.162   1.091   3.671  0.00  0.00    +0.165 A 
ATOM      9  C   UNL     1       4.742   0.937   2.328  0.00  0.00    +0.179 A 
ATOM     10  N   UNL     1       4.620  -0.264   1.802  0.00  0.00    -0.226 NA
ENDROOT
BRANCH   9  11
ATOM     11  N   UNL     1       4.452   2.057   1.564  0.00  0.00    -0.196 N 
ATOM     12  H   UNL     1       4.536   2.943   1.950  0.00  0.00    +0.175 HD
BRANCH  11  13
ATOM     13  S   UNL     1       3.960   1.882  -0.007  0.00  0.00    +0.080 S 
ATOM     14  O   UNL     1       4.880   0.991  -0.624  0.00  0.00    -0.149 OA
ATOM     15  O   UNL     1       3.718   3.191  -0.505  0.00  0.00    -0.149 OA
BRANCH  13  16
ATOM     16  C   UNL     1       2.403   1.058   0.022  0.00  0.00    +0.147 A 
ATOM     17  C   UNL     1       1.158   1.589   0.087  0.00  0.00    +0.038 A 
ATOM     18  C   UNL     1       0.066   0.741   0.098  0.00  0.00    +0.030 A 
ATOM     19  C   UNL     1       0.275  -0.599   0.045  0.00  0.00    +0.080 A 
ATOM     20  S   UNL     1       2.057  -0.692  -0.025  0.00  0.00    -0.057 S 
ATOM     21 CL   UNL     1      -0.888  -1.887   0.044  0.00  0.00    -0.076 Cl
ENDBRANCH  13  16
ENDBRANCH  11  13
ENDBRANCH   9  11
BRANCH   8  22
ATOM     22  N   UNL     1       5.280   2.362   4.215  0.00  0.00    -0.297 N 
ATOM     23  H   UNL     1       5.154   3.143   3.654  0.00  0.00    +0.154 HD
BRANCH  22  24
ATOM     24  C   UNL     1       5.581   2.517   5.573  0.00  0.00    +0.033 A 
ATOM     25  C   UNL     1       5.109   1.595   6.499  0.00  0.00    +0.027 A 
ATOM     26  C   UNL     1       5.412   1.745   7.838  0.00  0.00    +0.047 A 
ATOM     27  C   UNL     1       6.176   2.823   8.260  0.00  0.00    +0.117 A 
ATOM     28  C   UNL     1       6.642   3.748   7.337  0.00  0.00    +0.047 A 
ATOM     29  C   UNL     1       6.346   3.596   5.997  0.00  0.00    +0.027 A 
BRANCH  27  30
ATOM     30  O   UNL     1       6.468   2.974   9.579  0.00  0.00    -0.507 OA
ATOM     31  H   UNL     1       5.817   3.496  10.069  0.00  0.00    +0.292 HD
ENDBRANCH  27  30
ENDBRANCH  22  24
ENDBRANCH   8  22
TORSDOF 6
