REMARK  Name = ZINC64921284
REMARK  6 active torsions:
REMARK  status: ('A' for Active; 'I' for Inactive)
REMARK    1  A    between atoms: C_5  and  S_8
REMARK    2  A    between atoms: S_8  and  N_11
REMARK    3  A    between atoms: C_15  and  C_17
REMARK    4  A    between atoms: N_19  and  C_20
REMARK    5  A    between atoms: C_20  and  C_21
REMARK    6  A    between atoms: C_21  and  N_22
REMARK                            x       y       z     vdW  Elec       q    Type
REMARK                         _______ _______ _______ _____ _____    ______ ____
ROOT
ATOM      1  N   UNL     1       0.478  -2.596   1.011  0.00  0.00    -0.165 NA
ATOM      2  C   UNL     1       1.413  -2.650   2.150  0.00  0.00    +0.110 C 
ATOM      3  C   UNL     1       0.512  -2.551   3.406  0.00  0.00    +0.019 C 
ATOM      4  C   UNL     1      -0.726  -3.377   2.968  0.00  0.00    +0.031 C 
ATOM      5  C   UNL     1      -0.846  -3.046   1.466  0.00  0.00    +0.165 C 
ENDROOT
BRANCH   5   6
ATOM      6  C   UNL     1      -1.259  -4.278   0.703  0.00  0.00    +0.232 C 
ATOM      7  O   UNL     1      -0.523  -4.744  -0.142  0.00  0.00    -0.274 OA
ATOM      8  N   UNL     1      -2.445  -4.864   0.960  0.00  0.00    -0.316 N 
ATOM      9  H   UNL     1      -3.033  -4.492   1.636  0.00  0.00    +0.149 HD
BRANCH   8  10
ATOM     10  C   UNL     1      -2.847  -6.062   0.219  0.00  0.00    +0.086 C 
BRANCH  10  11
ATOM     11  C   UNL     1      -4.225  -6.521   0.699  0.00  0.00    -0.060 C 
BRANCH  11  12
ATOM     12  N   UNL     1      -4.611  -7.743  -0.018  0.00  0.00    +0.381 N 
ATOM     13  C   UNL     1      -6.028  -8.036   0.274  0.00  0.00    -0.079 C 
ATOM     14  C   UNL     1      -6.585  -8.860  -0.860  0.00  0.00    -0.019 C 
ATOM     15  C   UNL     1      -6.539 -10.365  -0.538  0.00  0.00    -0.002 C 
ATOM     16  C   UNL     1      -5.226 -10.759   0.168  0.00  0.00    -0.002 C 
ATOM     17  C   UNL     1      -4.024 -10.073  -0.430  0.00  0.00    -0.019 C 
ATOM     18  C   UNL     1      -3.745  -8.773   0.353  0.00  0.00    -0.079 C 
ATOM     19  H   UNL     1      -4.514  -7.580  -1.009  0.00  0.00    -0.082 HD
ENDBRANCH  11  12
ENDBRANCH  10  11
ENDBRANCH   8  10
ENDBRANCH   5   6
BRANCH   1  20
ATOM     20  S   UNL     1       0.855  -2.105  -0.525  0.00  0.00    +0.063 S 
ATOM     21  O   UNL     1      -0.209  -2.535  -1.362  0.00  0.00    -0.153 OA
ATOM     22  O   UNL     1       2.205  -2.486  -0.753  0.00  0.00    -0.153 OA
BRANCH  20  27
ATOM     23  C   UNL     1      -0.413   1.707  -0.361  0.00  0.00    +0.049 A 
ATOM     24  C   UNL     1       0.758   2.424  -0.541  0.00  0.00    +0.077 A 
ATOM     25  C   UNL     1       1.967   1.751  -0.717  0.00  0.00    +0.144 A 
ATOM     26  C   UNL     1       1.994   0.368  -0.711  0.00  0.00    +0.077 A 
ATOM     27  C   UNL     1       0.821  -0.344  -0.532  0.00  0.00    +0.127 A 
ATOM     28  C   UNL     1      -0.379   0.323  -0.358  0.00  0.00    +0.069 A 
ATOM     29 CL   UNL     1      -1.846  -0.578  -0.134  0.00  0.00    -0.081 Cl
ATOM     30  O   UNL     1       3.110   2.466  -0.894  0.00  0.00    -0.481 OA
ATOM     31  C   UNL     1       2.989   3.712  -1.585  0.00  0.00    +0.325 C 
ATOM     32  C   UNL     1       1.821   4.487  -1.030  0.00  0.00    +0.255 C 
ATOM     33  O   UNL     1       1.845   5.700  -1.018  0.00  0.00    -0.272 OA
ATOM     34  N   UNL     1       0.747   3.825  -0.547  0.00  0.00    -0.280 N 
ATOM     35  H   UNL     1      -0.021   4.313  -0.209  0.00  0.00    +0.155 HD
ENDBRANCH  20  27
ENDBRANCH   1  20
TORSDOF 6
