REMARK  Name = ZINC12450731
REMARK  7 active torsions:
REMARK  status: ('A' for Active; 'I' for Inactive)
REMARK    1  A    between atoms: C_1  and  C_2
REMARK    2  A    between atoms: C_2  and  C_4
REMARK    3  A    between atoms: C_2  and  C_16
REMARK    4  A    between atoms: N_18  and  C_19
REMARK    5  A    between atoms: C_19  and  C_20
REMARK    6  A    between atoms: C_20  and  N_60
REMARK    7  A    between atoms: C_29  and  C_32
REMARK                            x       y       z     vdW  Elec       q    Type
REMARK                         _______ _______ _______ _____ _____    ______ ____
ROOT
ATOM      1  C   UNL     1      -1.290   1.681   0.017  0.00  0.00    +0.085 C 
ENDROOT
BRANCH   1   4
ATOM      2  C   UNL     1       1.147   1.655   0.000  0.00  0.00    +0.222 C 
ATOM      3  O   UNL     1       1.130   2.868   0.007  0.00  0.00    -0.275 OA
ATOM      4  N   UNL     1      -0.011   0.966   0.007  0.00  0.00    -0.317 N 
ATOM      5  H   UNL     1       0.002  -0.004   0.002  0.00  0.00    +0.149 HD
BRANCH   2   7
ATOM      6  C   UNL     1       2.567   0.035   1.227  0.00  0.00    +0.024 C 
ATOM      7  C   UNL     1       2.462   0.920  -0.017  0.00  0.00    +0.123 C 
BRANCH   7   8
ATOM      8  C   UNL     1       3.594   1.915  -0.022  0.00  0.00    +0.081 A 
ATOM      9  C   UNL     1       4.975   1.450  -0.148  0.00  0.00    +0.011 A 
ATOM     10  C   UNL     1       5.289   0.095  -0.266  0.00  0.00    +0.010 A 
ATOM     11  C   UNL     1       6.596  -0.290  -0.382  0.00  0.00    +0.001 A 
ATOM     12  C   UNL     1       7.619   0.650  -0.384  0.00  0.00    +0.001 A 
ATOM     13  C   UNL     1       7.339   1.994  -0.270  0.00  0.00    +0.014 A 
ATOM     14  C   UNL     1       6.014   2.409  -0.150  0.00  0.00    +0.050 A 
ATOM     15  C   UNL     1       5.651   3.826  -0.025  0.00  0.00    +0.272 A 
ATOM     16  O   UNL     1       6.510   4.689  -0.021  0.00  0.00    -0.266 OA
ATOM     17  N   UNL     1       4.346   4.154   0.087  0.00  0.00    -0.242 N 
ATOM     18  H   UNL     1       4.100   5.089   0.170  0.00  0.00    +0.192 HD
ATOM     19  N   UNL     1       3.342   3.186   0.080  0.00  0.00    -0.175 NA
ENDBRANCH   7   8
ENDBRANCH   2   7
ENDBRANCH   1   4
BRANCH   1  20
ATOM     20  C   UNL     1      -2.439   0.671   0.017  0.00  0.00    -0.059 C 
BRANCH  20  31
ATOM     21  C   UNL     1      -3.914   2.137  -1.220  0.00  0.00    -0.039 C 
ATOM     22  C   UNL     1      -5.400   2.234  -1.505  0.00  0.00    -0.022 A 
ATOM     23  C   UNL     1      -5.945   1.563  -2.581  0.00  0.00    +0.005 A 
ATOM     24  C   UNL     1      -7.300   1.674  -2.842  0.00  0.00    +0.000 A 
ATOM     25  C   UNL     1      -8.101   2.455  -2.030  0.00  0.00    +0.004 A 
ATOM     26  C   UNL     1      -7.556   3.122  -0.950  0.00  0.00    +0.046 A 
ATOM     27  C   UNL     1      -6.200   3.003  -0.682  0.00  0.00    +0.123 A 
ATOM     28  O   UNL     1      -5.662   3.615   0.409  0.00  0.00    -0.486 OA
ATOM     29  C   UNL     1      -5.244   2.737   1.461  0.00  0.00    +0.188 C 
ATOM     30  C   UNL     1      -3.839   2.233   1.213  0.00  0.00    -0.028 C 
ATOM     31  N   UNL     1      -3.743   1.354   0.027  0.00  0.00    +0.386 N 
ATOM     32  H   UNL     1      -4.487   0.649   0.078  0.00  0.00    -0.081 HD
BRANCH  29  33
ATOM     33  C   UNL     1      -5.280   3.480   2.771  0.00  0.00    -0.002 A 
ATOM     34  C   UNL     1      -5.640   2.830   3.937  0.00  0.00    +0.015 A 
ATOM     35  C   UNL     1      -5.656   3.527   5.100  0.00  0.00    +0.045 A 
ATOM     36  S   UNL     1      -5.165   5.157   4.561  0.00  0.00    -0.105 S 
ATOM     37  C   UNL     1      -4.964   4.798   2.824  0.00  0.00    +0.052 A 
ENDBRANCH  29  33
ENDBRANCH  20  31
ENDBRANCH   1  20
TORSDOF 6
