REMARK  Name = ZINC13630383
REMARK  6 active torsions:
REMARK  status: ('A' for Active; 'I' for Inactive)
REMARK    1  A    between atoms: C_3  and  C_6
REMARK    2  A    between atoms: C_6  and  N_7
REMARK    3  A    between atoms: C_9  and  C_14
REMARK    4  A    between atoms: N_16  and  N_17
REMARK    5  A    between atoms: C_18  and  C_19
REMARK    6  A    between atoms: C_23  and  N_25
REMARK                            x       y       z     vdW  Elec       q    Type
REMARK                         _______ _______ _______ _____ _____    ______ ____
ROOT
ATOM      1  C   UNL     1      -1.594   4.011   3.761  0.00  0.00    +0.237 C 
ATOM      2  O   UNL     1      -1.422   5.012   3.098  0.00  0.00    -0.274 OA
ATOM      3  N   UNL     1      -2.294   4.077   4.911  0.00  0.00    -0.207 N 
ATOM      4  H   UNL     1      -2.432   3.277   5.442  0.00  0.00    +0.177 HD
ENDROOT
BRANCH   1   7
ATOM      5  N   UNL     1      -0.698   1.558   1.213  0.00  0.00    -0.293 N 
ATOM      6  C   UNL     1      -0.396   2.821   1.897  0.00  0.00    +0.121 C 
ATOM      7  C   UNL     1      -1.026   2.694   3.300  0.00  0.00    +0.103 C 
ATOM      8  C   UNL     1      -2.151   1.663   3.050  0.00  0.00    +0.110 C 
ATOM      9  C   UNL     1      -1.681   0.888   1.839  0.00  0.00    +0.217 C 
ATOM     10  O   UNL     1      -2.127  -0.183   1.484  0.00  0.00    -0.276 OA
BRANCH   5  11
ATOM     11  C   UNL     1      -0.013   1.086   0.008  0.00  0.00    +0.182 C 
BRANCH  11  14
ATOM     12  C   UNL     1      -1.411   2.810  -2.934  0.00  0.00    +0.041 A 
ATOM     13  C   UNL     1      -0.504   2.745  -1.851  0.00  0.00    +0.046 A 
ATOM     14  C   UNL     1      -0.742   1.585  -1.213  0.00  0.00    +0.122 A 
ATOM     15  O   UNL     1      -1.734   0.945  -1.851  0.00  0.00    -0.466 OA
ATOM     16  C   UNL     1      -2.148   1.685  -2.893  0.00  0.00    +0.195 A 
ENDBRANCH  11  14
ENDBRANCH   5  11
ENDBRANCH   1   7
BRANCH   3  17
ATOM     17  N   UNL     1      -2.822   5.302   5.340  0.00  0.00    -0.188 NA
ATOM     18  C   UNL     1      -3.496   5.365   6.447  0.00  0.00    +0.138 C 
BRANCH  18  19
ATOM     19  C   UNL     1      -4.053   6.654   6.899  0.00  0.00    -0.003 A 
ATOM     20  C   UNL     1      -3.851   7.810   6.140  0.00  0.00    +0.011 A 
ATOM     21  C   UNL     1      -4.378   9.011   6.566  0.00  0.00    +0.023 A 
ATOM     22  C   UNL     1      -5.097   9.075   7.748  0.00  0.00    +0.071 A 
ATOM     23  C   UNL     1      -5.296   7.934   8.508  0.00  0.00    +0.145 A 
ATOM     24  C   UNL     1      -4.778   6.726   8.090  0.00  0.00    +0.043 A 
ATOM     25 CL   UNL     1      -5.752  10.592   8.280  0.00  0.00    -0.081 Cl
BRANCH  23  26
ATOM     26  N   UNL     1      -6.065   8.012   9.769  0.00  0.00    +0.058 N 
ATOM     27  O   UNL     1      -6.241   7.010  10.438  0.00  0.00    -0.126 OA
ATOM     28  O   UNL     1      -6.523   9.079  10.139  0.00  0.00    -0.126 OA
ENDBRANCH  23  26
ENDBRANCH  18  19
ENDBRANCH   3  17
TORSDOF 6
