REMARK  Name = ZINC59891175
REMARK  12 active torsions:
REMARK  status: ('A' for Active; 'I' for Inactive)
REMARK    1  A    between atoms: C_1  and  C_2
REMARK    2  A    between atoms: C_2  and  C_3
REMARK    3  A    between atoms: C_3  and  C_4
REMARK    4  A    between atoms: C_4  and  C_5
REMARK    5  A    between atoms: C_5  and  C_7
REMARK    6  A    between atoms: C_5  and  N_22
REMARK    7  A    between atoms: N_9  and  C_10
REMARK    8  A    between atoms: C_10  and  C_11
REMARK    9  A    between atoms: C_11  and  N_19
REMARK   10  A    between atoms: C_15  and  C_18
REMARK   11  A    between atoms: N_19  and  C_20
REMARK   12  A    between atoms: N_19  and  C_21
REMARK                            x       y       z     vdW  Elec       q    Type
REMARK                         _______ _______ _______ _____ _____    ______ ____
ROOT
ATOM      1  C   UNL     1      -2.913  -2.363   0.312  0.00  0.00    +0.158 C 
ENDROOT
BRANCH   1   2
ATOM      2  N   UNL     1      -3.609  -1.916  -0.898  0.00  0.00    -0.316 N 
ATOM      3  C   UNL     1      -4.191  -0.668  -0.936  0.00  0.00    +0.150 C 
ATOM      4  N   UNL     1      -4.123   0.118   0.091  0.00  0.00    -0.113 NA
ATOM      5  S   UNL     1      -4.936   1.514  -0.347  0.00  0.00    +0.101 S 
ATOM      6  O   UNL     1      -3.980   2.562  -0.439  0.00  0.00    -0.146 OA
ATOM      7  O   UNL     1      -6.114   1.595   0.443  0.00  0.00    -0.146 OA
ATOM      8  C   UNL     1      -5.420   1.079  -1.996  0.00  0.00    +0.123 A 
ATOM      9  C   UNL     1      -4.891  -0.211  -2.146  0.00  0.00    +0.043 A 
ATOM     10  C   UNL     1      -5.100  -0.854  -3.376  0.00  0.00    +0.013 A 
ATOM     11  C   UNL     1      -5.796  -0.222  -4.381  0.00  0.00    +0.001 A 
ATOM     12  C   UNL     1      -6.302   1.053  -4.205  0.00  0.00    +0.002 A 
ATOM     13  C   UNL     1      -6.113   1.702  -2.992  0.00  0.00    +0.030 A 
ATOM     14  H   UNL     1      -3.659  -2.499  -1.671  0.00  0.00    +0.148 HD
ENDBRANCH   1   2
BRANCH   1  15
ATOM     15  C   UNL     1      -2.912  -3.869   0.363  0.00  0.00    +0.233 C 
ATOM     16  O   UNL     1      -3.441  -4.506  -0.523  0.00  0.00    -0.274 OA
ATOM     17  N   UNL     1      -2.325  -4.508   1.394  0.00  0.00    -0.315 N 
ATOM     18  H   UNL     1      -1.902  -3.998   2.103  0.00  0.00    +0.149 HD
BRANCH  17  19
ATOM     19  C   UNL     1      -2.324  -5.972   1.444  0.00  0.00    +0.092 C 
BRANCH  19  20
ATOM     20  C   UNL     1      -1.477  -6.441   2.629  0.00  0.00    -0.050 C 
ATOM     21  C   UNL     1      -2.136  -5.996   3.936  0.00  0.00    -0.010 C 
ATOM     22  C   UNL     1      -3.535  -6.608   4.035  0.00  0.00    -0.001 C 
ATOM     23  C   UNL     1      -3.428  -8.134   4.012  0.00  0.00    +0.003 C 
ATOM     24  C   UNL     1      -2.768  -8.579   2.705  0.00  0.00    -0.015 C 
ATOM     25  C   UNL     1      -1.369  -7.967   2.606  0.00  0.00    -0.007 C 
ATOM     26  C   UNL     1      -2.660 -10.105   2.682  0.00  0.00    +0.007 C 
BRANCH  20  27
ATOM     27  N   UNL     1      -0.134  -5.854   2.534  0.00  0.00    +0.381 N 
ATOM     28  C   UNL     1       0.691  -6.333   3.651  0.00  0.00    -0.096 C 
ATOM     29  C   UNL     1       0.486  -6.252   1.262  0.00  0.00    -0.096 C 
ATOM     30  H   UNL     1      -0.203  -4.848   2.574  0.00  0.00    -0.082 HD
ENDBRANCH  20  27
ENDBRANCH  19  20
ENDBRANCH  17  19
ENDBRANCH   1  15
BRANCH   1  31
ATOM     31  C   UNL     1      -1.471  -1.853   0.289  0.00  0.00    +0.032 C 
BRANCH  31  32
ATOM     32  C   UNL     1      -1.470  -0.324   0.363  0.00  0.00    +0.002 C 
BRANCH  32  34
ATOM     33  C   UNL     1      -0.026   1.714   0.414  0.00  0.00    +0.004 C 
ATOM     34  C   UNL     1      -0.028   0.186   0.340  0.00  0.00    -0.003 C 
ENDBRANCH  32  34
ENDBRANCH  31  32
ENDBRANCH   1  31
TORSDOF 8
