REMARK  Name = ZINC02754397
REMARK  11 active torsions:
REMARK  status: ('A' for Active; 'I' for Inactive)
REMARK    1  A    between atoms: C_1  and  C_2
REMARK    2  A    between atoms: C_7  and  N_8
REMARK    3  A    between atoms: C_11  and  C_18
REMARK    4  A    between atoms: C_13  and  C_16
REMARK    5  A    between atoms: C_14  and  N_15
REMARK    6  A    between atoms: C_21  and  O_28
REMARK    7  A    between atoms: C_22  and  O_26
REMARK    8  A    between atoms: C_23  and  O_24
REMARK    9  A    between atoms: O_24  and  C_25
REMARK   10  A    between atoms: O_26  and  C_27
REMARK   11  A    between atoms: O_28  and  C_29
REMARK                            x       y       z     vdW  Elec       q    Type
REMARK                         _______ _______ _______ _____ _____    ______ ____
ROOT
ATOM      1  N   UNL     1      -3.782   1.508  -0.086  0.00  0.00    -0.260 N 
ATOM      2  C   UNL     1      -2.453   1.215   0.072  0.00  0.00    +0.024 C 
ATOM      3  C   UNL     1      -1.816   1.509   1.225  0.00  0.00    +0.025 C 
ATOM      4  C   UNL     1      -2.550   2.151   2.375  0.00  0.00    +0.101 C 
ATOM      5  C   UNL     1      -3.834   2.777   1.915  0.00  0.00    +0.077 C 
ATOM      6  C   UNL     1      -4.394   2.437   0.726  0.00  0.00    +0.107 C 
ATOM      7  C   UNL     1      -0.446   1.228   1.390  0.00  0.00    +0.162 C 
ATOM      8  O   UNL     1       0.097   1.494   2.444  0.00  0.00    -0.292 OA
ATOM      9  C   UNL     1       0.358   0.605   0.282  0.00  0.00    +0.080 C 
ATOM     10  C   UNL     1      -0.256   0.998  -1.065  0.00  0.00    +0.014 C 
ATOM     11  C   UNL     1      -1.723   0.561  -1.075  0.00  0.00    +0.052 C 
ENDROOT
BRANCH   1  18
ATOM     12  C   UNL     1      -3.901   2.700  -2.667  0.00  0.00    +0.046 C 
ATOM     13  C   UNL     1      -4.608   1.406  -2.353  0.00  0.00    -0.028 A 
ATOM     14  C   UNL     1      -5.340   0.763  -3.333  0.00  0.00    +0.020 A 
ATOM     15  C   UNL     1      -5.989  -0.424  -3.045  0.00  0.00    +0.018 A 
ATOM     16  C   UNL     1      -5.906  -0.972  -1.777  0.00  0.00    +0.017 A 
ATOM     17  C   UNL     1      -5.172  -0.336  -0.796  0.00  0.00    +0.025 A 
ATOM     18  C   UNL     1      -4.524   0.859  -1.080  0.00  0.00    +0.043 A 
ATOM     19 BR   UNL     1      -6.990  -1.302  -4.388  0.00  0.00    -0.050 Br
ENDBRANCH   1  18
BRANCH   4  20
ATOM     20  C   UNL     1      -2.856   1.102   3.413  0.00  0.00    +0.011 A 
ATOM     21  C   UNL     1      -3.667   0.029   3.092  0.00  0.00    +0.012 A 
ATOM     22  C   UNL     1      -3.946  -0.938   4.039  0.00  0.00    +0.050 A 
ATOM     23  C   UNL     1      -3.421  -0.831   5.319  0.00  0.00    +0.165 A 
ATOM     24  C   UNL     1      -2.611   0.249   5.646  0.00  0.00    +0.204 A 
ATOM     25  C   UNL     1      -2.328   1.217   4.690  0.00  0.00    +0.169 A 
BRANCH  25  26
ATOM     26  O   UNL     1      -1.535   2.276   5.005  0.00  0.00    -0.491 OA
ATOM     27  C   UNL     1      -2.164   3.392   5.637  0.00  0.00    +0.277 C 
ENDBRANCH  25  26
BRANCH  24  28
ATOM     28  O   UNL     1      -2.094   0.359   6.901  0.00  0.00    -0.488 OA
ATOM     29  C   UNL     1      -0.788  -0.182   7.114  0.00  0.00    +0.277 C 
ENDBRANCH  24  28
BRANCH  23  30
ATOM     30  O   UNL     1      -3.701  -1.780   6.251  0.00  0.00    -0.491 OA
ATOM     31  C   UNL     1      -4.541  -2.862   5.844  0.00  0.00    +0.277 C 
ENDBRANCH  23  30
ENDBRANCH   4  20
BRANCH   6  32
ATOM     32  N   UNL     1      -5.575   3.020   0.332  0.00  0.00    -0.345 N 
ATOM     33  H   UNL     1      -5.976   2.778  -0.517  0.00  0.00    +0.144 HD
ATOM     34  H   UNL     1      -6.007   3.675   0.903  0.00  0.00    +0.144 HD
ENDBRANCH   6  32
BRANCH   5  35
ATOM     35  C   UNL     1      -4.479   3.750   2.745  0.00  0.00    +0.099 C 
ATOM     36  N   UNL     1      -4.991   4.522   3.403  0.00  0.00    -0.191 NA
ENDBRANCH   5  35
TORSDOF 7
