REMARK  Name = ZINC23232025
REMARK  9 active torsions:
REMARK  status: ('A' for Active; 'I' for Inactive)
REMARK    1  A    between atoms: C_1  and  N_2
REMARK    2  A    between atoms: C_5  and  C_7
REMARK    3  A    between atoms: N_9  and  C_10
REMARK    4  A    between atoms: N_9  and  C_11
REMARK    5  A    between atoms: C_11  and  C_12
REMARK    6  A    between atoms: C_18  and  N_22
REMARK    7  A    between atoms: N_22  and  C_23
REMARK    8  A    between atoms: C_23  and  C_24
REMARK    9  A    between atoms: C_24  and  N_30
REMARK                            x       y       z     vdW  Elec       q    Type
REMARK                         _______ _______ _______ _____ _____    ______ ____
ROOT
ATOM      1  C   UNL     1      -1.039   1.397   0.157  0.00  0.00    +0.172 C 
ATOM      2  N   UNL     1      -0.861  -0.057   0.124  0.00  0.00    -0.270 N 
ATOM      3  C   UNL     1      -0.974  -0.822  -0.974  0.00  0.00    +0.043 A 
ATOM      4  C   UNL     1      -0.742  -2.103  -0.596  0.00  0.00    +0.004 A 
ATOM      5  C   UNL     1      -0.482  -2.057   0.784  0.00  0.00    +0.151 A 
ATOM      6  N   UNL     1      -0.568  -0.788   1.143  0.00  0.00    -0.166 NA
ATOM      7  C   UNL     1      -0.774  -3.286  -1.524  0.00  0.00    +0.023 C 
ATOM      8  C   UNL     1      -1.494  -2.868  -2.813  0.00  0.00    -0.067 C 
ATOM      9  C   UNL     1      -0.899  -1.554  -3.327  0.00  0.00    -0.009 C 
ATOM     10  C   UNL     1      -1.293  -0.407  -2.388  0.00  0.00    +0.054 C 
ENDROOT
BRANCH   5  11
ATOM     11  C   UNL     1      -0.168  -3.204   1.661  0.00  0.00    +0.267 C 
ATOM     12  O   UNL     1      -0.206  -4.336   1.219  0.00  0.00    -0.268 OA
ATOM     13  N   UNL     1       0.160  -2.995   2.951  0.00  0.00    -0.292 N 
ATOM     14  C   UNL     1       0.145  -1.637   3.500  0.00  0.00    +0.133 C 
BRANCH  13  15
ATOM     15  C   UNL     1       0.531  -4.126   3.805  0.00  0.00    +0.182 C 
BRANCH  15  16
ATOM     16  C   UNL     1       2.019  -4.349   3.725  0.00  0.00    +0.122 A 
ATOM     17  C   UNL     1       2.943  -3.787   4.526  0.00  0.00    +0.046 A 
ATOM     18  C   UNL     1       4.202  -4.270   4.100  0.00  0.00    +0.041 A 
ATOM     19  C   UNL     1       3.973  -5.097   3.064  0.00  0.00    +0.195 A 
ATOM     20  O   UNL     1       2.648  -5.146   2.845  0.00  0.00    -0.466 OA
ENDBRANCH  15  16
ENDBRANCH  13  15
ENDBRANCH   5  11
BRANCH   8  21
ATOM     21  N   UNL     1      -1.322  -3.914  -3.830  0.00  0.00    +0.382 N 
ATOM     22  H   UNL     1      -0.347  -3.984  -4.080  0.00  0.00    -0.085 HD
ATOM     23  H   UNL     1      -1.640  -4.798  -3.461  0.00  0.00    -0.085 HD
BRANCH  21  24
ATOM     24  C   UNL     1      -2.108  -3.570  -5.023  0.00  0.00    -0.060 C 
BRANCH  24  25
ATOM     25  C   UNL     1      -1.930  -4.660  -6.082  0.00  0.00    +0.007 C 
ATOM     26  C   UNL     1      -2.749  -4.302  -7.324  0.00  0.00    +0.020 C 
ATOM     27  C   UNL     1      -2.268  -2.962  -7.884  0.00  0.00    +0.002 C 
ATOM     28  C   UNL     1      -0.789  -3.069  -8.262  0.00  0.00    +0.000 C 
ATOM     29  C   UNL     1       0.030  -3.426  -7.020  0.00  0.00    +0.002 C 
ATOM     30  C   UNL     1      -0.451  -4.766  -6.460  0.00  0.00    +0.020 C 
BRANCH  25  31
ATOM     31  N   UNL     1      -2.392  -5.946  -5.545  0.00  0.00    -0.294 NA
ATOM     32  C   UNL     1      -3.788  -5.857  -5.091  0.00  0.00    +0.113 C 
ATOM     33  C   UNL     1      -4.208  -7.198  -4.485  0.00  0.00    +0.175 C 
ATOM     34  O   UNL     1      -4.020  -8.233  -5.454  0.00  0.00    -0.377 OA
ATOM     35  C   UNL     1      -2.672  -8.349  -5.918  0.00  0.00    +0.175 C 
ATOM     36  C   UNL     1      -2.235  -7.019  -6.538  0.00  0.00    +0.113 C 
ENDBRANCH  25  31
ENDBRANCH  24  25
ENDBRANCH  21  24
ENDBRANCH   8  21
TORSDOF 7
