REMARK  Name = ZINC36024242
REMARK  10 active torsions:
REMARK  status: ('A' for Active; 'I' for Inactive)
REMARK    1  A    between atoms: C_1  and  C_2
REMARK    2  A    between atoms: C_2  and  C_3
REMARK    3  A    between atoms: C_3  and  N_4
REMARK    4  A    between atoms: C_7  and  C_23
REMARK    5  A    between atoms: N_18  and  C_19
REMARK    6  A    between atoms: C_19  and  C_20
REMARK    7  A    between atoms: C_19  and  C_21
REMARK    8  A    between atoms: C_19  and  C_22
REMARK    9  A    between atoms: C_23  and  C_24
REMARK   10  A    between atoms: C_23  and  C_25
REMARK                            x       y       z     vdW  Elec       q    Type
REMARK                         _______ _______ _______ _____ _____    ______ ____
ROOT
ATOM      1  N   UNL     1       0.827  -1.991  -1.204  0.00  0.00    -0.314 N 
ATOM      2  C   UNL     1       1.813  -2.671  -0.582  0.00  0.00    +0.201 C 
ATOM      3  O   UNL     1       2.729  -2.178   0.042  0.00  0.00    -0.277 OA
ATOM      4  C   UNL     1       1.583  -4.151  -0.793  0.00  0.00    +0.022 C 
ATOM      5  N   UNL     1       0.171  -4.256  -1.234  0.00  0.00    +0.401 N 
ATOM      6  C   UNL     1      -0.089  -2.938  -1.846  0.00  0.00    +0.006 C 
ATOM      7  C   UNL     1       0.189  -3.007  -3.347  0.00  0.00    +0.025 C 
ATOM      8  C   UNL     1      -0.047  -1.628  -3.971  0.00  0.00    +0.109 C 
ATOM      9  N   UNL     1      -1.399  -1.174  -3.619  0.00  0.00    -0.286 N 
ATOM     10  C   UNL     1      -1.788  -1.143  -2.203  0.00  0.00    +0.109 C 
ATOM     11  C   UNL     1      -1.538  -2.526  -1.593  0.00  0.00    +0.025 C 
ATOM     12  C   UNL     1      -2.267  -0.794  -4.578  0.00  0.00    +0.303 C 
ATOM     13  O   UNL     1      -1.972  -0.923  -5.750  0.00  0.00    -0.253 OA
ATOM     14  N   UNL     1      -3.461  -0.269  -4.237  0.00  0.00    -0.294 N 
ATOM     15  H   UNL     1       0.064  -4.995  -1.913  0.00  0.00    -0.082 HD
ATOM     16  H   UNL     1      -3.722  -0.225  -3.304  0.00  0.00    +0.151 HD
ATOM     17  H   UNL     1      -0.439  -4.404  -0.444  0.00  0.00    -0.082 HD
ENDROOT
BRANCH  14  18
ATOM     18  C   UNL     1      -4.363   0.234  -5.275  0.00  0.00    +0.028 C 
ATOM     19  C   UNL     1      -4.719  -0.901  -6.236  0.00  0.00    +0.031 C 
ATOM     20  C   UNL     1      -5.639   0.772  -4.624  0.00  0.00    +0.031 C 
ATOM     21  C   UNL     1      -3.673   1.359  -6.049  0.00  0.00    +0.031 C 
ENDBRANCH  14  18
BRANCH   4  22
ATOM     22  C   UNL     1       1.793  -4.915   0.516  0.00  0.00    -0.023 C 
ATOM     23  C   UNL     1       3.236  -4.728   0.990  0.00  0.00    +0.006 C 
ATOM     24  C   UNL     1       0.833  -4.378   1.579  0.00  0.00    +0.006 C 
ENDBRANCH   4  22
BRANCH   1  25
ATOM     25  C   UNL     1       0.690  -0.533  -1.229  0.00  0.00    +0.106 C 
BRANCH  25  27
ATOM     26  C   UNL     1      -0.375   1.428  -0.105  0.00  0.00    +0.005 C 
ATOM     27  C   UNL     1      -0.109  -0.075  -0.007  0.00  0.00    +0.015 C 
ENDBRANCH  25  27
ENDBRANCH   1  25
TORSDOF 4
