REMARK  Name = ZINC39628414
REMARK  7 active torsions:
REMARK  status: ('A' for Active; 'I' for Inactive)
REMARK    1  A    between atoms: C_1  and  C_2
REMARK    2  A    between atoms: N_8  and  C_9
REMARK    3  A    between atoms: C_9  and  C_10
REMARK    4  A    between atoms: C_10  and  C_11
REMARK    5  A    between atoms: C_11  and  N_12
REMARK    6  A    between atoms: C_13  and  C_15
REMARK    7  A    between atoms: C_26  and  C_28
REMARK                            x       y       z     vdW  Elec       q    Type
REMARK                         _______ _______ _______ _____ _____    ______ ____
ROOT
ATOM      1  C   UNL     1       0.780  -0.524   8.361  0.00  0.00    +0.100 C 
ATOM      2  C   UNL     1       1.040  -2.013   8.686  0.00  0.00    +0.121 C 
ATOM      3  N   UNL     1       1.027  -2.080  10.166  0.00  0.00    -0.296 N 
ATOM      4  C   UNL     1      -0.067  -1.163  10.568  0.00  0.00    +0.115 C 
ATOM      5  C   UNL     1       0.053   0.029   9.598  0.00  0.00    -0.004 C 
ATOM      6  C   UNL     1      -1.334   0.536   9.213  0.00  0.00    -0.010 C 
ATOM      7  C   UNL     1      -2.014   1.135  10.447  0.00  0.00    -0.082 C 
ATOM      8  N   UNL     1      -1.197   2.235  10.973  0.00  0.00    +0.379 N 
ATOM      9  C   UNL     1       0.101   1.722  11.428  0.00  0.00    -0.082 C 
ATOM     10  C   UNL     1       0.871   1.148  10.235  0.00  0.00    -0.010 C 
ATOM     11  C   UNL     1       1.829  -2.809  10.967  0.00  0.00    +0.247 C 
ATOM     12  O   UNL     1       2.769  -3.418  10.494  0.00  0.00    -0.270 OA
ATOM     13  H   UNL     1      -1.051   2.921  10.248  0.00  0.00    -0.086 HD
ATOM     14  H   UNL     1      -1.677   2.667  11.749  0.00  0.00    -0.086 HD
ENDROOT
BRANCH  11  15
ATOM     15  C   UNL     1       1.566  -2.869  12.420  0.00  0.00    +0.037 A 
ATOM     16  C   UNL     1       0.299  -2.558  12.916  0.00  0.00    +0.014 A 
ATOM     17  C   UNL     1       0.059  -2.616  14.273  0.00  0.00    +0.016 A 
ATOM     18  C   UNL     1       1.073  -2.981  15.143  0.00  0.00    +0.018 A 
ATOM     19  C   UNL     1       2.332  -3.291  14.657  0.00  0.00    +0.016 A 
ATOM     20  C   UNL     1       2.583  -3.242  13.302  0.00  0.00    +0.014 A 
ATOM     21 BR   UNL     1       0.737  -3.057  17.002  0.00  0.00    -0.050 Br
ENDBRANCH  11  15
BRANCH   1  23
ATOM     22  N   UNL     1       0.028   0.673   6.331  0.00  0.00    -0.315 N 
ATOM     23  C   UNL     1      -0.093  -0.399   7.139  0.00  0.00    +0.218 C 
ATOM     24  O   UNL     1      -0.905  -1.263   6.883  0.00  0.00    -0.275 OA
ATOM     25  H   UNL     1       0.677   1.364   6.536  0.00  0.00    +0.149 HD
BRANCH  22  26
ATOM     26  C   UNL     1      -0.821   0.794   5.144  0.00  0.00    +0.102 C 
BRANCH  26  27
ATOM     27  C   UNL     1      -0.485   2.092   4.407  0.00  0.00    +0.000 C 
BRANCH  27  28
ATOM     28  C   UNL     1      -1.371   2.219   3.166  0.00  0.00    -0.077 C 
BRANCH  28  35
ATOM     29  C   UNL     1      -3.416   3.635   1.863  0.00  0.00    -0.013 C 
ATOM     30  C   UNL     1      -1.979   3.646   1.338  0.00  0.00    -0.072 C 
ATOM     31  C   UNL     1      -1.698   4.982   0.648  0.00  0.00    -0.016 C 
ATOM     32  C   UNL     1      -0.259   4.988   0.125  0.00  0.00    -0.003 C 
ATOM     33  C   UNL     1       0.699   4.725   1.290  0.00  0.00    -0.019 C 
ATOM     34  C   UNL     1       0.329   3.398   1.957  0.00  0.00    -0.078 C 
ATOM     35  N   UNL     1      -1.048   3.466   2.459  0.00  0.00    +0.381 N 
ATOM     36  H   UNL     1      -1.135   4.244   3.096  0.00  0.00    -0.081 HD
ENDBRANCH  28  35
ENDBRANCH  27  28
ENDBRANCH  26  27
ENDBRANCH  22  26
ENDBRANCH   1  23
TORSDOF 6
