REMARK  Name = ZINC20309275
REMARK  12 active torsions:
REMARK  status: ('A' for Active; 'I' for Inactive)
REMARK    1  A    between atoms: C_1  and  C_2
REMARK    2  A    between atoms: C_2  and  N_3
REMARK    3  A    between atoms: N_3  and  C_4
REMARK    4  A    between atoms: N_3  and  C_6
REMARK    5  A    between atoms: C_4  and  C_5
REMARK    6  A    between atoms: C_6  and  C_7
REMARK    7  A    between atoms: C_7  and  C_8
REMARK    8  A    between atoms: C_8  and  N_9
REMARK    9  A    between atoms: C_10  and  C_27
REMARK   10  A    between atoms: C_12  and  C_17
REMARK   11  A    between atoms: C_17  and  C_19
REMARK   12  A    between atoms: C_24  and  O_25
REMARK                            x       y       z     vdW  Elec       q    Type
REMARK                         _______ _______ _______ _____ _____    ______ ____
ROOT
ATOM      1  N   UNL     1       1.470   4.098   0.541  0.00  0.00    -0.284 N 
ATOM      2  C   UNL     1       1.837   2.719   0.198  0.00  0.00    +0.145 C 
ATOM      3  C   UNL     1       2.807   2.814  -0.956  0.00  0.00    +0.076 C 
ATOM      4  C   UNL     1       2.961   4.133  -1.228  0.00  0.00    +0.249 C 
ATOM      5  C   UNL     1       2.129   4.921  -0.295  0.00  0.00    +0.288 C 
ATOM      6  O   UNL     1       2.052   6.134  -0.285  0.00  0.00    -0.266 OA
ATOM      7  O   UNL     1       3.751   4.645  -2.199  0.00  0.00    -0.282 OA
ENDROOT
BRANCH   2   8
ATOM      8  C   UNL     1       0.612   1.945  -0.217  0.00  0.00    -0.020 A 
ATOM      9  C   UNL     1       0.441   0.641   0.211  0.00  0.00    +0.006 A 
ATOM     10  C   UNL     1      -0.681  -0.070  -0.169  0.00  0.00    +0.003 A 
ATOM     11  C   UNL     1      -1.632   0.519  -0.982  0.00  0.00    +0.038 A 
ATOM     12  C   UNL     1      -1.464   1.826  -1.406  0.00  0.00    +0.124 A 
ATOM     13  C   UNL     1      -0.339   2.538  -1.025  0.00  0.00    +0.044 A 
ATOM     14  F   UNL     1      -2.395   2.405  -2.196  0.00  0.00    -0.205 F 
ENDBRANCH   2   8
BRANCH   3  15
ATOM     15  C   UNL     1       3.455   1.696  -1.649  0.00  0.00    +0.199 C 
ATOM     16  O   UNL     1       3.222   1.491  -2.825  0.00  0.00    -0.287 OA
BRANCH  15  17
ATOM     17  C   UNL     1       4.391   0.819  -0.918  0.00  0.00    +0.065 A 
ATOM     18  C   UNL     1       4.752   1.118   0.399  0.00  0.00    +0.030 A 
ATOM     19  C   UNL     1       5.622   0.292   1.077  0.00  0.00    +0.019 A 
ATOM     20  C   UNL     1       6.150  -0.829   0.455  0.00  0.00    +0.019 A 
ATOM     21  C   UNL     1       5.806  -1.133  -0.847  0.00  0.00    +0.047 A 
ATOM     22  C   UNL     1       4.927  -0.316  -1.543  0.00  0.00    +0.128 A 
ATOM     23 BR   UNL     1       6.104   0.693   2.861  0.00  0.00    -0.050 Br
BRANCH  22  24
ATOM     24  O   UNL     1       4.588  -0.614  -2.822  0.00  0.00    -0.506 OA
ATOM     25  H   UNL     1       5.010  -1.505  -3.310  0.00  0.00    +0.292 HD
ENDBRANCH  22  24
ENDBRANCH  15  17
ENDBRANCH   3  15
BRANCH   1  26
ATOM     26  C   UNL     1       0.548   4.507   1.604  0.00  0.00    +0.107 C 
BRANCH  26  27
ATOM     27  C   UNL     1       1.328   4.710   2.904  0.00  0.00    +0.000 C 
BRANCH  27  28
ATOM     28  C   UNL     1       0.366   5.137   4.015  0.00  0.00    -0.077 C 
BRANCH  28  29
ATOM     29  N   UNL     1       1.115   5.333   5.263  0.00  0.00    +0.379 N 
ATOM     30  H   UNL     1       1.711   4.426   5.445  0.00  0.00    -0.082 HD
BRANCH  29  32
ATOM     31  C   UNL     1       1.248   7.750   4.897  0.00  0.00    -0.017 C 
ATOM     32  C   UNL     1       2.041   6.467   5.149  0.00  0.00    -0.082 C 
ENDBRANCH  29  32
BRANCH  29  33
ATOM     33  C   UNL     1       0.203   5.510   6.402  0.00  0.00    -0.082 C 
ATOM     34  C   UNL     1       0.992   5.399   7.708  0.00  0.00    -0.017 C 
ENDBRANCH  29  33
ENDBRANCH  28  29
ENDBRANCH  27  28
ENDBRANCH  26  27
ENDBRANCH   1  26
TORSDOF 10
