REMARK  Name = ZINC00759541
REMARK  3 active torsions:
REMARK  status: ('A' for Active; 'I' for Inactive)
REMARK    1  A    between atoms: C_6  and  S_7
REMARK    2  A    between atoms: S_7  and  N_10
REMARK    3  A    between atoms: C_18  and  C_21
REMARK                            x       y       z     vdW  Elec       q    Type
REMARK                         _______ _______ _______ _____ _____    ______ ____
ROOT
ATOM      1  C   UNL     1      -4.130  -2.167  -0.696  0.00  0.00    +0.030 A 
ATOM      2  C   UNL     1      -2.928  -2.004  -1.356  0.00  0.00    +0.025 A 
ATOM      3  C   UNL     1      -2.290  -0.769  -1.341  0.00  0.00    +0.031 A 
ATOM      4  C   UNL     1      -2.848   0.302  -0.666  0.00  0.00    -0.018 A 
ATOM      5  C   UNL     1      -4.057   0.127  -0.006  0.00  0.00    +0.034 A 
ATOM      6  C   UNL     1      -4.692  -1.099  -0.022  0.00  0.00    +0.105 A 
ATOM      7  C   UNL     1      -2.203   1.661  -0.612  0.00  0.00    +0.049 C 
ATOM      8  C   UNL     1      -1.953   1.988   0.854  0.00  0.00    -0.023 C 
ATOM      9  C   UNL     1      -0.718   1.687   1.188  0.00  0.00    -0.030 C 
ATOM     10  C   UNL     1       0.026   1.120  -0.008  0.00  0.00    +0.033 C 
ATOM     11  C   UNL     1      -0.784   1.659  -1.210  0.00  0.00    +0.029 C 
ATOM     12  C   UNL     1      -0.657   0.740  -2.410  0.00  0.00    +0.106 C 
ATOM     13  N   UNL     1      -1.074  -0.622  -2.020  0.00  0.00    -0.336 N 
ATOM     14  H   UNL     1      -0.519  -1.390  -2.227  0.00  0.00    +0.147 HD
ENDROOT
BRANCH  12  15
ATOM     15  C   UNL     1      -1.551   1.234  -3.518  0.00  0.00    -0.009 A 
ATOM     16  C   UNL     1      -2.761   0.611  -3.760  0.00  0.00    +0.008 A 
ATOM     17  C   UNL     1      -3.584   1.068  -4.772  0.00  0.00    +0.020 A 
ATOM     18  C   UNL     1      -3.192   2.141  -5.552  0.00  0.00    +0.042 A 
ATOM     19  C   UNL     1      -1.978   2.761  -5.315  0.00  0.00    +0.040 A 
ATOM     20  C   UNL     1      -1.158   2.307  -4.298  0.00  0.00    +0.047 A 
ATOM     21 CL   UNL     1       0.366   3.084  -3.999  0.00  0.00    -0.083 Cl
ATOM     22 CL   UNL     1      -4.223   2.710  -6.828  0.00  0.00    -0.083 Cl
ENDBRANCH  12  15
BRANCH   6  23
ATOM     23  S   UNL     1      -6.225  -1.303   0.822  0.00  0.00    +0.056 S 
ATOM     24  O   UNL     1      -6.811  -0.012   0.917  0.00  0.00    -0.153 OA
ATOM     25  O   UNL     1      -6.888  -2.396   0.201  0.00  0.00    -0.153 OA
BRANCH  23  26
ATOM     26  N   UNL     1      -5.874  -1.779   2.368  0.00  0.00    -0.204 NA
ATOM     27  H   UNL     1      -6.469  -1.540   3.096  0.00  0.00    +0.144 HD
ATOM     28  H   UNL     1      -5.074  -2.297   2.546  0.00  0.00    +0.144 HD
ENDBRANCH  23  26
ENDBRANCH   6  23
TORSDOF 3
