REMARK  Name = ZINC06771716
REMARK  9 active torsions:
REMARK  status: ('A' for Active; 'I' for Inactive)
REMARK    1  A    between atoms: C_1  and  C_2
REMARK    2  A    between atoms: C_2  and  C_3
REMARK    3  A    between atoms: C_4  and  C_10
REMARK    4  A    between atoms: C_5  and  O_9
REMARK    5  A    between atoms: N_6  and  C_8
REMARK    6  A    between atoms: C_11  and  N_25
REMARK    7  A    between atoms: N_14  and  C_17
REMARK    8  A    between atoms: C_20  and  O_23
REMARK    9  A    between atoms: O_23  and  C_24
REMARK                            x       y       z     vdW  Elec       q    Type
REMARK                         _______ _______ _______ _____ _____    ______ ____
ROOT
ATOM      1  C   UNL     1      -1.647  -0.620   2.537  0.00  0.00    +0.078 C 
ATOM      2  C   UNL     1      -1.891   0.453   3.352  0.00  0.00    +0.106 C 
ATOM      3  C   UNL     1      -1.414   0.073   4.696  0.00  0.00    +0.272 C 
ATOM      4  O   UNL     1      -1.463   0.771   5.689  0.00  0.00    -0.268 OA
ATOM      5  N   UNL     1      -0.918  -1.175   4.638  0.00  0.00    -0.201 N 
ATOM      6  C   UNL     1      -1.026  -1.658   3.388  0.00  0.00    +0.260 C 
ATOM      7  O   UNL     1      -0.672  -2.760   3.019  0.00  0.00    -0.269 OA
ENDROOT
BRANCH   1   9
ATOM      8  C   UNL     1      -1.093  -0.367   0.031  0.00  0.00    +0.074 A 
ATOM      9  C   UNL     1      -1.950  -0.723   1.095  0.00  0.00    +0.073 A 
ATOM     10  C   UNL     1      -3.129  -1.188   0.531  0.00  0.00    +0.219 A 
ATOM     11  N   UNL     1      -2.988  -1.114  -0.809  0.00  0.00    -0.236 N 
ATOM     12  N   UNL     1      -1.718  -0.597  -1.091  0.00  0.00    -0.173 NA
ATOM     13  C   UNL     1      -3.993  -1.505  -1.800  0.00  0.00    +0.176 C 
BRANCH   8  15
ATOM     14  C   UNL     1       0.236   1.717   0.237  0.00  0.00    +0.010 C 
ATOM     15  C   UNL     1       0.301   0.190   0.167  0.00  0.00    +0.054 C 
ENDBRANCH   8  15
BRANCH  10  16
ATOM     16  O   UNL     1      -4.220  -1.633   1.202  0.00  0.00    -0.492 OA
ATOM     17  H   UNL     1      -4.865  -0.943   1.407  0.00  0.00    +0.294 HD
ENDBRANCH  10  16
ENDBRANCH   1   9
BRANCH   5  18
ATOM     18  C   UNL     1      -0.371  -1.874   5.724  0.00  0.00    +0.045 A 
ATOM     19  C   UNL     1      -0.320  -1.280   6.978  0.00  0.00    +0.027 A 
ATOM     20  C   UNL     1       0.218  -1.968   8.047  0.00  0.00    +0.047 A 
ATOM     21  C   UNL     1       0.708  -3.254   7.869  0.00  0.00    +0.120 A 
ATOM     22  C   UNL     1       0.657  -3.848   6.617  0.00  0.00    +0.047 A 
ATOM     23  C   UNL     1       0.114  -3.163   5.548  0.00  0.00    +0.027 A 
BRANCH  21  24
ATOM     24  O   UNL     1       1.238  -3.931   8.922  0.00  0.00    -0.495 OA
ATOM     25  C   UNL     1       1.723  -5.250   8.667  0.00  0.00    +0.277 C 
ENDBRANCH  21  24
ENDBRANCH   5  18
BRANCH   2  26
ATOM     26  N   UNL     1      -2.472   1.659   2.986  0.00  0.00    -0.325 N 
ATOM     27  C   UNL     1      -3.841   1.700   2.454  0.00  0.00    +0.105 C 
ATOM     28  C   UNL     1      -4.661   2.696   3.279  0.00  0.00    +0.019 C 
ATOM     29  C   UNL     1      -3.950   4.052   3.290  0.00  0.00    +0.003 C 
ATOM     30  C   UNL     1      -2.574   3.902   3.942  0.00  0.00    +0.019 C 
ATOM     31  C   UNL     1      -1.732   2.921   3.130  0.00  0.00    +0.105 C 
ENDBRANCH   2  26
TORSDOF 6
