REMARK  Name = ZINC19578659
REMARK  9 active torsions:
REMARK  status: ('A' for Active; 'I' for Inactive)
REMARK    1  A    between atoms: C_1  and  C_2
REMARK    2  A    between atoms: C_3  and  C_9
REMARK    3  A    between atoms: C_4  and  C_8
REMARK    4  A    between atoms: C_9  and  C_10
REMARK    5  A    between atoms: C_15  and  C_18
REMARK    6  A    between atoms: C_23  and  C_32
REMARK    7  A    between atoms: C_26  and  C_29
REMARK    8  A    between atoms: C_29  and  C_30
REMARK    9  A    between atoms: C_29  and  C_31
REMARK                            x       y       z     vdW  Elec       q    Type
REMARK                         _______ _______ _______ _____ _____    ______ ____
ROOT
ATOM      1  C   UNL     1       1.388   1.642  -0.002  0.00  0.00    +0.070 A 
ATOM      2  C   UNL     1       1.767   2.899  -0.492  0.00  0.00    +0.068 A 
ATOM      3  C   UNL     1       3.101   3.019  -0.320  0.00  0.00    +0.118 A 
ATOM      4  N   UNL     1       3.554   1.875   0.258  0.00  0.00    -0.239 N 
ATOM      5  N   UNL     1       2.458   1.035   0.451  0.00  0.00    -0.174 NA
ATOM      6  C   UNL     1       4.958   1.634   0.597  0.00  0.00    +0.214 C 
ATOM      7  C   UNL     1       5.837   2.597  -0.210  0.00  0.00    +0.058 C 
ATOM      8  C   UNL     1       5.306   4.028  -0.069  0.00  0.00    +0.077 C 
ATOM      9  N   UNL     1       3.947   4.083  -0.642  0.00  0.00    -0.326 N 
ATOM     10  H   UNL     1       3.653   4.929  -1.281  0.00  0.00    +0.148 HD
ENDROOT
BRANCH   1  16
ATOM     11  C   UNL     1      -3.285   1.448   1.637  0.00  0.00    +0.220 C 
ATOM     12  O   UNL     1      -3.114   1.438   2.837  0.00  0.00    -0.275 OA
ATOM     13  N   UNL     1      -2.227   1.535   0.806  0.00  0.00    -0.301 N 
ATOM     14  C   UNL     1      -2.291   1.557  -0.663  0.00  0.00    +0.108 C 
ATOM     15  C   UNL     1      -0.839   1.637  -1.184  0.00  0.00    +0.030 C 
ATOM     16  C   UNL     1      -0.013   1.086   0.008  0.00  0.00    +0.058 C 
ATOM     17  C   UNL     1      -0.815   1.624   1.219  0.00  0.00    +0.117 C 
BRANCH  11  18
ATOM     18  C   UNL     1      -4.680   1.364   1.074  0.00  0.00    +0.134 C 
BRANCH  18  21
ATOM     19  C   UNL     1      -6.065   3.779   2.501  0.00  0.00    +0.065 C 
ATOM     20  C   UNL     1      -6.272   2.321   2.821  0.00  0.00    +0.037 A 
ATOM     21  C   UNL     1      -5.673   1.276   2.204  0.00  0.00    +0.004 A 
ATOM     22  C   UNL     1      -6.144   0.099   2.796  0.00  0.00    +0.064 A 
ATOM     23  N   UNL     1      -6.987   0.426   3.741  0.00  0.00    -0.179 NA
ATOM     24  N   UNL     1      -7.088   1.823   3.774  0.00  0.00    -0.281 N 
ATOM     25  H   UNL     1      -7.678   2.505   4.403  0.00  0.00    +0.189 HD
ATOM     26  C   UNL     1      -5.745  -1.303   2.414  0.00  0.00    +0.068 C 
ENDBRANCH  18  21
ENDBRANCH  11  18
ENDBRANCH   1  16
BRANCH   6  27
ATOM     27  C   UNL     1       5.329   0.191   0.250  0.00  0.00    +0.412 C 
ATOM     28  F   UNL     1       5.137  -0.024  -1.119  0.00  0.00    -0.168 F 
ATOM     29  F   UNL     1       6.670  -0.038   0.575  0.00  0.00    -0.168 F 
ATOM     30  F   UNL     1       4.517  -0.686   0.978  0.00  0.00    -0.168 F 
ENDBRANCH   6  27
BRANCH   8  31
ATOM     31  C   UNL     1       6.222   4.993  -0.825  0.00  0.00    +0.003 C 
ATOM     32  C   UNL     1       5.690   6.420  -0.682  0.00  0.00    +0.009 C 
ATOM     33  C   UNL     1       7.636   4.915  -0.245  0.00  0.00    +0.009 C 
ENDBRANCH   8  31
TORSDOF 5
