REMARK  Name = ZINC63245240
REMARK  7 active torsions:
REMARK  status: ('A' for Active; 'I' for Inactive)
REMARK    1  A    between atoms: C_5  and  C_7
REMARK    2  A    between atoms: C_7  and  N_8
REMARK    3  A    between atoms: C_9  and  C_11
REMARK    4  A    between atoms: C_11  and  S_12
REMARK    5  A    between atoms: S_12  and  C_13
REMARK    6  A    between atoms: C_16  and  C_25
REMARK    7  A    between atoms: N_17  and  C_18
REMARK                            x       y       z     vdW  Elec       q    Type
REMARK                         _______ _______ _______ _____ _____    ______ ____
ROOT
ATOM      1  C   UNL     1       2.163  -6.757   4.629  0.00  0.00    +0.197 A 
ATOM      2  N   UNL     1       2.333  -5.914   5.637  0.00  0.00    -0.122 NA
ATOM      3  N   UNL     1       2.547  -6.562   6.726  0.00  0.00    -0.128 NA
ATOM      4  C   UNL     1       2.528  -7.865   6.483  0.00  0.00    +0.168 A 
ATOM      5  N   UNL     1       2.275  -8.020   5.130  0.00  0.00    -0.270 N 
ENDROOT
BRANCH   4   6
ATOM      6  C   UNL     1       2.722  -8.892   7.420  0.00  0.00    +0.025 C 
ATOM      7  C   UNL     1       2.965  -8.752   8.786  0.00  0.00    +0.006 A 
ATOM      8  C   UNL     1       3.090  -7.622   9.622  0.00  0.00    +0.010 A 
ATOM      9  C   UNL     1       3.333  -7.787  10.947  0.00  0.00    +0.001 A 
ATOM     10  C   UNL     1       3.466  -9.057  11.513  0.00  0.00    +0.002 A 
ATOM     11  C   UNL     1       3.358 -10.186  10.771  0.00  0.00    +0.026 A 
ATOM     12  C   UNL     1       3.104 -10.093   9.378  0.00  0.00    +0.043 A 
ATOM     13  N   UNL     1       2.958 -11.022   8.454  0.00  0.00    -0.380 N 
ATOM     14  C   UNL     1       2.703 -10.382   7.160  0.00  0.00    +0.152 C 
ATOM     15  H   UNL     1       3.009 -11.979   8.607  0.00  0.00    +0.160 HD
ENDBRANCH   4   6
BRANCH   5  16
ATOM     16  C   UNL     1       2.161  -9.224   4.422  0.00  0.00    +0.051 A 
ATOM     17  C   UNL     1       1.114 -10.094   4.695  0.00  0.00    +0.028 A 
ATOM     18  C   UNL     1       1.003 -11.280   3.996  0.00  0.00    +0.022 A 
ATOM     19  C   UNL     1       1.935 -11.602   3.025  0.00  0.00    +0.041 A 
ATOM     20  C   UNL     1       2.980 -10.737   2.752  0.00  0.00    +0.022 A 
ATOM     21  C   UNL     1       3.092  -9.547   3.444  0.00  0.00    +0.028 A 
ATOM     22 CL   UNL     1       1.794 -13.094   2.149  0.00  0.00    -0.084 Cl
ENDBRANCH   5  16
BRANCH   1  23
ATOM     23  S   UNL     1       1.844  -6.325   2.951  0.00  0.00    -0.076 S 
BRANCH  23  24
ATOM     24  C   UNL     1       1.819  -4.511   2.961  0.00  0.00    +0.173 C 
BRANCH  24  26
ATOM     25  N   UNL     1       1.489  -2.679   1.333  0.00  0.00    -0.310 N 
ATOM     26  C   UNL     1       1.552  -4.005   1.567  0.00  0.00    +0.224 C 
ATOM     27  O   UNL     1       1.393  -4.790   0.657  0.00  0.00    -0.275 OA
ATOM     28  H   UNL     1       1.615  -2.051   2.062  0.00  0.00    +0.149 HD
BRANCH  25  29
ATOM     29  C   UNL     1       1.229  -2.186  -0.022  0.00  0.00    +0.141 C 
BRANCH  29  34
ATOM     30  C   UNL     1      -0.017   1.378   0.010  0.00  0.00    +0.000 A 
ATOM     31  C   UNL     1       1.171   2.086   0.002  0.00  0.00    +0.001 A 
ATOM     32  C   UNL     1       2.377   1.412  -0.013  0.00  0.00    +0.020 A 
ATOM     33  C   UNL     1       2.397   0.029  -0.021  0.00  0.00    +0.046 A 
ATOM     34  C   UNL     1       1.208  -0.679  -0.013  0.00  0.00    -0.012 A 
ATOM     35  C   UNL     1       0.002  -0.004   0.002  0.00  0.00    +0.006 A 
ATOM     36 CL   UNL     1       3.912  -0.818  -0.041  0.00  0.00    -0.083 Cl
ENDBRANCH  29  34
ENDBRANCH  25  29
ENDBRANCH  24  26
ENDBRANCH  23  24
ENDBRANCH   1  23
TORSDOF 7
