REMARK  Name = ZINC38667320
REMARK  9 active torsions:
REMARK  status: ('A' for Active; 'I' for Inactive)
REMARK    1  A    between atoms: C_1  and  C_2
REMARK    2  A    between atoms: C_8  and  C_10
REMARK    3  A    between atoms: C_10  and  C_12
REMARK    4  A    between atoms: C_10  and  O_13
REMARK    5  A    between atoms: O_13  and  C_14
REMARK    6  A    between atoms: C_14  and  C_16
REMARK    7  A    between atoms: C_19  and  N_22
REMARK    8  A    between atoms: N_22  and  S_23
REMARK    9  A    between atoms: S_23  and  C_26
REMARK                            x       y       z     vdW  Elec       q    Type
REMARK                         _______ _______ _______ _____ _____    ______ ____
ROOT
ATOM      1  C   UNL     1      -7.304  -4.615  -0.853  0.00  0.00    +0.059 A 
ATOM      2  C   UNL     1      -7.785  -3.421  -0.307  0.00  0.00    +0.017 A 
ATOM      3  C   UNL     1      -9.105  -3.083  -0.457  0.00  0.00    +0.025 A 
ATOM      4  C   UNL     1      -9.967  -3.928  -1.151  0.00  0.00    +0.048 A 
ATOM      5  C   UNL     1      -9.492  -5.118  -1.696  0.00  0.00    +0.025 A 
ATOM      6  C   UNL     1      -8.171  -5.459  -1.555  0.00  0.00    +0.017 A 
ENDROOT
BRANCH   1   7
ATOM      7  C   UNL     1      -5.885  -4.981  -0.694  0.00  0.00    +0.340 C 
ATOM      8  O   UNL     1      -5.468  -6.017  -1.174  0.00  0.00    -0.245 OA
BRANCH   7   9
ATOM      9  O   UNL     1      -5.051  -4.168  -0.017  0.00  0.00    -0.449 OA
BRANCH   9  10
ATOM     10  C   UNL     1      -3.689  -4.585   0.098  0.00  0.00    +0.259 C 
ATOM     11  C   UNL     1      -3.519  -5.428   1.363  0.00  0.00    +0.062 C 
BRANCH  10  19
ATOM     12  C   UNL     1       0.035   1.233   0.475  0.00  0.00    +0.089 C 
ATOM     13  C   UNL     1       0.030  -0.272   0.393  0.00  0.00    +0.136 A 
ATOM     14  C   UNL     1      -1.061  -1.055   0.333  0.00  0.00    +0.091 A 
ATOM     15  C   UNL     1      -0.632  -2.399   0.265  0.00  0.00    +0.168 A 
ATOM     16  N   UNL     1       0.676  -2.406   0.284  0.00  0.00    -0.063 NA
ATOM     17  O   UNL     1       1.115  -1.062   0.360  0.00  0.00    -0.358 OA
ATOM     18  N   UNL     1      -1.458  -3.522   0.190  0.00  0.00    -0.265 N 
ATOM     19  C   UNL     1      -2.797  -3.373   0.178  0.00  0.00    +0.259 C 
ATOM     20  O   UNL     1      -3.285  -2.264   0.232  0.00  0.00    -0.271 OA
ATOM     21  H   UNL     1      -1.068  -4.409   0.147  0.00  0.00    +0.156 HD
ENDBRANCH  10  19
ENDBRANCH   9  10
ENDBRANCH   7   9
ENDBRANCH   1   7
BRANCH   4  22
ATOM     22  N   UNL     1     -11.306  -3.583  -1.300  0.00  0.00    -0.216 N 
ATOM     23  H   UNL     1     -11.812  -3.262  -0.538  0.00  0.00    +0.174 HD
BRANCH  22  24
ATOM     24  S   UNL     1     -12.036  -3.719  -2.781  0.00  0.00    +0.072 S 
ATOM     25  O   UNL     1     -11.786  -5.041  -3.236  0.00  0.00    -0.150 OA
ATOM     26  O   UNL     1     -13.350  -3.198  -2.635  0.00  0.00    -0.150 OA
BRANCH  24  27
ATOM     27  C   UNL     1     -11.185  -2.638  -3.882  0.00  0.00    +0.110 A 
ATOM     28  C   UNL     1     -11.568  -1.232  -3.928  0.00  0.00    +0.031 A 
ATOM     29  C   UNL     1     -10.956  -0.350  -4.749  0.00  0.00    +0.027 A 
ATOM     30  C   UNL     1      -9.878  -0.807  -5.623  0.00  0.00    +0.056 A 
ATOM     31  N   UNL     1      -9.102  -0.235  -6.509  0.00  0.00    -0.268 N 
ATOM     32  C   UNL     1      -8.256  -1.188  -7.025  0.00  0.00    +0.308 C 
ATOM     33  O   UNL     1      -7.410  -0.986  -7.870  0.00  0.00    -0.252 OA
ATOM     34  N   UNL     1      -8.512  -2.405  -6.438  0.00  0.00    -0.267 N 
ATOM     35  C   UNL     1      -9.485  -2.252  -5.575  0.00  0.00    +0.058 A 
ATOM     36  C   UNL     1     -10.195  -3.136  -4.654  0.00  0.00    +0.054 A 
ATOM     37  H   UNL     1      -8.050  -3.236  -6.630  0.00  0.00    +0.156 HD
ATOM     38  H   UNL     1      -9.121   0.702  -6.760  0.00  0.00    +0.156 HD
ENDBRANCH  24  27
ENDBRANCH  22  24
ENDBRANCH   4  22
TORSDOF 7
