REMARK  Name = ZINC12311241
REMARK  11 active torsions:
REMARK  status: ('A' for Active; 'I' for Inactive)
REMARK    1  A    between atoms: C_1  and  C_2
REMARK    2  A    between atoms: C_2  and  N_3
REMARK    3  A    between atoms: N_3  and  C_4
REMARK    4  A    between atoms: N_3  and  S_6
REMARK    5  A    between atoms: C_4  and  C_5
REMARK    6  A    between atoms: S_6  and  C_9
REMARK    7  A    between atoms: C_12  and  C_15
REMARK    8  A    between atoms: C_18  and  C_20
REMARK    9  A    between atoms: C_23  and  C_38
REMARK   10  A    between atoms: C_34  and  C_36
REMARK   11  A    between atoms: C_34  and  C_37
REMARK                            x       y       z     vdW  Elec       q    Type
REMARK                         _______ _______ _______ _____ _____    ______ ____
ROOT
ATOM      1  C   UNL     1      -4.839   3.997   3.533  0.00  0.00    +0.135 A 
ATOM      2  C   UNL     1      -6.123   4.363   3.277  0.00  0.00    +0.050 A 
ATOM      3  C   UNL     1      -6.345   5.574   3.964  0.00  0.00    +0.046 A 
ATOM      4  C   UNL     1      -5.197   5.883   4.598  0.00  0.00    +0.118 A 
ATOM      5  O   UNL     1      -4.292   4.926   4.340  0.00  0.00    -0.459 OA
ENDROOT
BRANCH   4   6
ATOM      6  C   UNL     1      -4.970   7.099   5.460  0.00  0.00    +0.125 C 
ATOM      7  C   UNL     1      -4.606   6.665   6.851  0.00  0.00    +0.030 A 
ATOM      8  C   UNL     1      -5.402   6.117   7.847  0.00  0.00    +0.066 A 
ATOM      9  N   UNL     1      -4.650   5.893   8.899  0.00  0.00    -0.177 NA
ATOM     10  N   UNL     1      -3.337   6.295   8.602  0.00  0.00    -0.263 N 
ATOM     11  H   UNL     1      -2.573   6.242   9.198  0.00  0.00    +0.190 HD
ATOM     12  C   UNL     1      -3.330   6.767   7.342  0.00  0.00    +0.123 A 
ATOM     13  N   UNL     1      -2.298   7.290   6.572  0.00  0.00    -0.303 N 
ATOM     14  C   UNL     1      -2.616   7.975   5.426  0.00  0.00    +0.017 C 
ATOM     15  C   UNL     1      -3.847   7.928   4.874  0.00  0.00    +0.027 C 
ATOM     16  C   UNL     1      -4.143   8.662   3.712  0.00  0.00    +0.162 C 
ATOM     17  O   UNL     1      -5.260   8.597   3.238  0.00  0.00    -0.292 OA
ATOM     18  C   UNL     1      -3.112   9.526   3.043  0.00  0.00    +0.086 C 
ATOM     19  C   UNL     1      -2.112  10.013   4.097  0.00  0.00    -0.023 C 
ATOM     20  C   UNL     1      -1.514   8.791   4.790  0.00  0.00    +0.058 C 
ATOM     21  C   UNL     1      -2.831  10.889   5.125  0.00  0.00    +0.011 C 
ATOM     22  C   UNL     1      -1.000  10.818   3.421  0.00  0.00    +0.011 C 
ATOM     23  C   UNL     1      -6.877   5.829   7.739  0.00  0.00    +0.068 C 
ATOM     24  H   UNL     1      -1.373   7.173   6.839  0.00  0.00    +0.153 HD
ENDBRANCH   4   6
BRANCH   1  28
ATOM     25  C   UNL     1      -2.898   0.520   2.058  0.00  0.00    +0.106 A 
ATOM     26  C   UNL     1      -2.212   1.395   2.882  0.00  0.00    +0.029 A 
ATOM     27  C   UNL     1      -2.837   2.526   3.365  0.00  0.00    +0.013 A 
ATOM     28  C   UNL     1      -4.163   2.788   3.019  0.00  0.00    +0.017 A 
ATOM     29  C   UNL     1      -4.849   1.902   2.187  0.00  0.00    +0.013 A 
ATOM     30  C   UNL     1      -4.211   0.777   1.707  0.00  0.00    +0.029 A 
BRANCH  25  31
ATOM     31  S   UNL     1      -2.092  -0.923   1.446  0.00  0.00    +0.061 S 
ATOM     32  O   UNL     1      -3.116  -1.857   1.133  0.00  0.00    -0.153 OA
ATOM     33  O   UNL     1      -1.043  -1.219   2.357  0.00  0.00    -0.153 OA
BRANCH  31  34
ATOM     34  N   UNL     1      -1.372  -0.511   0.012  0.00  0.00    -0.177 NA
BRANCH  34  36
ATOM     35  C   UNL     1      -0.019   1.526   0.010  0.00  0.00    +0.022 C 
ATOM     36  C   UNL     1       0.002  -0.004   0.002  0.00  0.00    +0.106 C 
ENDBRANCH  34  36
BRANCH  34  37
ATOM     37  C   UNL     1      -2.110  -0.654  -1.245  0.00  0.00    +0.106 C 
ATOM     38  C   UNL     1      -1.773  -2.003  -1.884  0.00  0.00    +0.022 C 
ENDBRANCH  34  37
ENDBRANCH  31  34
ENDBRANCH  25  31
ENDBRANCH   1  28
TORSDOF 6
