REMARK  Name = ZINC19826099
REMARK  7 active torsions:
REMARK  status: ('A' for Active; 'I' for Inactive)
REMARK    1  A    between atoms: C_1  and  C_2
REMARK    2  A    between atoms: C_9  and  C_14
REMARK    3  A    between atoms: C_14  and  C_16
REMARK    4  A    between atoms: C_14  and  N_28
REMARK    5  A    between atoms: N_20  and  C_21
REMARK    6  A    between atoms: C_21  and  C_22
REMARK    7  A    between atoms: N_31  and  C_34
REMARK                            x       y       z     vdW  Elec       q    Type
REMARK                         _______ _______ _______ _____ _____    ______ ____
ROOT
ATOM      1  C   UNL     1       1.667   6.426  -1.702  0.00  0.00    +0.162 C 
ENDROOT
BRANCH   1  10
ATOM      2  C   UNL     1       4.581  11.569   2.845  0.00  0.00    +0.044 C 
ATOM      3  C   UNL     1       4.434  10.957   1.476  0.00  0.00    -0.050 A 
ATOM      4  C   UNL     1       5.120  11.505   0.400  0.00  0.00    +0.005 A 
ATOM      5  C   UNL     1       5.000  10.963  -0.861  0.00  0.00    +0.026 A 
ATOM      6  C   UNL     1       4.184   9.854  -1.061  0.00  0.00    +0.049 A 
ATOM      7  C   UNL     1       3.490   9.301   0.032  0.00  0.00    -0.001 A 
ATOM      8  C   UNL     1       3.627   9.869   1.303  0.00  0.00    +0.013 A 
ATOM      9  C   UNL     1       2.633   8.134  -0.188  0.00  0.00    +0.021 A 
ATOM     10  C   UNL     1       2.540   7.627  -1.442  0.00  0.00    +0.042 A 
ATOM     11  C   UNL     1       3.261   8.215  -2.502  0.00  0.00    +0.254 A 
ATOM     12  O   UNL     1       3.167   7.740  -3.621  0.00  0.00    -0.268 OA
ATOM     13  N   UNL     1       4.046   9.290  -2.311  0.00  0.00    -0.322 N 
ATOM     14  H   UNL     1       4.582   9.719  -3.170  0.00  0.00    +0.169 HD
ENDBRANCH   1  10
BRANCH   1  15
ATOM     15  N   UNL     1       0.705   6.742  -2.767  0.00  0.00    -0.286 NA
ATOM     16  C   UNL     1      -0.090   7.929  -2.423  0.00  0.00    +0.104 C 
ATOM     17  C   UNL     1      -1.022   8.271  -3.589  0.00  0.00    +0.120 C 
ATOM     18  N   UNL     1      -1.892   7.120  -3.870  0.00  0.00    -0.327 N 
ATOM     19  C   UNL     1      -1.096   5.934  -4.214  0.00  0.00    +0.120 C 
ATOM     20  C   UNL     1      -0.165   5.592  -3.049  0.00  0.00    +0.104 C 
BRANCH  18  21
ATOM     21  C   UNL     1      -2.807   7.421  -4.884  0.00  0.00    +0.030 A 
ATOM     22  C   UNL     1      -2.864   6.633  -6.026  0.00  0.00    +0.026 A 
ATOM     23  C   UNL     1      -3.772   6.929  -7.024  0.00  0.00    +0.040 A 
ATOM     24  C   UNL     1      -4.618   8.017  -6.890  0.00  0.00    +0.124 A 
ATOM     25  C   UNL     1      -4.561   8.807  -5.755  0.00  0.00    +0.040 A 
ATOM     26  C   UNL     1      -3.658   8.511  -4.752  0.00  0.00    +0.026 A 
ATOM     27  F   UNL     1      -5.503   8.307  -7.870  0.00  0.00    -0.205 F 
ENDBRANCH  18  21
ENDBRANCH   1  15
BRANCH   1  28
ATOM     28  C   UNL     1       2.525   5.264  -2.130  0.00  0.00    +0.173 A 
ATOM     29  N   UNL     1       3.095   5.100  -3.299  0.00  0.00    -0.111 NA
ATOM     30  N   UNL     1       3.742   3.986  -3.273  0.00  0.00    -0.023 NA
ATOM     31  N   UNL     1       3.606   3.439  -2.116  0.00  0.00    -0.044 NA
ATOM     32  N   UNL     1       2.858   4.194  -1.384  0.00  0.00    -0.223 N 
BRANCH  32  33
ATOM     33  C   UNL     1       2.451   3.937  -0.001  0.00  0.00    +0.182 C 
BRANCH  33  34
ATOM     34  C   UNL     1       1.156   3.165   0.008  0.00  0.00    -0.026 A 
ATOM     35  C   UNL     1       1.175   1.783   0.000  0.00  0.00    +0.005 A 
ATOM     36  C   UNL     1      -0.013   1.076   0.008  0.00  0.00    +0.000 A 
ATOM     37  C   UNL     1      -1.219   1.751   0.017  0.00  0.00    +0.000 A 
ATOM     38  C   UNL     1      -1.238   3.133   0.030  0.00  0.00    +0.000 A 
ATOM     39  C   UNL     1      -0.050   3.840   0.023  0.00  0.00    +0.005 A 
ENDBRANCH  33  34
ENDBRANCH  32  33
ENDBRANCH   1  28
TORSDOF 6
