REMARK  Name = ZINC25107466
REMARK  7 active torsions:
REMARK  status: ('A' for Active; 'I' for Inactive)
REMARK    1  A    between atoms: C_1  and  S_2
REMARK    2  A    between atoms: S_2  and  C_3
REMARK    3  A    between atoms: C_3  and  C_4
REMARK    4  A    between atoms: C_4  and  C_5
REMARK    5  A    between atoms: C_5  and  C_7
REMARK    6  A    between atoms: C_5  and  N_24
REMARK    7  A    between atoms: C_25  and  C_27
REMARK                            x       y       z     vdW  Elec       q    Type
REMARK                         _______ _______ _______ _____ _____    ______ ____
ROOT
ATOM      1  C   UNL     1       1.806  -3.790  -3.136  0.00  0.00    +0.236 C 
ATOM      2  O   UNL     1       2.893  -4.328  -3.115  0.00  0.00    -0.274 OA
ATOM      3  N   UNL     1       0.693  -4.529  -3.309  0.00  0.00    -0.300 N 
ATOM      4  C   UNL     1      -0.620  -3.884  -3.446  0.00  0.00    +0.110 C 
ATOM      5  C   UNL     1      -1.577  -4.489  -2.414  0.00  0.00    +0.047 C 
ATOM      6  C   UNL     1      -1.602  -6.009  -2.576  0.00  0.00    +0.064 C 
ATOM      7  C   UNL     1      -0.204  -6.579  -2.334  0.00  0.00    +0.047 C 
ATOM      8  C   UNL     1       0.769  -5.995  -3.370  0.00  0.00    +0.110 C 
ATOM      9  C   UNL     1      -2.574  -6.609  -1.596  0.00  0.00    +0.057 A 
ATOM     10  C   UNL     1      -3.805  -7.053  -1.938  0.00  0.00    +0.039 A 
ATOM     11  N   UNL     1      -4.396  -7.520  -0.838  0.00  0.00    -0.349 N 
ATOM     12  C   UNL     1      -3.581  -7.384   0.176  0.00  0.00    +0.171 A 
ATOM     13  N   UNL     1      -2.432  -6.817  -0.261  0.00  0.00    -0.348 N 
ATOM     14  H   UNL     1      -1.654  -6.600   0.277  0.00  0.00    +0.166 HD
ATOM     15  C   UNL     1      -4.340  -6.989  -3.348  0.00  0.00    +0.070 C 
ATOM     16  C   UNL     1      -3.459  -6.017  -4.144  0.00  0.00    +0.088 C 
ATOM     17  N   UNL     1      -2.043  -6.350  -3.939  0.00  0.00    -0.305 NA
ATOM     18  H   UNL     1      -1.462  -5.901  -4.630  0.00  0.00    +0.123 HD
ATOM     19  H   UNL     1      -5.287  -7.901  -0.796  0.00  0.00    +0.166 HD
ENDROOT
BRANCH   1  20
ATOM     20  C   UNL     1       1.701  -2.296  -2.970  0.00  0.00    +0.160 C 
BRANCH  20  21
ATOM     21  N   UNL     1       2.967  -1.671  -3.359  0.00  0.00    -0.300 N 
ATOM     22  C   UNL     1       2.986  -0.390  -3.779  0.00  0.00    +0.245 C 
ATOM     23  O   UNL     1       1.951   0.246  -3.834  0.00  0.00    -0.270 OA
ATOM     24  H   UNL     1       3.793  -2.179  -3.315  0.00  0.00    +0.150 HD
BRANCH  22  25
ATOM     25  C   UNL     1       4.261   0.240  -4.171  0.00  0.00    +0.040 A 
ATOM     26  C   UNL     1       5.450  -0.492  -4.114  0.00  0.00    +0.017 A 
ATOM     27  C   UNL     1       6.640   0.098  -4.482  0.00  0.00    +0.050 A 
ATOM     28  C   UNL     1       6.663   1.419  -4.910  0.00  0.00    +0.166 A 
ATOM     29  C   UNL     1       5.479   2.155  -4.968  0.00  0.00    +0.167 A 
ATOM     30  C   UNL     1       4.282   1.567  -4.606  0.00  0.00    +0.062 A 
ATOM     31  O   UNL     1       5.769   3.412  -5.416  0.00  0.00    -0.453 OA
ATOM     32  C   UNL     1       7.191   3.562  -5.240  0.00  0.00    +0.466 C 
ATOM     33  O   UNL     1       7.691   2.215  -5.321  0.00  0.00    -0.453 OA
ENDBRANCH  22  25
ENDBRANCH  20  21
BRANCH  20  34
ATOM     34  C   UNL     1       1.399  -1.966  -1.506  0.00  0.00    +0.042 C 
BRANCH  34  35
ATOM     35  C   UNL     1       1.143  -0.465  -1.364  0.00  0.00    +0.071 C 
BRANCH  35  37
ATOM     36  C   UNL     1       0.509   1.719   0.368  0.00  0.00    +0.084 C 
ATOM     37  S   UNL     1       0.784  -0.074   0.370  0.00  0.00    -0.164 S 
ENDBRANCH  35  37
ENDBRANCH  34  35
ENDBRANCH  20  34
ENDBRANCH   1  20
TORSDOF 6
