REMARK  Name = ZINC22442063
REMARK  5 active torsions:
REMARK  status: ('A' for Active; 'I' for Inactive)
REMARK    1  A    between atoms: C_4  and  C_7
REMARK    2  A    between atoms: C_7  and  N_8
REMARK    3  A    between atoms: C_18  and  N_20
REMARK    4  A    between atoms: N_20  and  C_21
REMARK    5  A    between atoms: C_31  and  C_34
REMARK                            x       y       z     vdW  Elec       q    Type
REMARK                         _______ _______ _______ _____ _____    ______ ____
ROOT
ATOM      1  N   UNL     1       3.700  -5.551   0.832  0.00  0.00    -0.295 NA
ATOM      2  C   UNL     1       3.633  -4.540  -0.232  0.00  0.00    +0.103 C 
ATOM      3  C   UNL     1       2.306  -3.784  -0.131  0.00  0.00    +0.123 C 
ATOM      4  N   UNL     1       1.193  -4.737  -0.242  0.00  0.00    -0.297 N 
ATOM      5  C   UNL     1       1.260  -5.748   0.822  0.00  0.00    +0.123 C 
ATOM      6  C   UNL     1       2.587  -6.504   0.721  0.00  0.00    +0.103 C 
ATOM      7  C   UNL     1      -0.021  -4.083  -0.226  0.00  0.00    +0.220 A 
ATOM      8  N   UNL     1      -1.135  -4.800  -0.318  0.00  0.00    -0.218 NA
ATOM      9  C   UNL     1      -2.323  -4.220  -0.307  0.00  0.00    +0.059 A 
ATOM     10  C   UNL     1      -2.385  -2.827  -0.201  0.00  0.00    +0.079 A 
ATOM     11  C   UNL     1      -1.182  -2.095  -0.102  0.00  0.00    +0.139 A 
ATOM     12  N   UNL     1      -0.032  -2.762  -0.124  0.00  0.00    -0.199 NA
ATOM     13  C   UNL     1      -3.679  -2.141  -0.197  0.00  0.00    +0.169 C 
ATOM     14  O   UNL     1      -3.752  -0.935  -0.317  0.00  0.00    -0.292 OA
ATOM     15  C   UNL     1      -4.923  -2.991  -0.037  0.00  0.00    +0.091 C 
ATOM     16  C   UNL     1      -4.746  -4.236  -0.915  0.00  0.00    +0.068 C 
ATOM     17  C   UNL     1      -3.566  -5.058  -0.403  0.00  0.00    +0.068 C 
ENDROOT
BRANCH  16  18
ATOM     18  C   UNL     1      -6.000  -5.070  -0.862  0.00  0.00    +0.109 A 
ATOM     19  C   UNL     1      -6.777  -5.391  -1.913  0.00  0.00    +0.045 A 
ATOM     20  C   UNL     1      -7.837  -6.182  -1.413  0.00  0.00    +0.041 A 
ATOM     21  C   UNL     1      -7.649  -6.291  -0.085  0.00  0.00    +0.195 A 
ATOM     22  O   UNL     1      -6.535  -5.616   0.242  0.00  0.00    -0.468 OA
ENDBRANCH  16  18
BRANCH  11  23
ATOM     23  N   UNL     1      -1.199  -0.721   0.010  0.00  0.00    -0.299 N 
ATOM     24  H   UNL     1      -2.158  -0.186   0.069  0.00  0.00    +0.154 HD
BRANCH  23  25
ATOM     25  C   UNL     1       0.004  -0.008   0.049  0.00  0.00    +0.032 A 
ATOM     26  C   UNL     1       1.107  -0.538   0.706  0.00  0.00    +0.025 A 
ATOM     27  C   UNL     1       2.293   0.168   0.742  0.00  0.00    +0.022 A 
ATOM     28  C   UNL     1       2.384   1.403   0.124  0.00  0.00    +0.041 A 
ATOM     29  C   UNL     1       1.286   1.934  -0.530  0.00  0.00    +0.022 A 
ATOM     30  C   UNL     1       0.097   1.232  -0.570  0.00  0.00    +0.025 A 
ATOM     31 CL   UNL     1       3.876   2.288   0.171  0.00  0.00    -0.084 Cl
ENDBRANCH  23  25
ENDBRANCH  11  23
BRANCH   1  32
ATOM     32  C   UNL     1       4.993  -6.248   0.815  0.00  0.00    +0.119 C 
BRANCH  32  36
ATOM     33  C   UNL     1       5.365  -8.646   4.330  0.00  0.00    +0.000 A 
ATOM     34  C   UNL     1       4.801  -9.179   3.186  0.00  0.00    +0.000 A 
ATOM     35  C   UNL     1       4.681  -8.403   2.049  0.00  0.00    +0.005 A 
ATOM     36  C   UNL     1       5.125  -7.094   2.055  0.00  0.00    -0.033 A 
ATOM     37  C   UNL     1       5.694  -6.563   3.197  0.00  0.00    +0.005 A 
ATOM     38  C   UNL     1       5.809  -7.337   4.337  0.00  0.00    +0.000 A 
ENDBRANCH  32  36
ENDBRANCH   1  32
TORSDOF 5
