REMARK  Name = ZINC63714547
REMARK  4 active torsions:
REMARK  status: ('A' for Active; 'I' for Inactive)
REMARK    1  A    between atoms: C_1  and  C_2
REMARK    2  A    between atoms: C_5  and  N_12
REMARK    3  A    between atoms: C_13  and  C_15
REMARK    4  A    between atoms: C_15  and  N_16
REMARK                            x       y       z     vdW  Elec       q    Type
REMARK                         _______ _______ _______ _____ _____    ______ ____
ROOT
ATOM      1  N   UNL     1       0.059  -4.191  -0.064  0.00  0.00    -0.282 N 
ATOM      2  C   UNL     1      -0.041  -4.838  -1.242  0.00  0.00    +0.236 C 
ATOM      3  O   UNL     1      -0.054  -4.210  -2.280  0.00  0.00    -0.274 OA
ATOM      4  H   UNL     1       0.151  -4.695   0.759  0.00  0.00    +0.155 HD
ENDROOT
BRANCH   1   9
ATOM      5  C   UNL     1      -0.095   1.501   0.024  0.00  0.00    +0.044 C 
ATOM      6  C   UNL     1      -0.048  -0.005   0.011  0.00  0.00    -0.040 A 
ATOM      7  C   UNL     1      -0.624  -0.696  -1.015  0.00  0.00    +0.006 A 
ATOM      8  C   UNL     1      -0.590  -2.084  -1.043  0.00  0.00    +0.026 A 
ATOM      9  C   UNL     1       0.029  -2.792  -0.030  0.00  0.00    +0.059 A 
ATOM     10  C   UNL     1       0.625  -2.102   1.030  0.00  0.00    +0.087 A 
ATOM     11  C   UNL     1       0.592  -0.696   1.049  0.00  0.00    +0.024 A 
ATOM     12  C   UNL     1       1.270  -0.285   2.221  0.00  0.00    +0.143 A 
ATOM     13  N   UNL     1       1.685  -1.343   2.856  0.00  0.00    -0.181 NA
ATOM     14  N   UNL     1       1.300  -2.494   2.158  0.00  0.00    -0.275 N 
ATOM     15  H   UNL     1       1.488  -3.409   2.421  0.00  0.00    +0.189 HD
ENDBRANCH   1   9
BRANCH   2  16
ATOM     16  C   UNL     1      -0.134  -6.342  -1.270  0.00  0.00    +0.227 C 
BRANCH  16  17
ATOM     17  N   UNL     1      -0.233  -6.800  -2.659  0.00  0.00    -0.194 N 
ATOM     18  C   UNL     1      -1.395  -6.899  -3.441  0.00  0.00    +0.061 A 
ATOM     19  C   UNL     1      -2.703  -6.588  -3.072  0.00  0.00    +0.025 A 
ATOM     20  C   UNL     1      -3.751  -6.743  -3.969  0.00  0.00    +0.002 A 
ATOM     21  C   UNL     1      -3.564  -7.202  -5.240  0.00  0.00    +0.009 A 
ATOM     22  C   UNL     1      -2.264  -7.528  -5.658  0.00  0.00    -0.014 A 
ATOM     23  C   UNL     1      -1.206  -7.367  -4.740  0.00  0.00    +0.031 A 
ATOM     24  C   UNL     1       0.104  -7.683  -5.119  0.00  0.00    +0.118 A 
ATOM     25  C   UNL     1       0.367  -8.140  -6.356  0.00  0.00    +0.029 A 
ATOM     26  C   UNL     1      -0.677  -8.303  -7.277  0.00  0.00    +0.003 A 
ATOM     27  C   UNL     1      -1.966  -8.008  -6.945  0.00  0.00    +0.009 A 
ATOM     28  S   UNL     1       1.020  -7.308  -3.651  0.00  0.00    +0.076 S 
ATOM     29  O   UNL     1       1.840  -6.180  -3.926  0.00  0.00    -0.150 OA
ATOM     30  O   UNL     1       1.518  -8.531  -3.128  0.00  0.00    -0.150 OA
ENDBRANCH  16  17
ENDBRANCH   2  16
TORSDOF 3
