REMARK  Name = ZINC21736946
REMARK  6 active torsions:
REMARK  status: ('A' for Active; 'I' for Inactive)
REMARK    1  A    between atoms: C_1  and  C_2
REMARK    2  A    between atoms: N_10  and  N_14
REMARK    3  A    between atoms: C_15  and  C_17
REMARK    4  A    between atoms: C_17  and  O_18
REMARK    5  A    between atoms: O_18  and  C_19
REMARK    6  A    between atoms: C_19  and  C_21
REMARK                            x       y       z     vdW  Elec       q    Type
REMARK                         _______ _______ _______ _____ _____    ______ ____
ROOT
ATOM      1  N   UNL     1      -2.306   5.880  -6.200  0.00  0.00    -0.221 N 
ATOM      2  C   UNL     1      -1.688   5.271  -5.169  0.00  0.00    +0.267 C 
ATOM      3  O   UNL     1      -1.180   5.933  -4.290  0.00  0.00    -0.271 OA
ATOM      4  H   UNL     1      -2.767   5.279  -6.998  0.00  0.00    +0.174 HD
ENDROOT
BRANCH   1  14
ATOM      5  C   UNL     1      -2.220  13.782  -6.928  0.00  0.00    +0.007 C 
ATOM      6  C   UNL     1      -1.802  12.343  -7.237  0.00  0.00    -0.014 C 
ATOM      7  C   UNL     1      -1.238  11.693  -5.972  0.00  0.00    +0.006 C 
ATOM      8  C   UNL     1      -0.809  10.258  -6.285  0.00  0.00    +0.035 C 
ATOM      9  C   UNL     1      -2.009   9.465  -6.793  0.00  0.00    +0.114 C 
ATOM     10  C   UNL     1      -2.596  10.115  -8.041  0.00  0.00    +0.035 C 
ATOM     11  C   UNL     1      -3.018  11.552  -7.720  0.00  0.00    +0.006 C 
ATOM     12  C   UNL     1      -1.611   8.036  -7.082  0.00  0.00    +0.263 C 
ATOM     13  O   UNL     1      -0.790   7.650  -7.887  0.00  0.00    -0.271 OA
ATOM     14  N   UNL     1      -2.362   7.279  -6.256  0.00  0.00    -0.137 N 
ATOM     15  C   UNL     1      -3.172   8.030  -5.500  0.00  0.00    +0.326 C 
ATOM     16  O   UNL     1      -3.948   7.575  -4.682  0.00  0.00    -0.251 OA
ATOM     17  N   UNL     1      -3.029   9.346  -5.744  0.00  0.00    -0.284 N 
ATOM     18  H   UNL     1      -3.502  10.250  -5.331  0.00  0.00    +0.151 HD
ENDBRANCH   1  14
BRANCH   2  19
ATOM     19  C   UNL     1      -1.627   3.766  -5.110  0.00  0.00    +0.329 C 
BRANCH  19  20
ATOM     20  O   UNL     1      -0.914   3.357  -3.913  0.00  0.00    -0.455 OA
BRANCH  20  21
ATOM     21  C   UNL     1      -0.771   2.038  -3.709  0.00  0.00    +0.314 C 
ATOM     22  O   UNL     1      -1.228   1.251  -4.504  0.00  0.00    -0.250 OA
BRANCH  21  23
ATOM     23  C   UNL     1      -0.043   1.539  -2.488  0.00  0.00    +0.070 C 
ATOM     24  C   UNL     1       1.393   2.069  -2.499  0.00  0.00    +0.021 C 
ATOM     25  C   UNL     1       2.133   1.562  -1.259  0.00  0.00    -0.008 C 
ATOM     26  C   UNL     1       1.417   2.055  -0.000  0.00  0.00    +0.007 C 
ATOM     27  C   UNL     1      -0.019   1.526   0.010  0.00  0.00    -0.008 C 
ATOM     28  C   UNL     1      -0.759   2.033  -1.229  0.00  0.00    +0.021 C 
ATOM     29  C   UNL     1       0.002  -0.004   0.002  0.00  0.00    +0.026 C 
ATOM     30  C   UNL     1       0.718  -0.497  -1.257  0.00  0.00    +0.047 C 
ATOM     31  C   UNL     1       2.154   0.032  -1.268  0.00  0.00    +0.026 C 
ATOM     32  C   UNL     1      -0.022   0.009  -2.496  0.00  0.00    +0.041 C 
ATOM     33 CL   UNL     1       0.743  -2.300  -1.267  0.00  0.00    -0.118 Cl
ENDBRANCH  21  23
ENDBRANCH  20  21
ENDBRANCH  19  20
ENDBRANCH   2  19
TORSDOF 5
