REMARK  Name = ZINC06257809
REMARK  7 active torsions:
REMARK  status: ('A' for Active; 'I' for Inactive)
REMARK    1  A    between atoms: C_1  and  C_2
REMARK    2  A    between atoms: C_7  and  C_8
REMARK    3  A    between atoms: C_7  and  C_9
REMARK    4  A    between atoms: N_12  and  C_15
REMARK    5  A    between atoms: C_15  and  C_16
REMARK    6  A    between atoms: C_16  and  C_17
REMARK    7  A    between atoms: N_19  and  N_20
REMARK                            x       y       z     vdW  Elec       q    Type
REMARK                         _______ _______ _______ _____ _____    ______ ____
ROOT
ATOM      1  C   UNL     1       1.464  -3.586  -4.551  0.00  0.00    +0.234 C 
ATOM      2  O   UNL     1       2.611  -3.266  -4.779  0.00  0.00    -0.274 OA
ATOM      3  N   UNL     1       0.808  -4.396  -5.406  0.00  0.00    -0.206 N 
ATOM      4  H   UNL     1      -0.110  -4.652  -5.223  0.00  0.00    +0.177 HD
ENDROOT
BRANCH   3   5
ATOM      5  N   UNL     1       1.451  -4.866  -6.558  0.00  0.00    -0.175 NA
ATOM      6  C   UNL     1       0.782  -5.564  -7.443  0.00  0.00    +0.152 C 
ATOM      7  C   UNL     1      -0.681  -5.796  -7.491  0.00  0.00    +0.028 A 
ATOM      8  C   UNL     1      -1.737  -5.386  -6.684  0.00  0.00    +0.012 A 
ATOM      9  C   UNL     1      -3.025  -5.774  -6.994  0.00  0.00    +0.001 A 
ATOM     10  C   UNL     1      -3.264  -6.566  -8.104  0.00  0.00    +0.002 A 
ATOM     11  C   UNL     1      -2.222  -6.978  -8.911  0.00  0.00    +0.024 A 
ATOM     12  C   UNL     1      -0.918  -6.598  -8.615  0.00  0.00    +0.043 A 
ATOM     13  N   UNL     1       0.290  -6.869  -9.249  0.00  0.00    -0.280 N 
ATOM     14  C   UNL     1       1.321  -6.285  -8.614  0.00  0.00    +0.269 C 
ATOM     15  O   UNL     1       2.490  -6.344  -8.943  0.00  0.00    -0.268 OA
ATOM     16  H   UNL     1       0.377  -7.407 -10.052  0.00  0.00    +0.155 HD
ENDBRANCH   3   5
BRANCH   1  17
ATOM     17  C   UNL     1       0.772  -3.080  -3.311  0.00  0.00    +0.117 C 
BRANCH  17  18
ATOM     18  C   UNL     1       1.731  -2.188  -2.520  0.00  0.00    +0.125 C 
BRANCH  18  29
ATOM     19  C   UNL     1      -0.598   1.528  -0.149  0.00  0.00    +0.021 C 
ATOM     20  C   UNL     1      -0.283   0.032  -0.095  0.00  0.00    +0.051 C 
ATOM     21  C   UNL     1      -1.533  -0.843   0.167  0.00  0.00    +0.017 C 
ATOM     22  C   UNL     1      -1.030  -2.084   0.928  0.00  0.00    +0.014 C 
ATOM     23  C   UNL     1       0.498  -1.896   1.089  0.00  0.00    +0.082 C 
ATOM     24  C   UNL     1       0.668  -0.351   1.074  0.00  0.00    -0.010 C 
ATOM     25  C   UNL     1       2.113   0.043   0.763  0.00  0.00    +0.012 C 
ATOM     26  C   UNL     1       0.201   0.269   2.392  0.00  0.00    +0.012 C 
ATOM     27  C   UNL     1       1.143  -2.418  -0.183  0.00  0.00    +0.225 C 
ATOM     28  O   UNL     1       1.728  -3.480  -0.178  0.00  0.00    -0.275 OA
ATOM     29  N   UNL     1       1.059  -1.696  -1.315  0.00  0.00    -0.241 N 
ATOM     30  C   UNL     1       0.383  -0.481  -1.359  0.00  0.00    +0.228 C 
ATOM     31  O   UNL     1       0.288   0.143  -2.394  0.00  0.00    -0.275 OA
ENDBRANCH  18  29
ENDBRANCH  17  18
ENDBRANCH   1  17
TORSDOF 4
