REMARK  Name = ZINC35640171
REMARK  8 active torsions:
REMARK  status: ('A' for Active; 'I' for Inactive)
REMARK    1  A    between atoms: C_1  and  N_2
REMARK    2  A    between atoms: N_2  and  C_3
REMARK    3  A    between atoms: N_2  and  C_4
REMARK    4  A    between atoms: C_4  and  C_5
REMARK    5  A    between atoms: C_5  and  N_6
REMARK    6  A    between atoms: C_7  and  C_9
REMARK    7  A    between atoms: C_15  and  C_17
REMARK    8  A    between atoms: C_27  and  C_29
REMARK                            x       y       z     vdW  Elec       q    Type
REMARK                         _______ _______ _______ _____ _____    ______ ____
ROOT
ATOM      1  C   UNL     1      -4.074  -4.806   1.511  0.00  0.00    +0.190 C 
ATOM      2  C   UNL     1      -4.968  -4.999   2.762  0.00  0.00    +0.194 C 
ATOM      3  O   UNL     1      -6.094  -5.733   2.227  0.00  0.00    -0.353 OA
ATOM      4  C   UNL     1      -5.540  -6.635   1.257  0.00  0.00    +0.142 C 
ATOM      5  N   UNL     1      -4.271  -6.069   0.766  0.00  0.00    -0.253 N 
ATOM      6  C   UNL     1      -3.454  -6.595  -0.169  0.00  0.00    +0.285 C 
ATOM      7  O   UNL     1      -3.723  -7.667  -0.678  0.00  0.00    -0.267 OA
ATOM      8  C   UNL     1      -5.282  -7.994   1.910  0.00  0.00    +0.074 C 
ATOM      9  C   UNL     1      -4.662  -8.943   0.880  0.00  0.00    +0.112 C 
ATOM     10  N   UNL     1      -5.532  -8.992  -0.302  0.00  0.00    -0.297 N 
ATOM     11  C   UNL     1      -5.906  -7.731  -0.958  0.00  0.00    +0.112 C 
ATOM     12  C   UNL     1      -6.515  -6.793   0.089  0.00  0.00    +0.074 C 
ATOM     13  C   UNL     1      -5.979 -10.171  -0.777  0.00  0.00    +0.247 C 
ATOM     14  O   UNL     1      -6.771 -10.194  -1.700  0.00  0.00    -0.270 OA
ENDROOT
BRANCH  13  15
ATOM     15  C   UNL     1      -5.507 -11.436  -0.177  0.00  0.00    +0.038 A 
ATOM     16  C   UNL     1      -4.193 -11.546   0.282  0.00  0.00    +0.014 A 
ATOM     17  C   UNL     1      -3.758 -12.729   0.842  0.00  0.00    +0.022 A 
ATOM     18  C   UNL     1      -4.621 -13.807   0.948  0.00  0.00    +0.059 A 
ATOM     19  C   UNL     1      -5.926 -13.705   0.494  0.00  0.00    +0.060 A 
ATOM     20  C   UNL     1      -6.375 -12.524  -0.062  0.00  0.00    +0.034 A 
ATOM     21 CL   UNL     1      -7.001 -15.061   0.631  0.00  0.00    -0.082 Cl
ATOM     22 CL   UNL     1      -4.065 -15.294   1.652  0.00  0.00    -0.082 Cl
ENDBRANCH  13  15
BRANCH   6  23
ATOM     23  C   UNL     1      -2.243  -5.874  -0.572  0.00  0.00    +0.189 A 
ATOM     24  C   UNL     1      -1.264  -6.348  -1.398  0.00  0.00    +0.054 A 
ATOM     25  C   UNL     1      -0.302  -5.332  -1.509  0.00  0.00    +0.042 A 
ATOM     26  C   UNL     1      -0.730  -4.295  -0.756  0.00  0.00    +0.196 A 
ATOM     27  O   UNL     1      -1.902  -4.623  -0.197  0.00  0.00    -0.458 OA
ENDBRANCH   6  23
BRANCH   1  29
ATOM     28  N   UNL     1      -2.209  -3.477   2.444  0.00  0.00    -0.315 N 
ATOM     29  C   UNL     1      -2.630  -4.639   1.907  0.00  0.00    +0.236 C 
ATOM     30  O   UNL     1      -1.847  -5.550   1.743  0.00  0.00    -0.274 OA
ATOM     31  H   UNL     1      -2.835  -2.748   2.576  0.00  0.00    +0.149 HD
BRANCH  28  32
ATOM     32  C   UNL     1      -0.805  -3.314   2.830  0.00  0.00    +0.085 C 
BRANCH  32  33
ATOM     33  C   UNL     1      -0.593  -1.914   3.408  0.00  0.00    -0.061 C 
BRANCH  33  35
ATOM     34  C   UNL     1       1.044  -0.370   4.238  0.00  0.00    -0.097 C 
ATOM     35  N   UNL     1       0.815  -1.751   3.795  0.00  0.00    +0.377 N 
ATOM     36  C   UNL     1       1.132  -2.676   4.891  0.00  0.00    -0.097 C 
ATOM     37  H   UNL     1       1.406  -1.953   3.002  0.00  0.00    -0.083 HD
ENDBRANCH  33  35
ENDBRANCH  32  33
ENDBRANCH  28  32
ENDBRANCH   1  29
TORSDOF 6
