REMARK  Name = ZINC02185575
REMARK  11 active torsions:
REMARK  status: ('A' for Active; 'I' for Inactive)
REMARK    1  A    between atoms: C_1  and  C_2
REMARK    2  A    between atoms: C_3  and  C_35
REMARK    3  A    between atoms: C_4  and  C_21
REMARK    4  A    between atoms: C_10  and  C_15
REMARK    5  A    between atoms: C_26  and  O_27
REMARK    6  A    between atoms: O_27  and  C_28
REMARK    7  A    between atoms: C_28  and  C_29
REMARK    8  A    between atoms: C_35  and  O_37
REMARK    9  A    between atoms: O_37  and  C_38
REMARK   10  A    between atoms: C_38  and  C_39
REMARK   11  A    between atoms: C_38  and  C_40
REMARK                            x       y       z     vdW  Elec       q    Type
REMARK                         _______ _______ _______ _____ _____    ______ ____
ROOT
ATOM      1  C   UNL     1       5.521   7.052   4.072  0.00  0.00    +0.061 C 
ATOM      2  C   UNL     1       5.216   6.741   2.630  0.00  0.00    +0.016 C 
ATOM      3  C   UNL     1       5.959   7.295   1.656  0.00  0.00    +0.065 C 
ATOM      4  C   UNL     1       5.690   7.002   0.209  0.00  0.00    +0.096 C 
ATOM      5  C   UNL     1       4.310   6.423   0.022  0.00  0.00    +0.024 C 
ATOM      6  C   UNL     1       3.632   5.904   1.067  0.00  0.00    +0.016 C 
ATOM      7  N   UNL     1       4.185   5.899   2.320  0.00  0.00    -0.321 N 
ATOM      8  C   UNL     1       2.252   5.322   0.887  0.00  0.00    +0.059 C 
ATOM      9  C   UNL     1       2.122   4.736  -0.521  0.00  0.00    +0.032 C 
ATOM     10  C   UNL     1       2.394   5.850  -1.537  0.00  0.00    +0.088 C 
ATOM     11  C   UNL     1       3.754   6.436  -1.269  0.00  0.00    +0.162 C 
ATOM     12  O   UNL     1       4.382   6.928  -2.185  0.00  0.00    -0.292 OA
ATOM     13  H   UNL     1       3.791   5.209   3.081  0.00  0.00    +0.152 HD
ENDROOT
BRANCH   9  14
ATOM     14  C   UNL     1       0.728   4.199  -0.719  0.00  0.00    -0.044 A 
ATOM     15  C   UNL     1       0.539   2.865  -1.031  0.00  0.00    +0.004 A 
ATOM     16  C   UNL     1      -0.740   2.372  -1.212  0.00  0.00    +0.000 A 
ATOM     17  C   UNL     1      -1.829   3.214  -1.086  0.00  0.00    +0.000 A 
ATOM     18  C   UNL     1      -1.640   4.546  -0.770  0.00  0.00    +0.000 A 
ATOM     19  C   UNL     1      -0.361   5.039  -0.588  0.00  0.00    +0.004 A 
ENDBRANCH   9  14
BRANCH   4  20
ATOM     20  C   UNL     1       6.713   6.016  -0.295  0.00  0.00    +0.006 A 
ATOM     21  C   UNL     1       6.857   4.791   0.327  0.00  0.00    +0.008 A 
ATOM     22  C   UNL     1       7.792   3.884  -0.138  0.00  0.00    +0.001 A 
ATOM     23  C   UNL     1       8.591   4.205  -1.219  0.00  0.00    +0.004 A 
ATOM     24  C   UNL     1       8.454   5.431  -1.841  0.00  0.00    +0.046 A 
ATOM     25  C   UNL     1       7.513   6.340  -1.380  0.00  0.00    +0.125 A 
BRANCH  25  26
ATOM     26  O   UNL     1       7.377   7.547  -1.990  0.00  0.00    -0.487 OA
BRANCH  26  27
ATOM     27  C   UNL     1       8.267   7.832  -3.071  0.00  0.00    +0.264 C 
BRANCH  27  28
ATOM     28  C   UNL     1       8.007   9.226  -3.582  0.00  0.00    -0.010 A 
ATOM     29  C   UNL     1       6.979   9.454  -4.478  0.00  0.00    +0.007 A 
ATOM     30  C   UNL     1       6.738  10.733  -4.942  0.00  0.00    +0.000 A 
ATOM     31  C   UNL     1       7.532  11.783  -4.519  0.00  0.00    +0.000 A 
ATOM     32  C   UNL     1       8.563  11.554  -3.627  0.00  0.00    +0.000 A 
ATOM     33  C   UNL     1       8.801  10.275  -3.159  0.00  0.00    +0.007 A 
ENDBRANCH  27  28
ENDBRANCH  26  27
ENDBRANCH  25  26
ENDBRANCH   4  20
BRANCH   3  34
ATOM     34  C   UNL     1       7.016   8.169   2.002  0.00  0.00    +0.338 C 
ATOM     35  O   UNL     1       7.182   8.494   3.163  0.00  0.00    -0.245 OA
BRANCH  34  36
ATOM     36  O   UNL     1       7.839   8.645   1.044  0.00  0.00    -0.459 OA
BRANCH  36  37
ATOM     37  C   UNL     1       8.950   9.432   1.476  0.00  0.00    +0.171 C 
ATOM     38  C   UNL     1      10.077   9.333   0.446  0.00  0.00    +0.052 C 
ATOM     39  C   UNL     1       8.516  10.893   1.618  0.00  0.00    +0.052 C 
ENDBRANCH  36  37
ENDBRANCH  34  36
ENDBRANCH   3  34
TORSDOF 8
