REMARK  Name = ZINC03841454
REMARK  4 active torsions:
REMARK  status: ('A' for Active; 'I' for Inactive)
REMARK    1  A    between atoms: C_3  and  S_6
REMARK    2  A    between atoms: S_6  and  N_9
REMARK    3  A    between atoms: N_9  and  C_10
REMARK    4  A    between atoms: N_28  and  C_29
REMARK                            x       y       z     vdW  Elec       q    Type
REMARK                         _______ _______ _______ _____ _____    ______ ____
ROOT
ATOM      1  C   UNL     1       1.187   1.685   0.004  0.00  0.00    +0.112 A 
ATOM      2  C   UNL     1       1.181   3.053   0.012  0.00  0.00    +0.031 A 
ATOM      3  C   UNL     1       2.404   3.734   0.027  0.00  0.00    +0.024 A 
ATOM      4  C   UNL     1       3.577   3.050   0.017  0.00  0.00    +0.027 A 
ATOM      5  N   UNL     1       3.586   1.698  -0.083  0.00  0.00    -0.310 N 
ATOM      6  C   UNL     1       2.422   1.007  -0.007  0.00  0.00    +0.274 A 
ATOM      7  O   UNL     1       2.443  -0.212   0.046  0.00  0.00    -0.266 OA
ATOM      8  C   UNL     1       4.807   0.922  -0.300  0.00  0.00    +0.130 C 
ATOM      9  C   UNL     1       6.055   1.680   0.115  0.00  0.00    +0.027 C 
ATOM     10  C   UNL     1       6.018   3.097  -0.459  0.00  0.00    +0.018 C 
ATOM     11  C   UNL     1       4.849   3.849   0.181  0.00  0.00    +0.054 C 
ATOM     12  C   UNL     1       5.127   3.981   1.688  0.00  0.00    +0.119 C 
ATOM     13  N   UNL     1       5.250   2.620   2.233  0.00  0.00    -0.285 N 
ATOM     14  C   UNL     1       6.227   1.708   1.628  0.00  0.00    +0.114 C 
ATOM     15  C   UNL     1       4.481   2.219   3.265  0.00  0.00    +0.302 C 
ATOM     16  O   UNL     1       3.740   3.011   3.815  0.00  0.00    -0.253 OA
ATOM     17  N   UNL     1       4.533   0.940   3.687  0.00  0.00    -0.296 N 
ATOM     18  H   UNL     1       5.176   0.327   3.298  0.00  0.00    +0.151 HD
ENDROOT
BRANCH  17  19
ATOM     19  C   UNL     1       3.619   0.476   4.734  0.00  0.00    +0.074 C 
ATOM     20  C   UNL     1       4.209   0.800   6.107  0.00  0.00    +0.022 C 
ATOM     21  C   UNL     1       3.254   0.315   7.200  0.00  0.00    +0.002 C 
ATOM     22  C   UNL     1       3.058  -1.197   7.072  0.00  0.00    +0.000 C 
ATOM     23  C   UNL     1       2.468  -1.521   5.699  0.00  0.00    +0.002 C 
ATOM     24  C   UNL     1       3.423  -1.036   4.606  0.00  0.00    +0.022 C 
ENDBRANCH  17  19
BRANCH   1  25
ATOM     25  N   UNL     1      -0.017   0.969   0.014  0.00  0.00    -0.211 N 
ATOM     26  H   UNL     1      -0.004  -0.001   0.008  0.00  0.00    +0.174 HD
BRANCH  25  27
ATOM     27  S   UNL     1      -1.461   1.779   0.027  0.00  0.00    +0.079 S 
ATOM     28  O   UNL     1      -2.481   0.790   0.001  0.00  0.00    -0.149 OA
ATOM     29  O   UNL     1      -1.371   2.753   1.058  0.00  0.00    -0.149 OA
BRANCH  27  32
ATOM     30  C   UNL     1      -2.085   3.133  -3.748  0.00  0.00    +0.010 A 
ATOM     31  C   UNL     1      -2.098   2.259  -2.677  0.00  0.00    +0.036 A 
ATOM     32  C   UNL     1      -1.578   2.662  -1.493  0.00  0.00    +0.146 A 
ATOM     33  S   UNL     1      -1.033   4.319  -1.874  0.00  0.00    -0.077 S 
ATOM     34  C   UNL     1      -1.543   4.364  -3.585  0.00  0.00    +0.047 A 
ENDBRANCH  27  32
ENDBRANCH  25  27
ENDBRANCH   1  25
TORSDOF 4
