REMARK  Name = ZINC20617750
REMARK  3 active torsions:
REMARK  status: ('A' for Active; 'I' for Inactive)
REMARK    1  A    between atoms: C_1  and  N_2
REMARK    2  A    between atoms: C_3  and  C_18
REMARK    3  A    between atoms: C_5  and  C_7
REMARK                            x       y       z     vdW  Elec       q    Type
REMARK                         _______ _______ _______ _____ _____    ______ ____
ROOT
ATOM      1  C   UNL     1       1.716  -7.193  -0.058  0.00  0.00    +0.173 C 
ATOM      2  N   UNL     1       0.776  -6.070  -0.045  0.00  0.00    -0.262 N 
ATOM      3  C   UNL     1      -0.587  -6.186  -0.052  0.00  0.00    +0.124 A 
ATOM      4  C   UNL     1      -1.091  -4.912  -0.036  0.00  0.00    +0.067 A 
ATOM      5  C   UNL     1       0.033  -4.063  -0.020  0.00  0.00    +0.148 A 
ATOM      6  N   UNL     1       1.108  -4.829  -0.032  0.00  0.00    -0.166 NA
ENDROOT
BRANCH   5   7
ATOM      7  C   UNL     1       0.013  -2.586   0.001  0.00  0.00    +0.269 C 
ATOM      8  O   UNL     1      -1.048  -1.993   0.005  0.00  0.00    -0.268 OA
ATOM      9  N   UNL     1       1.171  -1.897   0.015  0.00  0.00    -0.264 N 
ATOM     10  C   UNL     1       1.152  -0.503   0.034  0.00  0.00    +0.144 A 
ATOM     11  C   UNL     1       2.352   0.203   0.048  0.00  0.00    +0.082 A 
ATOM     12  C   UNL     1       2.318   1.587   0.067  0.00  0.00    +0.045 A 
ATOM     13  C   UNL     1       1.081   2.219   0.071  0.00  0.00    +0.061 A 
ATOM     14  C   UNL     1      -0.070   1.455   0.057  0.00  0.00    +0.133 A 
ATOM     15  N   UNL     1      -0.006   0.137   0.039  0.00  0.00    -0.237 NA
ATOM     16 CL   UNL     1       0.983   3.953   0.095  0.00  0.00    -0.082 Cl
ATOM     17 CL   UNL     1       3.869  -0.641   0.042  0.00  0.00    -0.080 Cl
ATOM     18  H   UNL     1       2.131  -2.434   0.011  0.00  0.00    +0.157 HD
ENDBRANCH   5   7
BRANCH   3  19
ATOM     19  C   UNL     1      -1.362  -7.438  -0.072  0.00  0.00    +0.267 C 
ATOM     20  O   UNL     1      -0.790  -8.505  -0.183  0.00  0.00    -0.268 OA
ATOM     21  N   UNL     1      -2.705  -7.400   0.032  0.00  0.00    -0.264 N 
ATOM     22  C   UNL     1      -3.430  -8.587   0.124  0.00  0.00    +0.144 A 
ATOM     23  C   UNL     1      -4.816  -8.541   0.237  0.00  0.00    +0.082 A 
ATOM     24  C   UNL     1      -5.524  -9.727   0.322  0.00  0.00    +0.045 A 
ATOM     25  C   UNL     1      -4.818 -10.924   0.302  0.00  0.00    +0.061 A 
ATOM     26  C   UNL     1      -3.441 -10.894   0.193  0.00  0.00    +0.133 A 
ATOM     27  N   UNL     1      -2.793  -9.747   0.108  0.00  0.00    -0.237 NA
ATOM     28 CL   UNL     1      -5.656 -12.440   0.413  0.00  0.00    -0.082 Cl
ATOM     29 CL   UNL     1      -5.647  -7.017   0.264  0.00  0.00    -0.080 Cl
ATOM     30  H   UNL     1      -3.229  -6.433   0.045  0.00  0.00    +0.157 HD
ENDBRANCH   3  19
TORSDOF 2
