REMARK  Name = ZINC14458853
REMARK  7 active torsions:
REMARK  status: ('A' for Active; 'I' for Inactive)
REMARK    1  A    between atoms: C_1  and  O_2
REMARK    2  A    between atoms: O_2  and  C_3
REMARK    3  A    between atoms: C_5  and  C_10
REMARK    4  A    between atoms: C_8  and  O_9
REMARK    5  A    between atoms: C_21  and  S_26
REMARK    6  A    between atoms: S_26  and  N_29
REMARK    7  A    between atoms: N_29  and  C_30
REMARK                            x       y       z     vdW  Elec       q    Type
REMARK                         _______ _______ _______ _____ _____    ______ ____
ROOT
ATOM      1  C   UNL     1       3.715  -0.701  -0.037  0.00  0.00    +0.105 C 
ATOM      2  C   UNL     1       4.307  -0.748   1.360  0.00  0.00    +0.029 C 
ATOM      3  C   UNL     1       3.580  -1.610   2.400  0.00  0.00    +0.033 C 
ATOM      4  C   UNL     1       4.733  -2.026   3.316  0.00  0.00    -0.030 C 
ATOM      5  C   UNL     1       5.877  -2.007   2.642  0.00  0.00    -0.023 C 
ATOM      6  C   UNL     1       5.594  -1.618   1.237  0.00  0.00    +0.049 C 
ATOM      7  C   UNL     1       6.572  -0.866   0.422  0.00  0.00    -0.018 A 
ATOM      8  C   UNL     1       7.929  -0.921   0.657  0.00  0.00    +0.034 A 
ATOM      9  C   UNL     1       8.805  -0.210  -0.142  0.00  0.00    +0.106 A 
ATOM     10  C   UNL     1       8.321   0.561  -1.183  0.00  0.00    +0.030 A 
ATOM     11  C   UNL     1       6.964   0.627  -1.423  0.00  0.00    +0.025 A 
ATOM     12  C   UNL     1       6.074  -0.078  -0.622  0.00  0.00    +0.031 A 
ATOM     13  N   UNL     1       4.699   0.033  -0.862  0.00  0.00    -0.336 N 
ATOM     14  H   UNL     1       4.386   0.602  -1.583  0.00  0.00    +0.147 HD
ENDROOT
BRANCH   1  17
ATOM     15  C   UNL     1       0.002  -0.004   0.002  0.00  0.00    +0.162 A 
ATOM     16  C   UNL     1       1.213  -0.677  -0.013  0.00  0.00    +0.054 A 
ATOM     17  C   UNL     1       2.399   0.033  -0.021  0.00  0.00    -0.023 A 
ATOM     18  C   UNL     1       2.380   1.415  -0.013  0.00  0.00    +0.009 A 
ATOM     19  C   UNL     1       1.175   2.093   0.002  0.00  0.00    +0.049 A 
ATOM     20  C   UNL     1      -0.017   1.387   0.010  0.00  0.00    +0.158 A 
BRANCH  15  22
ATOM     21  C   UNL     1      -1.069  -2.127   0.001  0.00  0.00    +0.277 C 
ATOM     22  O   UNL     1      -1.165  -0.702   0.010  0.00  0.00    -0.491 OA
ENDBRANCH  15  22
BRANCH  20  23
ATOM     23  O   UNL     1      -1.203   2.053   0.019  0.00  0.00    -0.503 OA
ATOM     24  H   UNL     1      -1.542   2.240   0.905  0.00  0.00    +0.292 HD
ENDBRANCH  20  23
ENDBRANCH   1  17
BRANCH   9  25
ATOM     25  S   UNL     1      10.538  -0.285   0.167  0.00  0.00    +0.059 S 
ATOM     26  O   UNL     1      11.100   0.900  -0.380  0.00  0.00    -0.153 OA
ATOM     27  O   UNL     1      10.693  -0.641   1.534  0.00  0.00    -0.153 OA
BRANCH  25  28
ATOM     28  N   UNL     1      11.140  -1.547  -0.722  0.00  0.00    -0.187 NA
ATOM     29  H   UNL     1      11.517  -2.319  -0.273  0.00  0.00    +0.148 HD
BRANCH  28  30
ATOM     30  C   UNL     1      11.102  -1.496  -2.185  0.00  0.00    +0.077 C 
ATOM     31  C   UNL     1       9.849  -2.216  -2.689  0.00  0.00    +0.020 C 
ATOM     32  C   UNL     1       9.810  -2.163  -4.217  0.00  0.00    +0.002 C 
ATOM     33  C   UNL     1      11.055  -2.848  -4.784  0.00  0.00    +0.000 C 
ATOM     34  C   UNL     1      12.307  -2.128  -4.280  0.00  0.00    +0.002 C 
ATOM     35  C   UNL     1      12.347  -2.181  -2.752  0.00  0.00    +0.020 C 
ENDBRANCH  28  30
ENDBRANCH  25  28
ENDBRANCH   9  25
TORSDOF 6
