REMARK  Name = ZINC36640429
REMARK  17 active torsions:
REMARK  status: ('A' for Active; 'I' for Inactive)
REMARK    1  A    between atoms: C_1  and  C_2
REMARK    2  A    between atoms: C_2  and  C_3
REMARK    3  A    between atoms: C_3  and  C_4
REMARK    4  A    between atoms: C_4  and  N_5
REMARK    5  A    between atoms: N_5  and  C_6
REMARK    6  A    between atoms: N_5  and  S_7
REMARK    7  A    between atoms: S_7  and  C_10
REMARK    8  A    between atoms: C_13  and  C_16
REMARK    9  A    between atoms: N_18  and  C_19
REMARK   10  A    between atoms: C_19  and  C_20
REMARK   11  A    between atoms: C_20  and  N_21
REMARK   12  A    between atoms: N_21  and  C_22
REMARK   13  A    between atoms: N_21  and  C_24
REMARK   14  A    between atoms: C_22  and  C_23
REMARK   15  A    between atoms: C_24  and  C_25
REMARK   16  A    between atoms: C_30  and  C_36
REMARK   17  A    between atoms: C_32  and  C_35
REMARK                            x       y       z     vdW  Elec       q    Type
REMARK                         _______ _______ _______ _____ _____    ______ ____
ROOT
ATOM      1  C   UNL     1      -6.351   2.175   3.495  0.00  0.00    +0.252 C 
ATOM      2  O   UNL     1      -5.837   2.894   4.330  0.00  0.00    -0.270 OA
ATOM      3  N   UNL     1      -7.666   2.289   3.225  0.00  0.00    -0.248 N 
ATOM      4  C   UNL     1      -8.405   3.309   3.800  0.00  0.00    +0.168 A 
ATOM      5  N   UNL     1      -9.683   3.577   3.665  0.00  0.00    -0.224 NA
ATOM      6  C   UNL     1     -10.277   4.615   4.293  0.00  0.00    +0.081 A 
ATOM      7  C   UNL     1     -11.633   5.011   4.234  0.00  0.00    +0.032 A 
ATOM      8  C   UNL     1     -12.076   6.099   4.939  0.00  0.00    -0.048 A 
ATOM      9  C   UNL     1     -11.219   6.848   5.731  0.00  0.00    +0.008 A 
ATOM     10  C   UNL     1      -9.886   6.490   5.813  0.00  0.00    -0.034 A 
ATOM     11  C   UNL     1      -9.433   5.401   5.110  0.00  0.00    +0.044 A 
ATOM     12  S   UNL     1      -7.862   4.591   4.921  0.00  0.00    -0.052 S 
ATOM     13  C   UNL     1      -8.936   7.290   6.667  0.00  0.00    +0.045 C 
ATOM     14  C   UNL     1     -13.529   6.492   4.851  0.00  0.00    +0.044 C 
ENDROOT
BRANCH   1  18
ATOM     15  C   UNL     1      -4.000  -0.694   1.427  0.00  0.00    +0.106 A 
ATOM     16  C   UNL     1      -3.450   0.529   1.768  0.00  0.00    +0.029 A 
ATOM     17  C   UNL     1      -4.209   1.466   2.439  0.00  0.00    +0.015 A 
ATOM     18  C   UNL     1      -5.533   1.177   2.775  0.00  0.00    +0.037 A 
ATOM     19  C   UNL     1      -6.080  -0.059   2.428  0.00  0.00    +0.015 A 
ATOM     20  C   UNL     1      -5.313  -0.985   1.751  0.00  0.00    +0.029 A 
BRANCH  15  21
ATOM     21  S   UNL     1      -3.024  -1.885   0.569  0.00  0.00    +0.061 S 
ATOM     22  O   UNL     1      -3.601  -3.155   0.842  0.00  0.00    -0.153 OA
ATOM     23  O   UNL     1      -1.667  -1.586   0.864  0.00  0.00    -0.153 OA
BRANCH  21  24
ATOM     24  N   UNL     1      -3.228  -1.610  -1.051  0.00  0.00    -0.180 NA
ATOM     25  C   UNL     1      -4.304  -2.287  -1.779  0.00  0.00    +0.131 C 
BRANCH  24  26
ATOM     26  C   UNL     1      -2.333  -0.689  -1.756  0.00  0.00    +0.109 C 
BRANCH  26  27
ATOM     27  C   UNL     1      -2.972   0.700  -1.812  0.00  0.00    +0.017 C 
BRANCH  27  29
ATOM     28  C   UNL     1      -2.675   3.051  -2.604  0.00  0.00    +0.004 C 
ATOM     29  C   UNL     1      -2.037   1.662  -2.548  0.00  0.00    -0.002 C 
ENDBRANCH  27  29
ENDBRANCH  26  27
ENDBRANCH  24  26
ENDBRANCH  21  24
ENDBRANCH  15  21
ENDBRANCH   1  18
BRANCH   3  30
ATOM     30  C   UNL     1      -8.315   1.334   2.324  0.00  0.00    +0.097 C 
BRANCH  30  31
ATOM     31  C   UNL     1      -9.290   0.463   3.119  0.00  0.00    -0.059 C 
BRANCH  31  32
ATOM     32  N   UNL     1      -9.984  -0.454   2.206  0.00  0.00    +0.380 N 
ATOM     33  H   UNL     1     -10.416   0.074   1.462  0.00  0.00    -0.082 HD
BRANCH  32  34
ATOM     34  C   UNL     1      -9.018  -1.402   1.635  0.00  0.00    -0.082 C 
ATOM     35  C   UNL     1      -8.434  -2.269   2.753  0.00  0.00    -0.017 C 
ENDBRANCH  32  34
BRANCH  32  36
ATOM     36  C   UNL     1     -11.017  -1.192   2.945  0.00  0.00    -0.082 C 
ATOM     37  C   UNL     1     -11.821  -2.057   1.972  0.00  0.00    -0.017 C 
ENDBRANCH  32  36
ENDBRANCH  31  32
ENDBRANCH  30  31
ENDBRANCH   3  30
TORSDOF 11
