REMARK  Name = ZINC32859798
REMARK  7 active torsions:
REMARK  status: ('A' for Active; 'I' for Inactive)
REMARK    1  A    between atoms: C_1  and  C_2
REMARK    2  A    between atoms: C_5  and  O_29
REMARK    3  A    between atoms: C_6  and  C_8
REMARK    4  A    between atoms: N_10  and  C_11
REMARK    5  A    between atoms: N_10  and  C_12
REMARK    6  A    between atoms: C_12  and  C_13
REMARK    7  A    between atoms: C_26  and  C_28
REMARK                            x       y       z     vdW  Elec       q    Type
REMARK                         _______ _______ _______ _____ _____    ______ ____
ROOT
ATOM      1  C   UNL     1       1.508   2.369  -1.429  0.00  0.00    +0.237 C 
ATOM      2  O   UNL     1       0.649   2.050  -2.223  0.00  0.00    -0.274 OA
ATOM      3  N   UNL     1       2.620   3.000  -1.855  0.00  0.00    -0.265 N 
ATOM      4  C   UNL     1       3.618   3.381  -0.949  0.00  0.00    +0.058 A 
ATOM      5  C   UNL     1       4.448   2.424  -0.375  0.00  0.00    +0.025 A 
ATOM      6  C   UNL     1       5.453   2.816   0.490  0.00  0.00    +0.002 A 
ATOM      7  C   UNL     1       5.636   4.155   0.786  0.00  0.00    +0.002 A 
ATOM      8  C   UNL     1       4.806   5.111   0.228  0.00  0.00    +0.025 A 
ATOM      9  C   UNL     1       3.790   4.724  -0.629  0.00  0.00    +0.055 A 
ATOM     10  N   UNL     1       2.916   5.668  -1.182  0.00  0.00    -0.284 N 
ATOM     11  C   UNL     1       2.657   5.670  -2.509  0.00  0.00    +0.219 C 
ATOM     12  O   UNL     1       1.840   6.444  -2.961  0.00  0.00    -0.275 OA
ATOM     13  C   UNL     1       3.374   4.719  -3.429  0.00  0.00    +0.118 C 
ATOM     14  C   UNL     1       2.807   3.307  -3.274  0.00  0.00    +0.087 C 
ATOM     15  C   UNL     1       3.781   2.299  -3.888  0.00  0.00    +0.029 C 
ATOM     16  H   UNL     1       2.434   6.416  -0.535  0.00  0.00    +0.155 HD
ENDROOT
BRANCH   1  17
ATOM     17  C   UNL     1       1.331   2.061   0.036  0.00  0.00    +0.204 C 
BRANCH  17  20
ATOM     18  C   UNL     1      -0.011   0.033   0.181  0.00  0.00    +0.250 C 
ATOM     19  O   UNL     1       0.974  -0.609  -0.130  0.00  0.00    -0.270 OA
ATOM     20  N   UNL     1       0.052   1.378   0.240  0.00  0.00    -0.292 N 
ATOM     21  C   UNL     1      -1.161   2.157   0.503  0.00  0.00    +0.133 C 
BRANCH  18  27
ATOM     22  C   UNL     1      -4.044  -0.491   3.067  0.00  0.00    +0.044 C 
ATOM     23  C   UNL     1      -3.220  -0.918   1.880  0.00  0.00    -0.050 A 
ATOM     24  C   UNL     1      -3.652  -1.964   1.081  0.00  0.00    +0.007 A 
ATOM     25  C   UNL     1      -2.906  -2.364  -0.010  0.00  0.00    +0.046 A 
ATOM     26  C   UNL     1      -1.718  -1.716  -0.315  0.00  0.00    +0.129 A 
ATOM     27  C   UNL     1      -1.275  -0.661   0.493  0.00  0.00    +0.078 A 
ATOM     28  C   UNL     1      -2.040  -0.266   1.594  0.00  0.00    +0.020 A 
BRANCH  26  29
ATOM     29  O   UNL     1      -0.987  -2.104  -1.390  0.00  0.00    -0.506 OA
ATOM     30  H   UNL     1      -0.046  -1.589  -1.630  0.00  0.00    +0.292 HD
ENDBRANCH  26  29
ENDBRANCH  18  27
ENDBRANCH  17  20
ENDBRANCH   1  17
TORSDOF 4
