REMARK  Name = ZINC13122061
REMARK  7 active torsions:
REMARK  status: ('A' for Active; 'I' for Inactive)
REMARK    1  A    between atoms: C_10  and  C_11
REMARK    2  A    between atoms: C_11  and  S_12
REMARK    3  A    between atoms: S_12  and  C_13
REMARK    4  A    between atoms: C_16  and  S_18
REMARK    5  A    between atoms: S_18  and  C_19
REMARK    6  A    between atoms: C_19  and  C_20
REMARK    7  A    between atoms: N_22  and  N_23
REMARK                            x       y       z     vdW  Elec       q    Type
REMARK                         _______ _______ _______ _____ _____    ______ ____
ROOT
ATOM      1  S   UNL     1      10.775   3.622   2.055  0.00  0.00    -0.088 S 
ENDROOT
BRANCH   1   5
ATOM      2  C   UNL     1       6.998   1.367   1.482  0.00  0.00    +0.160 A 
ATOM      3  N   UNL     1       7.614   1.755   0.382  0.00  0.00    -0.134 NA
ATOM      4  N   UNL     1       8.793   2.460   0.470  0.00  0.00    -0.134 NA
ATOM      5  C   UNL     1       9.300   2.744   1.654  0.00  0.00    +0.160 A 
ATOM      6  S   UNL     1       8.090   2.008   2.742  0.00  0.00    -0.033 S 
BRANCH   2   7
ATOM      7  S   UNL     1       5.496   0.464   1.661  0.00  0.00    -0.092 S 
BRANCH   7   8
ATOM      8  C   UNL     1       4.960   0.161  -0.046  0.00  0.00    +0.112 C 
BRANCH   8  18
ATOM      9  C   UNL     1      -0.016   1.357   0.009  0.00  0.00    +0.001 A 
ATOM     10  C   UNL     1       1.169   2.091   0.002  0.00  0.00    +0.001 A 
ATOM     11  C   UNL     1       2.378   1.468  -0.013  0.00  0.00    +0.009 A 
ATOM     12  C   UNL     1       2.438   0.064  -0.021  0.00  0.00    -0.014 A 
ATOM     13  C   UNL     1       1.233  -0.683  -0.013  0.00  0.00    -0.018 A 
ATOM     14  C   UNL     1       0.002  -0.004   0.002  0.00  0.00    +0.008 A 
ATOM     15  C   UNL     1       1.292  -2.087  -0.021  0.00  0.00    +0.008 A 
ATOM     16  C   UNL     1       2.502  -2.709  -0.036  0.00  0.00    +0.001 A 
ATOM     17  C   UNL     1       3.687  -1.976  -0.043  0.00  0.00    +0.005 A 
ATOM     18  C   UNL     1       3.668  -0.615  -0.037  0.00  0.00    -0.029 A 
ENDBRANCH   8  18
ENDBRANCH   7   8
ENDBRANCH   2   7
ENDBRANCH   1   5
BRANCH   1  19
ATOM     19  C   UNL     1      11.472   4.069   0.441  0.00  0.00    +0.173 C 
BRANCH  19  20
ATOM     20  C   UNL     1      12.754   4.834   0.642  0.00  0.00    +0.242 C 
ATOM     21  O   UNL     1      13.158   5.057   1.764  0.00  0.00    -0.273 OA
ATOM     22  N   UNL     1      13.453   5.272  -0.424  0.00  0.00    -0.206 N 
ATOM     23  H   UNL     1      13.130   5.094  -1.322  0.00  0.00    +0.177 HD
BRANCH  22  24
ATOM     24  N   UNL     1      14.645   5.984  -0.237  0.00  0.00    -0.175 NA
ATOM     25  C   UNL     1      15.324   6.409  -1.274  0.00  0.00    +0.152 C 
ATOM     26  C   UNL     1      16.598   7.166  -1.270  0.00  0.00    +0.028 A 
ATOM     27  C   UNL     1      17.423   7.635  -0.255  0.00  0.00    +0.012 A 
ATOM     28  C   UNL     1      18.575   8.326  -0.573  0.00  0.00    +0.001 A 
ATOM     29  C   UNL     1      18.905   8.551  -1.899  0.00  0.00    +0.002 A 
ATOM     30  C   UNL     1      18.093   8.089  -2.914  0.00  0.00    +0.024 A 
ATOM     31  C   UNL     1      16.928   7.391  -2.613  0.00  0.00    +0.043 A 
ATOM     32  N   UNL     1      15.952   6.827  -3.428  0.00  0.00    -0.280 N 
ATOM     33  C   UNL     1      14.990   6.233  -2.702  0.00  0.00    +0.269 C 
ATOM     34  O   UNL     1      14.014   5.655  -3.144  0.00  0.00    -0.268 OA
ATOM     35  H   UNL     1      15.966   6.856  -4.397  0.00  0.00    +0.155 HD
ENDBRANCH  22  24
ENDBRANCH  19  20
ENDBRANCH   1  19
TORSDOF 7
