REMARK  Name = ZINC57992652
REMARK  4 active torsions:
REMARK  status: ('A' for Active; 'I' for Inactive)
REMARK    1  A    between atoms: C_1  and  C_2
REMARK    2  A    between atoms: C_5  and  N_8
REMARK    3  A    between atoms: C_9  and  C_11
REMARK    4  A    between atoms: N_27  and  C_30
REMARK                            x       y       z     vdW  Elec       q    Type
REMARK                         _______ _______ _______ _____ _____    ______ ____
ROOT
ATOM      1  C   UNL     1      -1.941  -2.293   4.845  0.00  0.00    +0.110 C 
ATOM      2  C   UNL     1      -3.475  -2.223   4.614  0.00  0.00    +0.034 C 
ATOM      3  C   UNL     1      -4.019  -2.399   6.051  0.00  0.00    +0.059 C 
ATOM      4  C   UNL     1      -5.417  -3.033   5.990  0.00  0.00    +0.020 C 
ATOM      5  C   UNL     1      -5.261  -4.423   6.648  0.00  0.00    +0.017 C 
ATOM      6  C   UNL     1      -3.750  -4.715   6.482  0.00  0.00    +0.086 C 
ATOM      7  N   UNL     1      -3.099  -3.377   6.689  0.00  0.00    -0.282 NA
ATOM      8  C   UNL     1      -1.810  -3.318   5.983  0.00  0.00    +0.138 C 
ATOM      9  C   UNL     1      -1.420  -4.668   5.442  0.00  0.00    +0.004 A 
ATOM     10  C   UNL     1      -2.013  -5.537   4.554  0.00  0.00    +0.008 A 
ATOM     11  C   UNL     1      -1.397  -6.736   4.244  0.00  0.00    +0.000 A 
ATOM     12  C   UNL     1      -0.185  -7.059   4.828  0.00  0.00    +0.002 A 
ATOM     13  C   UNL     1       0.411  -6.191   5.719  0.00  0.00    +0.024 A 
ATOM     14  C   UNL     1      -0.202  -4.981   6.036  0.00  0.00    +0.041 A 
ATOM     15  N   UNL     1       0.197  -3.952   6.892  0.00  0.00    -0.272 N 
ATOM     16  C   UNL     1      -0.689  -2.940   6.917  0.00  0.00    +0.245 C 
ATOM     17  O   UNL     1      -0.603  -1.919   7.566  0.00  0.00    -0.273 OA
ATOM     18  C   UNL     1       1.437  -3.973   7.672  0.00  0.00    +0.138 C 
ENDROOT
BRANCH   1  20
ATOM     19  N   UNL     1       0.057  -2.458   3.395  0.00  0.00    -0.312 N 
ATOM     20  C   UNL     1      -1.235  -2.779   3.606  0.00  0.00    +0.219 C 
ATOM     21  O   UNL     1      -1.830  -3.460   2.797  0.00  0.00    -0.275 OA
ATOM     22  H   UNL     1       0.532  -1.913   4.042  0.00  0.00    +0.149 HD
BRANCH  19  27
ATOM     23  C   UNL     1       4.415  -3.343   4.441  0.00  0.00    +0.007 C 
ATOM     24  C   UNL     1       3.429  -3.370   3.271  0.00  0.00    -0.014 C 
ATOM     25  C   UNL     1       2.886  -1.960   3.029  0.00  0.00    +0.005 C 
ATOM     26  C   UNL     1       1.901  -1.987   1.859  0.00  0.00    +0.022 C 
ATOM     27  C   UNL     1       0.742  -2.930   2.190  0.00  0.00    +0.073 C 
ATOM     28  C   UNL     1       1.285  -4.340   2.432  0.00  0.00    +0.022 C 
ATOM     29  C   UNL     1       2.271  -4.313   3.602  0.00  0.00    +0.005 C 
ENDBRANCH  19  27
ENDBRANCH   1  20
TORSDOF 2
