REMARK  Name = ZINC58158685
REMARK  6 active torsions:
REMARK  status: ('A' for Active; 'I' for Inactive)
REMARK    1  A    between atoms: C_2  and  C_3
REMARK    2  A    between atoms: C_3  and  N_4
REMARK    3  A    between atoms: N_16  and  C_19
REMARK    4  A    between atoms: C_19  and  N_20
REMARK    5  A    between atoms: C_25  and  C_27
REMARK    6  A    between atoms: C_27  and  C_28
REMARK                            x       y       z     vdW  Elec       q    Type
REMARK                         _______ _______ _______ _____ _____    ______ ____
ROOT
ATOM      1  N   UNL     1      -0.705  -1.789  -1.681  0.00  0.00    -0.273 N 
ATOM      2  C   UNL     1      -1.319  -1.472  -2.838  0.00  0.00    +0.263 A 
ATOM      3  O   UNL     1      -1.607  -0.317  -3.089  0.00  0.00    -0.267 OA
ATOM      4  C   UNL     1      -1.637  -2.547  -3.796  0.00  0.00    +0.064 A 
ATOM      5  C   UNL     1      -2.271  -2.272  -5.007  0.00  0.00    +0.015 A 
ATOM      6  C   UNL     1      -2.551  -3.303  -5.879  0.00  0.00    +0.001 A 
ATOM      7  C   UNL     1      -2.207  -4.606  -5.556  0.00  0.00    +0.002 A 
ATOM      8  C   UNL     1      -1.579  -4.891  -4.360  0.00  0.00    +0.027 A 
ATOM      9  C   UNL     1      -1.289  -3.867  -3.472  0.00  0.00    +0.064 A 
ATOM     10  N   UNL     1      -0.655  -4.128  -2.259  0.00  0.00    -0.257 N 
ATOM     11  C   UNL     1      -0.366  -3.102  -1.386  0.00  0.00    +0.238 A 
ATOM     12  N   UNL     1       0.227  -3.607  -0.339  0.00  0.00    -0.133 NA
ATOM     13  N   UNL     1       0.338  -4.991  -0.524  0.00  0.00    -0.255 N 
ATOM     14  C   UNL     1      -0.222  -5.285  -1.715  0.00  0.00    +0.182 A 
ATOM     15  S   UNL     1      -0.346  -6.841  -2.417  0.00  0.00    -0.011 S 
ENDROOT
BRANCH   1  16
ATOM     16  C   UNL     1      -0.384  -0.729  -0.722  0.00  0.00    +0.155 C 
BRANCH  16  18
ATOM     17  C   UNL     1       1.151   1.103  -1.221  0.00  0.00    +0.005 C 
ATOM     18  C   UNL     1       0.988  -0.181  -1.019  0.00  0.00    -0.013 C 
ENDBRANCH  16  18
ENDBRANCH   1  16
BRANCH  13  19
ATOM     19  C   UNL     1       0.941  -5.946   0.410  0.00  0.00    +0.072 C 
BRANCH  19  20
ATOM     20  N   UNL     1       0.021  -6.182   1.530  0.00  0.00    +0.395 N 
ATOM     21  C   UNL     1      -0.172  -4.932   2.275  0.00  0.00    -0.076 C 
ATOM     22  C   UNL     1      -1.192  -5.153   3.394  0.00  0.00    -0.019 C 
ATOM     23  C   UNL     1      -0.675  -6.239   4.342  0.00  0.00    -0.003 C 
ATOM     24  C   UNL     1      -0.407  -7.516   3.541  0.00  0.00    -0.015 C 
ATOM     25  C   UNL     1       0.584  -7.208   2.416  0.00  0.00    -0.062 C 
ATOM     26  H   UNL     1      -0.868  -6.499   1.173  0.00  0.00    -0.079 HD
BRANCH  25  27
ATOM     27  C   UNL     1       0.855  -8.481   1.613  0.00  0.00    +0.020 C 
BRANCH  27  28
ATOM     28  C   UNL     1       1.497  -9.511   2.506  0.00  0.00    -0.049 A 
ATOM     29  C   UNL     1       2.863  -9.487   2.719  0.00  0.00    +0.003 A 
ATOM     30  C   UNL     1       3.451 -10.432   3.538  0.00  0.00    +0.000 A 
ATOM     31  C   UNL     1       2.674 -11.401   4.145  0.00  0.00    +0.000 A 
ATOM     32  C   UNL     1       1.308 -11.425   3.933  0.00  0.00    +0.000 A 
ATOM     33  C   UNL     1       0.719 -10.477   3.117  0.00  0.00    +0.003 A 
ENDBRANCH  27  28
ENDBRANCH  25  27
ENDBRANCH  19  20
ENDBRANCH  13  19
TORSDOF 6
