REMARK  Name = ZINC15659252
REMARK  11 active torsions:
REMARK  status: ('A' for Active; 'I' for Inactive)
REMARK    1  A    between atoms: C_1  and  C_2
REMARK    2  A    between atoms: C_4  and  C_31
REMARK    3  A    between atoms: C_5  and  N_9
REMARK    4  A    between atoms: C_6  and  C_8
REMARK    5  A    between atoms: C_13  and  C_14
REMARK    6  A    between atoms: C_15  and  O_24
REMARK    7  A    between atoms: C_17  and  O_22
REMARK    8  A    between atoms: C_19  and  O_20
REMARK    9  A    between atoms: O_20  and  C_21
REMARK   10  A    between atoms: O_22  and  C_23
REMARK   11  A    between atoms: O_24  and  C_25
REMARK                            x       y       z     vdW  Elec       q    Type
REMARK                         _______ _______ _______ _____ _____    ______ ____
ROOT
ATOM      1  N   UNL     1       4.029   6.493  -2.065  0.00  0.00    -0.189 N 
ATOM      2  C   UNL     1       3.877   5.582  -1.082  0.00  0.00    +0.264 C 
ATOM      3  O   UNL     1       4.781   5.348  -0.302  0.00  0.00    -0.269 OA
ATOM      4  C   UNL     1       2.588   4.875  -0.981  0.00  0.00    +0.100 C 
ATOM      5  C   UNL     1       2.361   3.921   0.000  0.00  0.00    +0.033 C 
ATOM      6  C   UNL     1       1.549   5.229  -1.965  0.00  0.00    +0.257 C 
ATOM      7  O   UNL     1       0.458   4.691  -1.943  0.00  0.00    -0.270 OA
ATOM      8  N   UNL     1       1.841   6.166  -2.891  0.00  0.00    -0.235 N 
ATOM      9  C   UNL     1       3.039   6.766  -2.927  0.00  0.00    +0.320 C 
ATOM     10  O   UNL     1       3.238   7.602  -3.786  0.00  0.00    -0.251 OA
ATOM     11  H   UNL     1       1.169   6.410  -3.546  0.00  0.00    +0.159 HD
ENDROOT
BRANCH   1  16
ATOM     12  C   UNL     1       8.965   9.252  -2.549  0.00  0.00    +0.044 C 
ATOM     13  C   UNL     1       7.654   8.519  -2.421  0.00  0.00    -0.050 A 
ATOM     14  C   UNL     1       6.649   9.038  -1.625  0.00  0.00    +0.008 A 
ATOM     15  C   UNL     1       5.446   8.369  -1.506  0.00  0.00    -0.028 A 
ATOM     16  C   UNL     1       5.248   7.175  -2.185  0.00  0.00    +0.052 A 
ATOM     17  C   UNL     1       6.261   6.653  -2.978  0.00  0.00    -0.028 A 
ATOM     18  C   UNL     1       7.459   7.330  -3.098  0.00  0.00    +0.008 A 
ATOM     19  C   UNL     1       6.052   5.354  -3.712  0.00  0.00    +0.046 C 
ATOM     20  C   UNL     1       4.351   8.935  -0.639  0.00  0.00    +0.046 C 
ENDBRANCH   1  16
BRANCH   5  21
ATOM     21  C   UNL     1       1.174   3.157  -0.020  0.00  0.00    +0.059 A 
ATOM     22  C   UNL     1       0.258   3.239   1.050  0.00  0.00    +0.134 A 
ATOM     23  C   UNL     1      -0.899   2.486   1.020  0.00  0.00    +0.092 A 
ATOM     24  C   UNL     1      -1.161   1.646  -0.056  0.00  0.00    +0.127 A 
ATOM     25  C   UNL     1      -0.268   1.562  -1.119  0.00  0.00    +0.092 A 
ATOM     26  C   UNL     1       0.896   2.305  -1.110  0.00  0.00    +0.134 A 
BRANCH  26  27
ATOM     27  O   UNL     1       1.768   2.217  -2.145  0.00  0.00    -0.494 OA
ATOM     28  C   UNL     1       1.419   1.334  -3.213  0.00  0.00    +0.277 C 
ENDBRANCH  26  27
BRANCH  24  29
ATOM     29  O   UNL     1      -2.298   0.907  -0.073  0.00  0.00    -0.495 OA
ATOM     30  C   UNL     1      -2.507   0.064  -1.207  0.00  0.00    +0.277 C 
ENDBRANCH  24  29
BRANCH  22  31
ATOM     31  O   UNL     1       0.513   4.054   2.103  0.00  0.00    -0.494 OA
ATOM     32  C   UNL     1      -0.460   4.085   3.149  0.00  0.00    +0.277 C 
ENDBRANCH  22  31
ENDBRANCH   5  21
TORSDOF 5
