REMARK  Name = ZINC39363882
REMARK  5 active torsions:
REMARK  status: ('A' for Active; 'I' for Inactive)
REMARK    1  A    between atoms: C_6  and  N_20
REMARK    2  A    between atoms: N_10  and  C_11
REMARK    3  A    between atoms: C_11  and  C_12
REMARK    4  A    between atoms: N_16  and  C_17
REMARK    5  A    between atoms: N_23  and  C_24
REMARK                            x       y       z     vdW  Elec       q    Type
REMARK                         _______ _______ _______ _____ _____    ______ ____
ROOT
ATOM      1  C   UNL     1       0.231   1.616  -0.066  0.00  0.00    -0.017 C 
ATOM      2  C   UNL     1       1.711   2.020   0.095  0.00  0.00    -0.017 C 
ATOM      3  C   UNL     1       2.486   0.682   0.124  0.00  0.00    -0.066 C 
ATOM      4  C   UNL     1       2.560   0.214   1.586  0.00  0.00    +0.007 C 
ATOM      5  C   UNL     1       1.166   0.320   2.211  0.00  0.00    +0.071 C 
ATOM      6  C   UNL     1       0.154  -0.443   1.351  0.00  0.00    +0.007 C 
ATOM      7  C   UNL     1       0.246   0.071  -0.119  0.00  0.00    -0.066 C 
ATOM      8  N   UNL     1       1.608  -0.265  -0.613  0.00  0.00    +0.388 N 
ATOM      9  H   UNL     1       1.844  -1.219  -0.385  0.00  0.00    -0.080 HD
ENDROOT
BRANCH   5  10
ATOM     10  N   UNL     1       0.773   1.729   2.291  0.00  0.00    -0.297 N 
ATOM     11  C   UNL     1       0.529   2.293   3.490  0.00  0.00    +0.300 C 
ATOM     12  O   UNL     1       0.635   1.633   4.506  0.00  0.00    -0.253 OA
ATOM     13  N   UNL     1       0.168   3.590   3.564  0.00  0.00    -0.294 N 
ATOM     14  H   UNL     1       0.689   2.255   1.481  0.00  0.00    +0.151 HD
ATOM     15  H   UNL     1       0.084   4.116   2.753  0.00  0.00    +0.151 HD
BRANCH  13  16
ATOM     16  C   UNL     1      -0.097   4.204   4.867  0.00  0.00    +0.037 C 
ATOM     17  C   UNL     1       1.161   4.121   5.735  0.00  0.00    +0.029 C 
ATOM     18  C   UNL     1       0.884   4.762   7.096  0.00  0.00    -0.008 C 
ATOM     19  C   UNL     1       0.496   6.229   6.900  0.00  0.00    +0.007 C 
ATOM     20  C   UNL     1      -0.762   6.312   6.032  0.00  0.00    -0.008 C 
ATOM     21  C   UNL     1      -0.485   5.671   4.670  0.00  0.00    +0.029 C 
ATOM     22  C   UNL     1      -1.907   5.569   6.722  0.00  0.00    +0.007 C 
ATOM     23  C   UNL     1      -1.520   4.102   6.918  0.00  0.00    -0.008 C 
ATOM     24  C   UNL     1      -0.262   4.019   7.786  0.00  0.00    +0.007 C 
ATOM     25  C   UNL     1      -1.243   3.461   5.557  0.00  0.00    +0.029 C 
ENDBRANCH  13  16
ENDBRANCH   5  10
BRANCH   8  26
ATOM     26  C   UNL     1       1.704  -0.038  -2.061  0.00  0.00    +0.001 C 
BRANCH  26  27
ATOM     27  C   UNL     1       0.902  -1.088  -2.788  0.00  0.00    +0.135 A 
ATOM     28  N   UNL     1       1.333  -2.255  -3.201  0.00  0.00    -0.115 NA
ATOM     29  N   UNL     1       0.351  -2.861  -3.775  0.00  0.00    -0.023 NA
ATOM     30  N   UNL     1      -0.695  -2.110  -3.738  0.00  0.00    -0.044 NA
ATOM     31  N   UNL     1      -0.397  -1.010  -3.133  0.00  0.00    -0.228 N 
BRANCH  31  32
ATOM     32  C   UNL     1      -1.301   0.113  -2.874  0.00  0.00    +0.111 C 
ATOM     33  C   UNL     1      -2.787  -0.093  -3.174  0.00  0.00    +0.029 C 
ATOM     34  C   UNL     1      -1.939   0.799  -4.083  0.00  0.00    +0.029 C 
ENDBRANCH  31  32
ENDBRANCH  26  27
ENDBRANCH   8  26
TORSDOF 5
