REMARK  Name = ZINC13147679
REMARK  6 active torsions:
REMARK  status: ('A' for Active; 'I' for Inactive)
REMARK    1  A    between atoms: C_3  and  N_18
REMARK    2  A    between atoms: C_5  and  S_7
REMARK    3  A    between atoms: S_7  and  N_10
REMARK    4  A    between atoms: C_19  and  C_21
REMARK    5  A    between atoms: C_21  and  S_22
REMARK    6  A    between atoms: S_22  and  C_23
REMARK                            x       y       z     vdW  Elec       q    Type
REMARK                         _______ _______ _______ _____ _____    ______ ____
ROOT
ATOM      1  C   UNL     1      -0.013   1.375  -0.179  0.00  0.00    +0.004 A 
ATOM      2  C   UNL     1       1.175   2.081  -0.182  0.00  0.00    +0.023 A 
ATOM      3  C   UNL     1       2.380   1.411  -0.018  0.00  0.00    +0.035 A 
ATOM      4  C   UNL     1       2.387   0.032   0.148  0.00  0.00    +0.052 A 
ATOM      5  C   UNL     1       1.197  -0.668   0.150  0.00  0.00    +0.114 A 
ATOM      6  C   UNL     1      -0.002   0.002  -0.014  0.00  0.00    +0.029 A 
ENDROOT
BRANCH   3   7
ATOM      7  N   UNL     1       3.584   2.123  -0.021  0.00  0.00    -0.285 N 
ATOM      8  C   UNL     1       3.628   3.375   0.478  0.00  0.00    +0.227 C 
ATOM      9  O   UNL     1       2.649   3.848   1.016  0.00  0.00    -0.275 OA
ATOM     10  H   UNL     1       4.387   1.717  -0.382  0.00  0.00    +0.155 HD
BRANCH   8  11
ATOM     11  C   UNL     1       4.893   4.186   0.368  0.00  0.00    +0.170 C 
BRANCH  11  12
ATOM     12  S   UNL     1       4.636   5.813   1.127  0.00  0.00    -0.114 S 
BRANCH  12  13
ATOM     13  C   UNL     1       6.184   6.629   0.920  0.00  0.00    +0.028 A 
ATOM     14  C   UNL     1       7.233   5.981   0.279  0.00  0.00    +0.036 A 
ATOM     15  C   UNL     1       8.445   6.625   0.117  0.00  0.00    +0.042 A 
ATOM     16  C   UNL     1       8.615   7.913   0.594  0.00  0.00    +0.021 A 
ATOM     17  C   UNL     1       7.574   8.561   1.233  0.00  0.00    +0.022 A 
ATOM     18  C   UNL     1       6.357   7.926   1.392  0.00  0.00    +0.054 A 
ATOM     19 CL   UNL     1       5.048   8.742   2.188  0.00  0.00    -0.082 Cl
ATOM     20 CL   UNL     1       9.756   5.816  -0.683  0.00  0.00    -0.084 Cl
ENDBRANCH  12  13
ENDBRANCH  11  12
ENDBRANCH   8  11
ENDBRANCH   3   7
BRANCH   5  21
ATOM     21  S   UNL     1       1.206  -2.417   0.360  0.00  0.00    +0.100 S 
ATOM     22  O   UNL     1       0.003  -2.902  -0.221  0.00  0.00    -0.146 OA
ATOM     23  O   UNL     1       2.487  -2.870  -0.054  0.00  0.00    -0.146 OA
BRANCH  21  24
ATOM     24  N   UNL     1       1.100  -2.716   1.985  0.00  0.00    -0.118 NA
ATOM     25  C   UNL     1       1.087  -3.934   2.420  0.00  0.00    +0.117 C 
ATOM     26  C   UNL     1       1.174  -5.098   1.436  0.00  0.00    +0.073 C 
ATOM     27  C   UNL     1       2.527  -5.749   1.629  0.00  0.00    +0.008 C 
ATOM     28  C   UNL     1       2.531  -6.840   2.702  0.00  0.00    +0.002 C 
ATOM     29  C   UNL     1       1.748  -6.450   3.956  0.00  0.00    +0.019 C 
ATOM     30  C   UNL     1       1.999  -5.024   4.397  0.00  0.00    +0.102 C 
ATOM     31  N   UNL     1       1.002  -4.174   3.713  0.00  0.00    -0.331 N 
ATOM     32  H   UNL     1       0.275  -3.788   4.226  0.00  0.00    +0.147 HD
ENDBRANCH  21  24
ENDBRANCH   5  21
TORSDOF 6
