REMARK  Name = ZINC39253033
REMARK  6 active torsions:
REMARK  status: ('A' for Active; 'I' for Inactive)
REMARK    1  A    between atoms: C_1  and  C_2
REMARK    2  A    between atoms: C_2  and  C_3
REMARK    3  A    between atoms: C_15  and  S_17
REMARK    4  A    between atoms: S_17  and  C_18
REMARK    5  A    between atoms: C_18  and  C_19
REMARK    6  A    between atoms: C_18  and  C_20
REMARK                            x       y       z     vdW  Elec       q    Type
REMARK                         _______ _______ _______ _____ _____    ______ ____
ROOT
ATOM      1  C   UNL     1       0.731  -0.503   1.223  0.00  0.00    -0.047 A 
ATOM      2  C   UNL     1       2.116  -0.704   1.147  0.00  0.00    +0.005 A 
ATOM      3  C   UNL     1       2.829  -1.155   2.203  0.00  0.00    +0.026 A 
ATOM      4  C   UNL     1       2.137  -1.444   3.466  0.00  0.00    +0.046 A 
ATOM      5  N   UNL     1       2.579  -1.853   4.631  0.00  0.00    -0.358 N 
ATOM      6  C   UNL     1       1.443  -2.098   5.503  0.00  0.00    +0.252 C 
ATOM      7  C   UNL     1       0.236  -1.523   4.783  0.00  0.00    +0.117 C 
ATOM      8  C   UNL     1       0.672  -1.210   3.518  0.00  0.00    +0.025 A 
ATOM      9  C   UNL     1       0.025  -0.736   2.353  0.00  0.00    +0.015 A 
ATOM     10  N   UNL     1      -0.915  -1.288   5.417  0.00  0.00    -0.147 NA
ATOM     11  N   UNL     1      -0.813  -1.053   6.690  0.00  0.00    -0.122 NA
ATOM     12  C   UNL     1       0.387  -0.984   7.317  0.00  0.00    +0.207 C 
ATOM     13  N   UNL     1       1.510  -1.429   6.802  0.00  0.00    -0.227 NA
ATOM     14  H   UNL     1       3.511  -1.972   4.871  0.00  0.00    +0.162 HD
ENDROOT
BRANCH   1  16
ATOM     15  C   UNL     1      -0.019   1.526   0.010  0.00  0.00    +0.009 C 
ATOM     16  C   UNL     1       0.002  -0.004   0.002  0.00  0.00    +0.032 C 
ENDBRANCH   1  16
BRANCH  12  17
ATOM     17  S   UNL     1       0.443  -0.258   8.921  0.00  0.00    -0.082 S 
BRANCH  17  18
ATOM     18  C   UNL     1       2.193  -0.362   9.389  0.00  0.00    +0.048 C 
ATOM     19  C   UNL     1       3.025   0.513   8.449  0.00  0.00    +0.019 C 
ATOM     20  C   UNL     1       2.366   0.127  10.828  0.00  0.00    +0.019 C 
ENDBRANCH  17  18
ENDBRANCH  12  17
TORSDOF 3
