REMARK  Name = ZINC38505968
REMARK  10 active torsions:
REMARK  status: ('A' for Active; 'I' for Inactive)
REMARK    1  A    between atoms: C_1  and  C_2
REMARK    2  A    between atoms: C_4  and  C_10
REMARK    3  A    between atoms: N_5  and  C_7
REMARK    4  A    between atoms: C_7  and  C_8
REMARK    5  A    between atoms: C_7  and  C_9
REMARK    6  A    between atoms: C_10  and  N_12
REMARK    7  A    between atoms: N_14  and  C_23
REMARK    8  A    between atoms: C_23  and  C_24
REMARK    9  A    between atoms: C_24  and  O_26
REMARK   10  A    between atoms: O_26  and  C_27
REMARK                            x       y       z     vdW  Elec       q    Type
REMARK                         _______ _______ _______ _____ _____    ______ ____
ROOT
ATOM      1  N   UNL     1       0.060  -4.540  -1.037  0.00  0.00    -0.151 NA
ATOM      2  C   UNL     1       0.070  -5.615  -1.816  0.00  0.00    +0.167 A 
ATOM      3  N   UNL     1       0.085  -6.930  -1.457  0.00  0.00    -0.310 N 
ATOM      4  C   UNL     1       0.094  -7.918  -2.425  0.00  0.00    +0.058 A 
ATOM      5  C   UNL     1       0.110  -9.309  -2.228  0.00  0.00    +0.028 A 
ATOM      6  C   UNL     1       0.119 -10.173  -3.296  0.00  0.00    +0.017 A 
ATOM      7  C   UNL     1       0.113  -9.704  -4.600  0.00  0.00    +0.019 A 
ATOM      8  C   UNL     1       0.098  -8.339  -4.825  0.00  0.00    +0.032 A 
ATOM      9  C   UNL     1       0.088  -7.474  -3.756  0.00  0.00    +0.040 A 
ATOM     10  S   UNL     1       0.062  -5.705  -3.599  0.00  0.00    -0.052 S 
ATOM     11 BR   UNL     1       0.127 -10.914  -6.053  0.00  0.00    -0.050 Br
ENDROOT
BRANCH   1  12
ATOM     12  C   UNL     1       0.040  -3.318  -1.583  0.00  0.00    +0.287 C 
ATOM     13  O   UNL     1       0.032  -3.192  -2.796  0.00  0.00    -0.266 OA
BRANCH  12  17
ATOM     14  C   UNL     1      -0.018   1.503   0.010  0.00  0.00    +0.067 C 
ATOM     15  C   UNL     1       0.002  -0.004   0.002  0.00  0.00    +0.061 A 
ATOM     16  C   UNL     1       0.008  -0.809  -1.135  0.00  0.00    +0.057 A 
ATOM     17  C   UNL     1       0.028  -2.123  -0.717  0.00  0.00    +0.126 A 
ATOM     18  N   UNL     1       0.035  -2.110   0.648  0.00  0.00    -0.256 N 
ATOM     19  N   UNL     1       0.023  -0.772   1.062  0.00  0.00    -0.176 NA
BRANCH  18  20
ATOM     20  C   UNL     1       0.055  -3.285   1.523  0.00  0.00    +0.102 C 
ATOM     21  C   UNL     1       1.308  -3.246   2.400  0.00  0.00    +0.032 C 
ATOM     22  C   UNL     1      -1.190  -3.281   2.412  0.00  0.00    +0.032 C 
ENDBRANCH  18  20
ENDBRANCH  12  17
ENDBRANCH   1  12
BRANCH   3  23
ATOM     23  C   UNL     1       0.090  -7.298  -0.039  0.00  0.00    +0.244 C 
BRANCH  23  24
ATOM     24  C   UNL     1      -1.328  -7.440   0.449  0.00  0.00    +0.327 C 
ATOM     25  O   UNL     1      -2.250  -7.253  -0.310  0.00  0.00    -0.249 OA
BRANCH  24  26
ATOM     26  O   UNL     1      -1.569  -7.774   1.726  0.00  0.00    -0.467 OA
ATOM     27  C   UNL     1      -2.937  -7.891   2.120  0.00  0.00    +0.280 C 
ENDBRANCH  24  26
ENDBRANCH  23  24
ENDBRANCH   3  23
TORSDOF 6
