REMARK  Name = ZINC04507367
REMARK  6 active torsions:
REMARK  status: ('A' for Active; 'I' for Inactive)
REMARK    1  A    between atoms: C_1  and  C_2
REMARK    2  A    between atoms: C_3  and  C_34
REMARK    3  A    between atoms: C_5  and  N_9
REMARK    4  A    between atoms: C_6  and  C_7
REMARK    5  A    between atoms: C_10  and  C_12
REMARK    6  A    between atoms: C_15  and  N_18
REMARK                            x       y       z     vdW  Elec       q    Type
REMARK                         _______ _______ _______ _____ _____    ______ ____
ROOT
ATOM      1  C   UNL     1       0.090  -5.446   2.829  0.00  0.00    +0.037 A 
ATOM      2  C   UNL     1       0.344  -5.072   4.152  0.00  0.00    +0.015 A 
ATOM      3  C   UNL     1       0.360  -6.027   5.144  0.00  0.00    +0.025 A 
ATOM      4  C   UNL     1       0.125  -7.361   4.831  0.00  0.00    +0.044 A 
ATOM      5  C   UNL     1      -0.127  -7.737   3.516  0.00  0.00    +0.025 A 
ATOM      6  C   UNL     1      -0.150  -6.787   2.519  0.00  0.00    +0.015 A 
ENDROOT
BRANCH   4   7
ATOM      7  N   UNL     1       0.143  -8.328   5.841  0.00  0.00    -0.210 N 
ATOM      8  C   UNL     1       1.084  -9.275   5.919  0.00  0.00    +0.231 C 
ATOM      9  O   UNL     1       2.009  -9.408   5.147  0.00  0.00    -0.274 OA
ATOM     10  C   UNL     1       0.817 -10.153   7.120  0.00  0.00    +0.095 C 
ATOM     11  C   UNL     1       1.923  -9.876   8.186  0.00  0.00    +0.025 C 
ATOM     12  C   UNL     1       1.094 -10.051   9.510  0.00  0.00    +0.016 C 
ATOM     13  C   UNL     1       0.047  -8.949   9.109  0.00  0.00    +0.025 C 
ATOM     14  C   UNL     1      -0.474  -9.535   7.735  0.00  0.00    +0.095 C 
ATOM     15  C   UNL     1      -0.777  -8.377   6.811  0.00  0.00    +0.231 C 
ATOM     16  O   UNL     1      -1.710  -7.612   6.931  0.00  0.00    -0.274 OA
ATOM     17  C   UNL     1       0.999  -7.816   8.707  0.00  0.00    -0.027 C 
ATOM     18  C   UNL     1       2.096  -8.352   8.159  0.00  0.00    -0.027 C 
ENDBRANCH   4   7
BRANCH   1  20
ATOM     19  N   UNL     1       0.304  -3.132   2.063  0.00  0.00    -0.275 N 
ATOM     20  C   UNL     1       0.072  -4.425   1.763  0.00  0.00    +0.249 C 
ATOM     21  O   UNL     1      -0.154  -4.751   0.613  0.00  0.00    -0.270 OA
ATOM     22  H   UNL     1       0.484  -2.872   2.980  0.00  0.00    +0.156 HD
BRANCH  19  27
ATOM     23  C   UNL     1       0.637   1.461  -0.042  0.00  0.00    +0.046 C 
ATOM     24  C   UNL     1       0.424  -0.031  -0.031  0.00  0.00    -0.021 A 
ATOM     25  C   UNL     1       0.150  -0.722  -1.154  0.00  0.00    -0.007 A 
ATOM     26  S   UNL     1      -0.001  -2.398  -0.576  0.00  0.00    -0.077 S 
ATOM     27  C   UNL     1       0.286  -2.174   1.061  0.00  0.00    +0.090 A 
ATOM     28  C   UNL     1       0.507  -0.810   1.183  0.00  0.00    +0.083 A 
ATOM     29  C   UNL     1       0.005  -0.202  -2.561  0.00  0.00    +0.052 C 
BRANCH  28  30
ATOM     30  C   UNL     1       0.797  -0.204   2.447  0.00  0.00    +0.102 C 
ATOM     31  N   UNL     1       1.027   0.277   3.450  0.00  0.00    -0.191 NA
ENDBRANCH  28  30
ENDBRANCH  19  27
ENDBRANCH   1  20
TORSDOF 4
