REMARK  Name = ZINC09873068
REMARK  5 active torsions:
REMARK  status: ('A' for Active; 'I' for Inactive)
REMARK    1  A    between atoms: C_6  and  S_11
REMARK    2  A    between atoms: S_11  and  N_14
REMARK    3  A    between atoms: C_20  and  C_22
REMARK    4  A    between atoms: C_22  and  N_23
REMARK    5  A    between atoms: C_26  and  C_34
REMARK                            x       y       z     vdW  Elec       q    Type
REMARK                         _______ _______ _______ _____ _____    ______ ____
ROOT
ATOM      1  N   UNL     1       5.554  -1.846  -2.187  0.00  0.00    -0.174 NA
ATOM      2  C   UNL     1       4.694  -1.376  -3.281  0.00  0.00    +0.128 C 
ATOM      3  C   UNL     1       4.435   0.124  -3.093  0.00  0.00    +0.125 C 
ATOM      4  N   UNL     1       4.007   0.356  -1.706  0.00  0.00    -0.297 N 
ATOM      5  C   UNL     1       4.870  -0.109  -0.611  0.00  0.00    +0.125 C 
ATOM      6  C   UNL     1       5.126  -1.614  -0.800  0.00  0.00    +0.128 C 
ATOM      7  C   UNL     1       2.846   0.989  -1.444  0.00  0.00    +0.236 C 
ATOM      8  O   UNL     1       2.145   1.372  -2.356  0.00  0.00    -0.274 OA
ENDROOT
BRANCH   1   9
ATOM      9  S   UNL     1       6.980  -2.622  -2.509  0.00  0.00    +0.061 S 
ATOM     10  O   UNL     1       7.279  -3.414  -1.368  0.00  0.00    -0.153 OA
ATOM     11  O   UNL     1       6.854  -3.179  -3.811  0.00  0.00    -0.153 OA
BRANCH   9  17
ATOM     12  C   UNL     1      11.882   1.899  -1.763  0.00  0.00    +0.001 A 
ATOM     13  C   UNL     1      11.600   1.304  -0.534  0.00  0.00    +0.001 A 
ATOM     14  C   UNL     1      10.637   0.348  -0.423  0.00  0.00    +0.008 A 
ATOM     15  C   UNL     1       9.914  -0.047  -1.561  0.00  0.00    -0.016 A 
ATOM     16  C   UNL     1       8.913  -1.031  -1.485  0.00  0.00    +0.037 A 
ATOM     17  C   UNL     1       8.234  -1.388  -2.609  0.00  0.00    +0.106 A 
ATOM     18  C   UNL     1       8.520  -0.798  -3.839  0.00  0.00    +0.029 A 
ATOM     19  C   UNL     1       9.478   0.162  -3.949  0.00  0.00    +0.010 A 
ATOM     20  C   UNL     1      10.201   0.558  -2.811  0.00  0.00    -0.018 A 
ATOM     21  C   UNL     1      11.202   1.541  -2.887  0.00  0.00    +0.008 A 
ENDBRANCH   9  17
ENDBRANCH   1   9
BRANCH   7  22
ATOM     22  C   UNL     1       2.420   1.220  -0.017  0.00  0.00    +0.225 C 
BRANCH  22  23
ATOM     23  N   UNL     1       1.134   1.921   0.002  0.00  0.00    -0.251 N 
ATOM     24  C   UNL     1      -0.014   1.213   0.009  0.00  0.00    +0.275 A 
ATOM     25  O   UNL     1       0.002  -0.004   0.002  0.00  0.00    -0.266 OA
ATOM     26  C   UNL     1      -1.287   1.950   0.019  0.00  0.00    +0.136 A 
ATOM     27  C   UNL     1      -1.244   3.331   0.033  0.00  0.00    +0.046 A 
ATOM     28  N   UNL     1      -0.042   3.968   0.030  0.00  0.00    -0.296 N 
ATOM     29  C   UNL     1       1.108   3.262   0.011  0.00  0.00    +0.333 A 
ATOM     30  O   UNL     1       2.163   3.866   0.002  0.00  0.00    -0.246 OA
ATOM     31  C   UNL     1      -0.233   5.429   0.053  0.00  0.00    +0.127 C 
ATOM     32  C   UNL     1      -1.695   5.667  -0.376  0.00  0.00    +0.028 C 
ATOM     33  C   UNL     1      -2.370   4.343   0.046  0.00  0.00    +0.057 C 
BRANCH  26  34
ATOM     34  C   UNL     1      -2.539   1.255   0.018  0.00  0.00    +0.106 C 
ATOM     35  N   UNL     1      -3.532   0.704   0.018  0.00  0.00    -0.191 NA
ENDBRANCH  26  34
ENDBRANCH  22  23
ENDBRANCH   7  22
TORSDOF 5
