REMARK  Name = ZINC16992842
REMARK  8 active torsions:
REMARK  status: ('A' for Active; 'I' for Inactive)
REMARK    1  A    between atoms: C_1  and  C_2
REMARK    2  A    between atoms: C_4  and  C_27
REMARK    3  A    between atoms: C_6  and  C_19
REMARK    4  A    between atoms: N_9  and  C_11
REMARK    5  A    between atoms: C_22  and  O_25
REMARK    6  A    between atoms: O_25  and  C_26
REMARK    7  A    between atoms: N_29  and  C_30
REMARK    8  A    between atoms: C_36  and  C_38
REMARK                            x       y       z     vdW  Elec       q    Type
REMARK                         _______ _______ _______ _____ _____    ______ ____
ROOT
ATOM      1  C   UNL     1      -3.676   4.058   0.164  0.00  0.00    +0.068 C 
ATOM      2  C   UNL     1      -2.185   4.273   0.133  0.00  0.00    +0.070 A 
ATOM      3  C   UNL     1      -1.218   3.291  -0.167  0.00  0.00    +0.054 A 
ATOM      4  C   UNL     1      -1.289   1.920  -0.509  0.00  0.00    +0.051 A 
ATOM      5  C   UNL     1      -0.098   1.243  -0.739  0.00  0.00    +0.042 A 
ATOM      6  C   UNL     1       1.113   1.935  -0.636  0.00  0.00    +0.074 A 
ATOM      7  N   UNL     1       1.149   3.219  -0.319  0.00  0.00    -0.228 NA
ATOM      8  C   UNL     1       0.045   3.912  -0.084  0.00  0.00    +0.160 A 
ATOM      9  N   UNL     1      -0.191   5.220   0.255  0.00  0.00    -0.241 N 
ATOM     10  N   UNL     1      -1.574   5.397   0.377  0.00  0.00    -0.174 NA
ENDROOT
BRANCH   9  11
ATOM     11  C   UNL     1       0.829   6.253   0.453  0.00  0.00    +0.132 C 
ATOM     12  C   UNL     1       0.735   6.794   1.889  0.00  0.00    +0.051 C 
ATOM     13  C   UNL     1       1.597   8.085   1.979  0.00  0.00    +0.168 C 
ATOM     14  S   UNL     1       1.183   8.879   0.368  0.00  0.00    -0.029 S 
ATOM     15  O   UNL     1       0.090   9.766   0.558  0.00  0.00    -0.174 OA
ATOM     16  O   UNL     1       2.379   9.360  -0.231  0.00  0.00    -0.174 OA
ATOM     17  C   UNL     1       0.601   7.401  -0.559  0.00  0.00    +0.192 C 
ENDBRANCH   9  11
BRANCH   6  18
ATOM     18  C   UNL     1       2.384   1.215  -0.886  0.00  0.00    +0.001 A 
ATOM     19  C   UNL     1       2.366  -0.140  -1.216  0.00  0.00    +0.013 A 
ATOM     20  C   UNL     1       3.550  -0.806  -1.454  0.00  0.00    +0.046 A 
ATOM     21  C   UNL     1       4.760  -0.131  -1.355  0.00  0.00    +0.120 A 
ATOM     22  C   UNL     1       4.781   1.216  -1.021  0.00  0.00    +0.046 A 
ATOM     23  C   UNL     1       3.601   1.889  -0.788  0.00  0.00    +0.013 A 
BRANCH  21  24
ATOM     24  O   UNL     1       5.924  -0.791  -1.585  0.00  0.00    -0.495 OA
ATOM     25  C   UNL     1       5.829  -2.176  -1.924  0.00  0.00    +0.277 C 
ENDBRANCH  21  24
ENDBRANCH   6  18
BRANCH   4  26
ATOM     26  C   UNL     1      -2.592   1.228  -0.613  0.00  0.00    +0.245 C 
ATOM     27  O   UNL     1      -3.550   1.803  -1.091  0.00  0.00    -0.270 OA
ATOM     28  N   UNL     1      -2.717  -0.042  -0.178  0.00  0.00    -0.308 N 
ATOM     29  H   UNL     1      -1.952  -0.501   0.203  0.00  0.00    +0.149 HD
BRANCH  28  30
ATOM     30  C   UNL     1      -4.007  -0.728  -0.282  0.00  0.00    +0.076 C 
ATOM     31  C   UNL     1      -4.146  -1.346  -1.674  0.00  0.00    +0.022 C 
ATOM     32  C   UNL     1      -5.494  -2.063  -1.782  0.00  0.00    +0.002 C 
ATOM     33  C   UNL     1      -5.571  -3.166  -0.724  0.00  0.00    +0.000 C 
ATOM     34  C   UNL     1      -5.432  -2.547   0.668  0.00  0.00    +0.005 C 
ATOM     35  C   UNL     1      -4.085  -1.831   0.776  0.00  0.00    +0.006 C 
ATOM     36  C   UNL     1      -3.946  -1.213   2.169  0.00  0.00    +0.009 C 
ENDBRANCH  28  30
ENDBRANCH   4  26
TORSDOF 5
