REMARK  Name = ZINC38686198
REMARK  17 active torsions:
REMARK  status: ('A' for Active; 'I' for Inactive)
REMARK    1  A    between atoms: C_1  and  C_2
REMARK    2  A    between atoms: C_2  and  C_3
REMARK    3  A    between atoms: C_3  and  C_4
REMARK    4  A    between atoms: C_4  and  C_5
REMARK    5  A    between atoms: C_5  and  O_6
REMARK    6  A    between atoms: O_6  and  C_7
REMARK    7  A    between atoms: C_12  and  C_13
REMARK    8  A    between atoms: C_18  and  O_27
REMARK    9  A    between atoms: C_22  and  N_26
REMARK   10  A    between atoms: C_23  and  C_24
REMARK   11  A    between atoms: O_27  and  C_28
REMARK   12  A    between atoms: C_28  and  C_30
REMARK   13  A    between atoms: C_30  and  C_32
REMARK   14  A    between atoms: C_30  and  O_33
REMARK   15  A    between atoms: O_33  and  C_34
REMARK   16  A    between atoms: C_37  and  C_40
REMARK   17  A    between atoms: C_40  and  C_41
REMARK                            x       y       z     vdW  Elec       q    Type
REMARK                         _______ _______ _______ _____ _____    ______ ____
ROOT
ATOM      1  C   UNL     1       1.625  -6.662  -2.658  0.00  0.00    +0.101 C 
ATOM      2  C   UNL     1       2.666  -7.538  -2.012  0.00  0.00    +0.008 A 
ATOM      3  C   UNL     1       3.554  -6.986  -1.107  0.00  0.00    +0.012 A 
ATOM      4  C   UNL     1       4.515  -7.774  -0.505  0.00  0.00    +0.047 A 
ATOM      5  C   UNL     1       4.591  -9.127  -0.808  0.00  0.00    +0.135 A 
ATOM      6  C   UNL     1       3.704  -9.683  -1.714  0.00  0.00    +0.093 A 
ATOM      7  C   UNL     1       2.738  -8.888  -2.319  0.00  0.00    +0.138 A 
ATOM      8  O   UNL     1       1.876  -9.448  -3.204  0.00  0.00    -0.441 OA
ATOM      9  C   UNL     1       0.723  -8.826  -3.500  0.00  0.00    +0.199 C 
ATOM     10  C   UNL     1       0.542  -7.508  -3.266  0.00  0.00    +0.098 C 
ENDROOT
BRANCH   1  16
ATOM     11  C   UNL     1       2.243  -4.445  -3.653  0.00  0.00    +0.125 A 
ATOM     12  C   UNL     1       2.844  -3.681  -4.643  0.00  0.00    +0.046 A 
ATOM     13  C   UNL     1       3.465  -4.300  -5.710  0.00  0.00    +0.004 A 
ATOM     14  C   UNL     1       3.489  -5.681  -5.791  0.00  0.00    +0.001 A 
ATOM     15  C   UNL     1       2.890  -6.444  -4.806  0.00  0.00    +0.008 A 
ATOM     16  C   UNL     1       2.272  -5.829  -3.734  0.00  0.00    +0.007 A 
BRANCH  11  17
ATOM     17  O   UNL     1       1.631  -3.838  -2.602  0.00  0.00    -0.492 OA
BRANCH  17  18
ATOM     18  C   UNL     1       1.639  -2.409  -2.584  0.00  0.00    +0.229 C 
BRANCH  18  19
ATOM     19  C   UNL     1       0.909  -1.911  -1.335  0.00  0.00    +0.041 C 
BRANCH  19  20
ATOM     20  C   UNL     1       0.918  -0.381  -1.315  0.00  0.00    +0.003 C 
BRANCH  20  22
ATOM     21  C   UNL     1       0.197   1.647  -0.046  0.00  0.00    +0.004 C 
ATOM     22  C   UNL     1       0.188   0.117  -0.066  0.00  0.00    -0.003 C 
ENDBRANCH  20  22
ENDBRANCH  19  20
ENDBRANCH  18  19
ENDBRANCH  17  18
ENDBRANCH  11  17
ENDBRANCH   1  16
BRANCH   9  23
ATOM     23  N   UNL     1      -0.301  -9.552  -4.057  0.00  0.00    -0.328 N 
ATOM     24  H   UNL     1      -0.185 -10.499  -4.231  0.00  0.00    +0.145 HD
ATOM     25  H   UNL     1      -1.140  -9.117  -4.277  0.00  0.00    +0.145 HD
ENDBRANCH   9  23
BRANCH  10  26
ATOM     26  C   UNL     1      -0.712  -6.905  -3.606  0.00  0.00    +0.101 C 
ATOM     27  N   UNL     1      -1.706  -6.427  -3.875  0.00  0.00    -0.191 NA
ENDBRANCH  10  26
BRANCH   5  28
ATOM     28  O   UNL     1       5.537  -9.904  -0.217  0.00  0.00    -0.423 OA
BRANCH  28  29
ATOM     29  C   UNL     1       6.497 -10.430  -0.995  0.00  0.00    +0.353 C 
ATOM     30  O   UNL     1       6.558 -10.133  -2.164  0.00  0.00    -0.246 OA
BRANCH  29  31
ATOM     31  C   UNL     1       7.499 -11.391  -0.408  0.00  0.00    +0.279 C 
ATOM     32  C   UNL     1       8.356 -10.664   0.630  0.00  0.00    +0.064 C 
BRANCH  31  33
ATOM     33  O   UNL     1       8.338 -11.898  -1.448  0.00  0.00    -0.478 OA
BRANCH  33  34
ATOM     34  C   UNL     1       8.772 -13.179  -1.322  0.00  0.00    +0.122 A 
ATOM     35  C   UNL     1       8.503 -13.893  -0.163  0.00  0.00    +0.046 A 
ATOM     36  C   UNL     1       8.945 -15.195  -0.037  0.00  0.00    +0.007 A 
ATOM     37  C   UNL     1       9.657 -15.788  -1.064  0.00  0.00    -0.047 A 
ATOM     38  C   UNL     1       9.927 -15.078  -2.220  0.00  0.00    +0.007 A 
ATOM     39  C   UNL     1       9.481 -13.778  -2.353  0.00  0.00    +0.046 A 
BRANCH  37  40
ATOM     40  C   UNL     1      10.139 -17.209  -0.923  0.00  0.00    +0.032 C 
ATOM     41  C   UNL     1       9.069 -18.165  -1.455  0.00  0.00    +0.009 C 
ENDBRANCH  37  40
ENDBRANCH  33  34
ENDBRANCH  31  33
ENDBRANCH  29  31
ENDBRANCH  28  29
ENDBRANCH   5  28
TORSDOF 14
