REMARK  Name = ZINC09510416
REMARK  10 active torsions:
REMARK  status: ('A' for Active; 'I' for Inactive)
REMARK    1  A    between atoms: C_1  and  C_2
REMARK    2  A    between atoms: C_2  and  C_3
REMARK    3  A    between atoms: C_2  and  C_4
REMARK    4  A    between atoms: C_2  and  O_5
REMARK    5  A    between atoms: O_5  and  C_6
REMARK    6  A    between atoms: C_17  and  C_19
REMARK    7  A    between atoms: N_21  and  C_22
REMARK    8  A    between atoms: C_22  and  C_23
REMARK    9  A    between atoms: C_27  and  C_31
REMARK   10  A    between atoms: N_33  and  C_34
REMARK                            x       y       z     vdW  Elec       q    Type
REMARK                         _______ _______ _______ _____ _____    ______ ____
ROOT
ATOM      1  C   UNL     1       1.119   7.452  -0.086  0.00  0.00    +0.234 C 
ATOM      2  O   UNL     1       1.639   7.847   0.936  0.00  0.00    -0.274 OA
ATOM      3  N   UNL     1       0.522   8.326  -0.920  0.00  0.00    -0.314 N 
ATOM      4  H   UNL     1       0.106   8.010  -1.738  0.00  0.00    +0.149 HD
ENDROOT
BRANCH   1  16
ATOM      5  C   UNL     1       3.201   6.636  -1.597  0.00  0.00    +0.404 C 
ATOM      6  O   UNL     1       3.124   7.738  -1.091  0.00  0.00    -0.226 OA
ATOM      7  N   UNL     1       2.299   5.685  -1.282  0.00  0.00    -0.251 N 
ATOM      8  C   UNL     1       2.432   4.312  -1.782  0.00  0.00    +0.147 C 
ATOM      9  C   UNL     1       2.161   3.337  -0.664  0.00  0.00    -0.027 A 
ATOM     10  C   UNL     1       2.465   2.000  -0.883  0.00  0.00    +0.005 A 
ATOM     11  C   UNL     1       2.220   1.057   0.094  0.00  0.00    +0.000 A 
ATOM     12  C   UNL     1       1.662   1.446   1.297  0.00  0.00    +0.000 A 
ATOM     13  C   UNL     1       1.368   2.775   1.520  0.00  0.00    +0.004 A 
ATOM     14  C   UNL     1       1.618   3.728   0.539  0.00  0.00    -0.040 A 
ATOM     15  C   UNL     1       1.280   5.161   0.857  0.00  0.00    +0.067 C 
ATOM     16  C   UNL     1       1.141   5.983  -0.424  0.00  0.00    +0.170 C 
BRANCH   5  17
ATOM     17  O   UNL     1       4.189   6.364  -2.470  0.00  0.00    -0.445 OA
BRANCH  17  19
ATOM     18  C   UNL     1       5.825   7.866  -1.472  0.00  0.00    +0.055 C 
ATOM     19  C   UNL     1       5.125   7.435  -2.762  0.00  0.00    +0.107 C 
ATOM     20  C   UNL     1       6.167   6.942  -3.768  0.00  0.00    +0.055 C 
ATOM     21  C   UNL     1       4.368   8.626  -3.354  0.00  0.00    +0.055 C 
ENDBRANCH  17  19
ENDBRANCH   5  17
ENDBRANCH   1  16
BRANCH   3  22
ATOM     22  C   UNL     1       0.501   9.754  -0.593  0.00  0.00    +0.107 C 
BRANCH  22  23
ATOM     23  C   UNL     1      -0.232  10.520  -1.696  0.00  0.00    +0.006 C 
ATOM     24  C   UNL     1       0.559  10.416  -3.001  0.00  0.00    +0.006 C 
ATOM     25  C   UNL     1      -0.174  11.181  -4.104  0.00  0.00    +0.013 C 
ATOM     26  C   UNL     1      -0.305  12.652  -3.703  0.00  0.00    +0.075 C 
ATOM     27  C   UNL     1      -1.097  12.756  -2.398  0.00  0.00    +0.013 C 
ATOM     28  C   UNL     1      -0.363  11.990  -1.295  0.00  0.00    +0.006 C 
BRANCH  26  29
ATOM     29  C   UNL     1       1.067  13.244  -3.508  0.00  0.00    +0.216 C 
ATOM     30  O   UNL     1       1.381  13.704  -2.430  0.00  0.00    -0.276 OA
ATOM     31  N   UNL     1       1.945  13.262  -4.530  0.00  0.00    -0.312 N 
ATOM     32  H   UNL     1       1.693  12.895  -5.392  0.00  0.00    +0.149 HD
BRANCH  31  33
ATOM     33  C   UNL     1       3.279  13.838  -4.340  0.00  0.00    +0.073 C 
ATOM     34  C   UNL     1       3.217  15.351  -4.558  0.00  0.00    +0.022 C 
ATOM     35  C   UNL     1       4.610  15.952  -4.359  0.00  0.00    +0.002 C 
ATOM     36  C   UNL     1       5.582  15.331  -5.365  0.00  0.00    +0.000 C 
ATOM     37  C   UNL     1       5.643  13.817  -5.147  0.00  0.00    +0.002 C 
ATOM     38  C   UNL     1       4.250  13.216  -5.345  0.00  0.00    +0.022 C 
ENDBRANCH  31  33
ENDBRANCH  26  29
ENDBRANCH  22  23
ENDBRANCH   3  22
TORSDOF 7
