REMARK  Name = ZINC60211439
REMARK  8 active torsions:
REMARK  status: ('A' for Active; 'I' for Inactive)
REMARK    1  A    between atoms: C_1  and  C_2
REMARK    2  A    between atoms: C_2  and  N_3
REMARK    3  A    between atoms: C_12  and  C_14
REMARK    4  A    between atoms: N_16  and  N_17
REMARK    5  A    between atoms: C_18  and  C_20
REMARK    6  A    between atoms: C_23  and  C_25
REMARK    7  A    between atoms: C_28  and  C_32
REMARK    8  A    between atoms: C_30  and  C_31
REMARK                            x       y       z     vdW  Elec       q    Type
REMARK                         _______ _______ _______ _____ _____    ______ ____
ROOT
ATOM      1  C   UNL     1       0.404  -1.305  -5.114  0.00  0.00    +0.281 C 
ATOM      2  O   UNL     1       0.744  -1.544  -6.257  0.00  0.00    -0.267 OA
ATOM      3  N   UNL     1      -0.905  -1.248  -4.798  0.00  0.00    -0.229 N 
ATOM      4  H   UNL     1      -1.176  -1.058  -3.886  0.00  0.00    +0.173 HD
ENDROOT
BRANCH   1  14
ATOM      5  N   UNL     1       1.889  -0.610  -1.879  0.00  0.00    -0.229 N 
ATOM      6  C   UNL     1       3.229  -0.632  -2.028  0.00  0.00    +0.275 A 
ATOM      7  O   UNL     1       3.965  -0.426  -1.080  0.00  0.00    -0.266 OA
ATOM      8  C   UNL     1       3.781  -0.910  -3.361  0.00  0.00    +0.050 A 
ATOM      9  C   UNL     1       5.147  -0.954  -3.620  0.00  0.00    +0.014 A 
ATOM     10  C   UNL     1       5.584  -1.221  -4.900  0.00  0.00    +0.001 A 
ATOM     11  C   UNL     1       4.678  -1.445  -5.927  0.00  0.00    +0.001 A 
ATOM     12  C   UNL     1       3.320  -1.405  -5.692  0.00  0.00    +0.011 A 
ATOM     13  C   UNL     1       2.857  -1.138  -4.408  0.00  0.00    +0.020 A 
ATOM     14  C   UNL     1       1.425  -1.078  -4.072  0.00  0.00    +0.155 A 
ATOM     15  N   UNL     1       1.068  -0.824  -2.837  0.00  0.00    -0.163 NA
BRANCH   5  17
ATOM     16  C   UNL     1       1.137   1.175  -0.386  0.00  0.00    +0.029 C 
ATOM     17  C   UNL     1       1.343  -0.333  -0.548  0.00  0.00    +0.144 C 
ENDBRANCH   5  17
ENDBRANCH   1  14
BRANCH   3  18
ATOM     18  N   UNL     1      -1.874  -1.464  -5.786  0.00  0.00    -0.229 N 
ATOM     19  C   UNL     1      -3.183  -1.407  -5.471  0.00  0.00    +0.279 C 
ATOM     20  O   UNL     1      -3.523  -1.168  -4.327  0.00  0.00    -0.267 OA
ATOM     21  H   UNL     1      -1.603  -1.654  -6.698  0.00  0.00    +0.173 HD
BRANCH  19  22
ATOM     22  C   UNL     1      -4.202  -1.634  -6.510  0.00  0.00    +0.135 A 
ATOM     23  C   UNL     1      -5.535  -1.573  -6.200  0.00  0.00    +0.080 A 
ATOM     24  S   UNL     1      -6.268  -1.892  -7.681  0.00  0.00    -0.075 S 
ATOM     25  C   UNL     1      -4.788  -2.095  -8.658  0.00  0.00    +0.109 A 
ATOM     26  N   UNL     1      -3.842  -1.894  -7.759  0.00  0.00    -0.234 NA
BRANCH  25  27
ATOM     27  C   UNL     1      -4.656  -2.404 -10.098  0.00  0.00    +0.010 A 
ATOM     28  C   UNL     1      -5.416  -3.425 -10.669  0.00  0.00    +0.011 A 
ATOM     29  C   UNL     1      -5.288  -3.708 -12.013  0.00  0.00    +0.004 A 
ATOM     30  C   UNL     1      -4.409  -2.981 -12.795  0.00  0.00    -0.050 A 
ATOM     31  C   UNL     1      -3.652  -1.967 -12.236  0.00  0.00    +0.007 A 
ATOM     32  C   UNL     1      -3.775  -1.671 -10.893  0.00  0.00    -0.041 A 
ATOM     33  C   UNL     1      -2.955  -0.561 -10.287  0.00  0.00    +0.044 C 
ATOM     34  C   UNL     1      -4.274  -3.295 -14.263  0.00  0.00    +0.044 C 
ENDBRANCH  25  27
ENDBRANCH  19  22
ENDBRANCH   3  18
TORSDOF 5
