REMARK  Name = ZINC08426854
REMARK  9 active torsions:
REMARK  status: ('A' for Active; 'I' for Inactive)
REMARK    1  A    between atoms: C_1  and  C_2
REMARK    2  A    between atoms: C_2  and  C_25
REMARK    3  A    between atoms: N_3  and  N_4
REMARK    4  A    between atoms: C_5  and  C_7
REMARK    5  A    between atoms: C_7  and  N_8
REMARK    6  A    between atoms: N_8  and  C_9
REMARK    7  A    between atoms: N_8  and  S_16
REMARK    8  A    between atoms: S_16  and  C_19
REMARK    9  A    between atoms: C_30  and  O_31
REMARK                            x       y       z     vdW  Elec       q    Type
REMARK                         _______ _______ _______ _____ _____    ______ ____
ROOT
ATOM      1  N   UNL     1       0.040  -0.871   5.873  0.00  0.00    -0.194 N 
ENDROOT
BRANCH   1   2
ATOM      2  C   UNL     1       1.339  -1.190   6.276  0.00  0.00    +0.052 A 
ATOM      3  C   UNL     1       1.557  -2.254   7.142  0.00  0.00    +0.026 A 
ATOM      4  C   UNL     1       2.842  -2.568   7.539  0.00  0.00    +0.017 A 
ATOM      5  C   UNL     1       3.912  -1.823   7.075  0.00  0.00    +0.018 A 
ATOM      6  C   UNL     1       3.698  -0.764   6.211  0.00  0.00    +0.017 A 
ATOM      7  C   UNL     1       2.416  -0.449   5.806  0.00  0.00    +0.026 A 
ATOM      8 BR   UNL     1       5.670  -2.256   7.621  0.00  0.00    -0.050 Br
ENDBRANCH   1   2
BRANCH   1   9
ATOM      9  S   UNL     1      -1.045  -0.274   6.972  0.00  0.00    +0.075 S 
ATOM     10  O   UNL     1      -0.286   0.187   8.082  0.00  0.00    -0.150 OA
ATOM     11  O   UNL     1      -1.931   0.572   6.251  0.00  0.00    -0.150 OA
BRANCH   9  12
ATOM     12  C   UNL     1      -2.005  -1.635   7.548  0.00  0.00    +0.109 A 
ATOM     13  C   UNL     1      -3.092  -2.073   6.815  0.00  0.00    +0.029 A 
ATOM     14  C   UNL     1      -3.845  -3.140   7.267  0.00  0.00    +0.002 A 
ATOM     15  C   UNL     1      -3.511  -3.770   8.451  0.00  0.00    +0.000 A 
ATOM     16  C   UNL     1      -2.423  -3.332   9.184  0.00  0.00    +0.002 A 
ATOM     17  C   UNL     1      -1.668  -2.267   8.730  0.00  0.00    +0.029 A 
ENDBRANCH   9  12
ENDBRANCH   1   9
BRANCH   1  18
ATOM     18  C   UNL     1      -0.362  -1.063   4.477  0.00  0.00    +0.228 C 
BRANCH  18  20
ATOM     19  N   UNL     1      -1.222  -2.899   3.060  0.00  0.00    -0.205 N 
ATOM     20  C   UNL     1      -0.805  -2.489   4.274  0.00  0.00    +0.251 C 
ATOM     21  O   UNL     1      -0.787  -3.268   5.204  0.00  0.00    -0.272 OA
ATOM     22  H   UNL     1      -1.237  -2.276   2.316  0.00  0.00    +0.177 HD
BRANCH  19  25
ATOM     23  C   UNL     1      -2.058  -3.652   0.547  0.00  0.00    +0.068 C 
ATOM     24  C   UNL     1      -2.035  -4.620   1.702  0.00  0.00    +0.067 C 
ATOM     25  N   UNL     1      -1.634  -4.225   2.871  0.00  0.00    -0.184 NA
BRANCH  24  26
ATOM     26  C   UNL     1      -2.468  -6.015   1.504  0.00  0.00    +0.039 A 
ATOM     27  C   UNL     1      -2.895  -6.445   0.245  0.00  0.00    +0.013 A 
ATOM     28  C   UNL     1      -3.299  -7.752   0.066  0.00  0.00    +0.001 A 
ATOM     29  C   UNL     1      -3.283  -8.639   1.129  0.00  0.00    +0.004 A 
ATOM     30  C   UNL     1      -2.862  -8.225   2.379  0.00  0.00    +0.046 A 
ATOM     31  C   UNL     1      -2.448  -6.918   2.575  0.00  0.00    +0.126 A 
BRANCH  31  32
ATOM     32  O   UNL     1      -2.030  -6.512   3.802  0.00  0.00    -0.506 OA
ATOM     33  H   UNL     1      -2.737  -6.167   4.364  0.00  0.00    +0.292 HD
ENDBRANCH  31  32
ENDBRANCH  24  26
ENDBRANCH  19  25
ENDBRANCH  18  20
ENDBRANCH   1  18
TORSDOF 8
