REMARK  Name = ZINC04684312
REMARK  7 active torsions:
REMARK  status: ('A' for Active; 'I' for Inactive)
REMARK    1  A    between atoms: C_1  and  C_2
REMARK    2  A    between atoms: C_6  and  N_9
REMARK    3  A    between atoms: C_7  and  C_8
REMARK    4  A    between atoms: N_12  and  C_15
REMARK    5  A    between atoms: C_18  and  N_24
REMARK    6  A    between atoms: C_20  and  N_21
REMARK    7  A    between atoms: C_28  and  C_32
REMARK                            x       y       z     vdW  Elec       q    Type
REMARK                         _______ _______ _______ _____ _____    ______ ____
ROOT
ATOM      1  C   UNL     1       0.110  -5.779   5.111  0.00  0.00    +0.060 A 
ATOM      2  C   UNL     1      -0.117  -7.150   5.114  0.00  0.00    +0.027 A 
ATOM      3  C   UNL     1      -0.102  -7.848   6.305  0.00  0.00    +0.026 A 
ATOM      4  C   UNL     1       0.139  -7.182   7.498  0.00  0.00    +0.046 A 
ATOM      5  C   UNL     1       0.366  -5.812   7.495  0.00  0.00    +0.058 A 
ATOM      6  C   UNL     1       0.357  -5.114   6.304  0.00  0.00    +0.149 A 
ENDROOT
BRANCH   4   7
ATOM      7  N   UNL     1       0.154  -7.892   8.709  0.00  0.00    -0.210 N 
ATOM      8  C   UNL     1      -0.776  -7.726   9.658  0.00  0.00    +0.227 C 
ATOM      9  O   UNL     1      -1.717  -6.965   9.593  0.00  0.00    -0.275 OA
ATOM     10  C   UNL     1      -0.466  -8.639  10.824  0.00  0.00    +0.109 C 
ATOM     11  C   UNL     1       0.818  -9.370  10.380  0.00  0.00    +0.082 C 
ATOM     12  C   UNL     1       1.095  -8.797   9.007  0.00  0.00    +0.229 C 
ATOM     13  O   UNL     1       2.023  -9.106   8.291  0.00  0.00    -0.275 OA
ATOM     14  C   UNL     1       1.970  -9.067  11.341  0.00  0.00    +0.017 C 
ENDBRANCH   4   7
BRANCH   1  18
ATOM     15  N   UNL     1       0.305  -2.815   2.376  0.00  0.00    -0.327 N 
ATOM     16  C   UNL     1      -0.926  -2.984   3.160  0.00  0.00    +0.124 C 
ATOM     17  C   UNL     1      -1.153  -4.481   3.400  0.00  0.00    +0.124 C 
ATOM     18  N   UNL     1       0.095  -5.071   3.905  0.00  0.00    -0.325 N 
ATOM     19  C   UNL     1       1.326  -4.902   3.121  0.00  0.00    +0.124 C 
ATOM     20  C   UNL     1       1.552  -3.409   2.879  0.00  0.00    +0.124 C 
BRANCH  15  26
ATOM     21  C   UNL     1       0.768   1.443  -0.034  0.00  0.00    +0.044 C 
ATOM     22  C   UNL     1       0.511  -0.042  -0.026  0.00  0.00    -0.046 A 
ATOM     23  C   UNL     1       0.260  -0.706  -1.214  0.00  0.00    +0.004 A 
ATOM     24  C   UNL     1       0.023  -2.068  -1.211  0.00  0.00    +0.002 A 
ATOM     25  C   UNL     1       0.038  -2.771  -0.022  0.00  0.00    +0.023 A 
ATOM     26  C   UNL     1       0.290  -2.108   1.172  0.00  0.00    +0.033 A 
ATOM     27  C   UNL     1       0.532  -0.740   1.165  0.00  0.00    -0.027 A 
ATOM     28  C   UNL     1       0.812  -0.016   2.457  0.00  0.00    +0.046 C 
ENDBRANCH  15  26
ENDBRANCH   1  18
BRANCH   6  29
ATOM     29  N   UNL     1       0.604  -3.654   6.301  0.00  0.00    +0.058 N 
ATOM     30  O   UNL     1       0.820  -3.075   7.340  0.00  0.00    -0.126 OA
ATOM     31  O   UNL     1       0.591  -3.042   5.258  0.00  0.00    -0.126 OA
ENDBRANCH   6  29
TORSDOF 4
