REMARK  Name = ZINC35927824
REMARK  10 active torsions:
REMARK  status: ('A' for Active; 'I' for Inactive)
REMARK    1  A    between atoms: C_1  and  C_2
REMARK    2  A    between atoms: C_5  and  C_8
REMARK    3  A    between atoms: C_8  and  C_9
REMARK    4  A    between atoms: N_15  and  C_16
REMARK    5  A    between atoms: C_22  and  N_24
REMARK    6  A    between atoms: N_28  and  C_31
REMARK    7  A    between atoms: C_31  and  C_32
REMARK    8  A    between atoms: C_35  and  C_38
REMARK    9  A    between atoms: C_38  and  C_39
REMARK   10  A    between atoms: C_38  and  C_40
REMARK                            x       y       z     vdW  Elec       q    Type
REMARK                         _______ _______ _______ _____ _____    ______ ____
ROOT
ATOM      1  C   UNL     1       2.903  -4.026  -0.629  0.00  0.00    +0.138 A 
ATOM      2  N   UNL     1       2.138  -4.920  -1.215  0.00  0.00    -0.212 NA
ATOM      3  C   UNL     1       1.927  -6.108  -0.651  0.00  0.00    +0.168 A 
ATOM      4  C   UNL     1       2.539  -6.392   0.586  0.00  0.00    +0.079 A 
ATOM      5  C   UNL     1       2.152  -7.700   0.949  0.00  0.00    +0.148 A 
ATOM      6  N   UNL     1       1.373  -8.174   0.018  0.00  0.00    -0.172 NA
ATOM      7  N   UNL     1       1.208  -7.218  -0.992  0.00  0.00    -0.214 N 
ATOM      8  C   UNL     1       3.349  -5.400   1.171  0.00  0.00    +0.136 A 
ATOM      9  N   UNL     1       3.502  -4.248   0.528  0.00  0.00    -0.216 NA
ENDROOT
BRANCH   8  10
ATOM     10  N   UNL     1       3.975  -5.622   2.383  0.00  0.00    -0.316 N 
ATOM     11  C   UNL     1       5.335  -6.196   2.387  0.00  0.00    +0.104 C 
ATOM     12  C   UNL     1       6.226  -5.502   3.434  0.00  0.00    +0.000 C 
ATOM     13  C   UNL     1       5.939  -4.017   3.434  0.00  0.00    -0.077 C 
ATOM     14  N   UNL     1       4.929  -3.721   4.448  0.00  0.00    +0.383 N 
ATOM     15  C   UNL     1       3.592  -3.824   4.004  0.00  0.00    -0.059 C 
ATOM     16  C   UNL     1       3.274  -5.278   3.603  0.00  0.00    +0.088 C 
ATOM     17  H   UNL     1       5.058  -4.356   5.221  0.00  0.00    -0.081 HD
BRANCH  14  18
ATOM     18  C   UNL     1       5.150  -2.353   4.937  0.00  0.00    -0.043 C 
BRANCH  18  19
ATOM     19  C   UNL     1       4.200  -2.065   6.070  0.00  0.00    -0.064 A 
ATOM     20  C   UNL     1       2.954  -1.528   5.807  0.00  0.00    +0.002 A 
ATOM     21  C   UNL     1       2.082  -1.263   6.847  0.00  0.00    +0.004 A 
ATOM     22  C   UNL     1       2.455  -1.537   8.149  0.00  0.00    -0.045 A 
ATOM     23  C   UNL     1       3.701  -2.075   8.412  0.00  0.00    +0.004 A 
ATOM     24  C   UNL     1       4.571  -2.344   7.372  0.00  0.00    +0.002 A 
BRANCH  22  25
ATOM     25  C   UNL     1       1.505  -1.248   9.283  0.00  0.00    +0.013 C 
ATOM     26  C   UNL     1       1.196  -2.545  10.032  0.00  0.00    +0.012 C 
ATOM     27  C   UNL     1       2.147  -0.244  10.243  0.00  0.00    +0.012 C 
ENDBRANCH  22  25
ENDBRANCH  18  19
ENDBRANCH  14  18
ENDBRANCH   8  10
BRANCH   7  28
ATOM     28  C   UNL     1       0.439  -7.374  -2.152  0.00  0.00    +0.068 A 
ATOM     29  C   UNL     1      -0.240  -6.288  -2.688  0.00  0.00    +0.028 A 
ATOM     30  C   UNL     1      -0.997  -6.444  -3.833  0.00  0.00    +0.002 A 
ATOM     31  C   UNL     1      -1.080  -7.682  -4.444  0.00  0.00    +0.000 A 
ATOM     32  C   UNL     1      -0.406  -8.766  -3.913  0.00  0.00    +0.002 A 
ATOM     33  C   UNL     1       0.358  -8.614  -2.772  0.00  0.00    +0.028 A 
ENDBRANCH   7  28
BRANCH   1  34
ATOM     34  C   UNL     1       3.111  -2.696  -1.307  0.00  0.00    +0.111 C 
BRANCH  34  39
ATOM     35  C   UNL     1       7.703  -3.011  -4.802  0.00  0.00    +0.044 C 
ATOM     36  C   UNL     1       6.506  -2.929  -3.890  0.00  0.00    -0.050 A 
ATOM     37  C   UNL     1       5.248  -3.241  -4.372  0.00  0.00    +0.003 A 
ATOM     38  C   UNL     1       4.149  -3.166  -3.536  0.00  0.00    +0.004 A 
ATOM     39  C   UNL     1       4.309  -2.779  -2.219  0.00  0.00    -0.040 A 
ATOM     40  C   UNL     1       5.567  -2.469  -1.737  0.00  0.00    +0.004 A 
ATOM     41  C   UNL     1       6.666  -2.548  -2.571  0.00  0.00    +0.003 A 
ENDBRANCH  34  39
ENDBRANCH   1  34
TORSDOF 7
