REMARK  Name = ZINC57608151
REMARK  11 active torsions:
REMARK  status: ('A' for Active; 'I' for Inactive)
REMARK    1  A    between atoms: C_1  and  C_2
REMARK    2  A    between atoms: C_2  and  C_3
REMARK    3  A    between atoms: C_10  and  C_15
REMARK    4  A    between atoms: C_15  and  C_17
REMARK    5  A    between atoms: C_15  and  N_29
REMARK    6  A    between atoms: N_21  and  C_22
REMARK    7  A    between atoms: C_22  and  C_23
REMARK    8  A    between atoms: N_29  and  C_30
REMARK    9  A    between atoms: N_29  and  C_37
REMARK   10  A    between atoms: C_30  and  C_31
REMARK   11  A    between atoms: C_37  and  C_38
REMARK                            x       y       z     vdW  Elec       q    Type
REMARK                         _______ _______ _______ _____ _____    ______ ____
ROOT
ATOM      1  C   UNL     1       0.527  -2.088   7.782  0.00  0.00    +0.163 C 
ENDROOT
BRANCH   1   9
ATOM      2  C   UNL     1       3.542   0.925   3.295  0.00  0.00    -0.047 A 
ATOM      3  C   UNL     1       4.806   0.442   3.606  0.00  0.00    +0.005 A 
ATOM      4  C   UNL     1       4.987  -0.431   4.657  0.00  0.00    +0.026 A 
ATOM      5  C   UNL     1       3.893  -0.832   5.417  0.00  0.00    +0.049 A 
ATOM      6  C   UNL     1       2.613  -0.340   5.100  0.00  0.00    -0.001 A 
ATOM      7  C   UNL     1       2.454   0.548   4.031  0.00  0.00    +0.013 A 
ATOM      8  C   UNL     1       1.468  -0.768   5.906  0.00  0.00    +0.021 A 
ATOM      9  C   UNL     1       1.684  -1.627   6.933  0.00  0.00    +0.042 A 
ATOM     10  C   UNL     1       2.988  -2.091   7.209  0.00  0.00    +0.254 A 
ATOM     11  O   UNL     1       3.160  -2.863   8.136  0.00  0.00    -0.268 OA
ATOM     12  N   UNL     1       4.045  -1.704   6.474  0.00  0.00    -0.322 N 
ATOM     13  H   UNL     1       4.928  -2.042   6.691  0.00  0.00    +0.169 HD
BRANCH   2  15
ATOM     14  C   UNL     1       3.525   3.316   2.639  0.00  0.00    +0.009 C 
ATOM     15  C   UNL     1       3.369   1.878   2.141  0.00  0.00    +0.032 C 
ENDBRANCH   2  15
ENDBRANCH   1   9
BRANCH   1  16
ATOM     16  C   UNL     1       0.319  -3.567   7.586  0.00  0.00    +0.173 A 
ATOM     17  N   UNL     1       1.201  -4.516   7.789  0.00  0.00    -0.111 NA
ATOM     18  N   UNL     1       0.643  -5.644   7.512  0.00  0.00    -0.023 NA
ATOM     19  N   UNL     1      -0.572  -5.439   7.137  0.00  0.00    -0.044 NA
ATOM     20  N   UNL     1      -0.811  -4.172   7.175  0.00  0.00    -0.225 N 
BRANCH  20  21
ATOM     21  C   UNL     1      -2.075  -3.515   6.832  0.00  0.00    +0.179 C 
BRANCH  21  22
ATOM     22  C   UNL     1      -2.038  -3.074   5.367  0.00  0.00    +0.140 C 
ATOM     23  C   UNL     1      -3.315  -2.274   5.029  0.00  0.00    +0.035 C 
ATOM     24  C   UNL     1      -3.647  -2.774   3.596  0.00  0.00    +0.031 C 
ATOM     25  C   UNL     1      -3.182  -4.249   3.684  0.00  0.00    +0.160 C 
ATOM     26  O   UNL     1      -2.007  -4.224   4.514  0.00  0.00    -0.375 OA
ENDBRANCH  21  22
ENDBRANCH  20  21
ENDBRANCH   1  16
BRANCH   1  27
ATOM     27  N   UNL     1       0.820  -1.817   9.196  0.00  0.00    -0.277 NA
BRANCH  27  28
ATOM     28  C   UNL     1       0.779  -0.376   9.475  0.00  0.00    +0.122 C 
BRANCH  28  29
ATOM     29  C   UNL     1       2.048   0.268   8.979  0.00  0.00    -0.015 A 
ATOM     30  C   UNL     1       3.271  -0.064   9.541  0.00  0.00    +0.008 A 
ATOM     31  C   UNL     1       4.412   0.553   9.053  0.00  0.00    +0.020 A 
ATOM     32  C   UNL     1       4.293   1.474   8.028  0.00  0.00    +0.111 A 
ATOM     33  N   UNL     1       3.113   1.766   7.517  0.00  0.00    -0.263 NA
ATOM     34  C   UNL     1       2.008   1.194   7.953  0.00  0.00    +0.115 A 
ENDBRANCH  28  29
ENDBRANCH  27  28
BRANCH  27  35
ATOM     35  C   UNL     1      -0.102  -2.550  10.073  0.00  0.00    +0.160 C 
BRANCH  35  36
ATOM     36  C   UNL     1       0.497  -3.886  10.429  0.00  0.00    +0.119 A 
ATOM     37  C   UNL     1       1.386  -4.113  11.413  0.00  0.00    +0.046 A 
ATOM     38  C   UNL     1       1.676  -5.496  11.393  0.00  0.00    +0.041 A 
ATOM     39  C   UNL     1       0.947  -6.032  10.397  0.00  0.00    +0.195 A 
ATOM     40  O   UNL     1       0.231  -5.053   9.821  0.00  0.00    -0.467 OA
ENDBRANCH  35  36
ENDBRANCH  27  35
ENDBRANCH   1  27
TORSDOF 10
