REMARK  Name = ZINC54615224
REMARK  15 active torsions:
REMARK  status: ('A' for Active; 'I' for Inactive)
REMARK    1  A    between atoms: C_1  and  C_2
REMARK    2  A    between atoms: C_2  and  C_3
REMARK    3  A    between atoms: C_3  and  C_4
REMARK    4  A    between atoms: C_4  and  S_5
REMARK    5  A    between atoms: S_5  and  C_6
REMARK    6  A    between atoms: C_11  and  C_28
REMARK    7  A    between atoms: C_13  and  C_17
REMARK    8  A    between atoms: C_14  and  C_16
REMARK    9  A    between atoms: N_19  and  C_20
REMARK   10  A    between atoms: C_24  and  C_27
REMARK   11  A    between atoms: C_25  and  C_26
REMARK   12  A    between atoms: C_31  and  O_34
REMARK   13  A    between atoms: O_34  and  C_35
REMARK   14  A    between atoms: C_35  and  C_36
REMARK   15  A    between atoms: C_35  and  C_37
REMARK                            x       y       z     vdW  Elec       q    Type
REMARK                         _______ _______ _______ _____ _____    ______ ____
ROOT
ATOM      1  C   UNL     1       1.077  -5.713  -1.589  0.00  0.00    +0.210 A 
ATOM      2  N   UNL     1       0.821  -6.684  -0.699  0.00  0.00    -0.187 NA
ATOM      3  C   UNL     1       1.044  -7.847  -1.247  0.00  0.00    +0.219 A 
ATOM      4  N   UNL     1       1.460  -7.641  -2.521  0.00  0.00    -0.220 N 
ATOM      5  N   UNL     1       1.465  -6.261  -2.720  0.00  0.00    -0.141 NA
ATOM      6  C   UNL     1       1.814  -8.719  -3.440  0.00  0.00    +0.177 C 
ATOM      7  C   UNL     1       1.365 -10.036  -2.865  0.00  0.00    +0.060 C 
ATOM      8  C   UNL     1       0.959 -10.180  -1.595  0.00  0.00    +0.018 C 
ATOM      9  N   UNL     1       0.911  -9.124  -0.718  0.00  0.00    -0.287 N 
ATOM     10  C   UNL     1       0.540 -11.545  -1.114  0.00  0.00    +0.061 C 
ATOM     11  H   UNL     1       0.790  -9.265   0.234  0.00  0.00    +0.155 HD
ENDROOT
BRANCH   6  12
ATOM     12  C   UNL     1       3.308  -8.741  -3.638  0.00  0.00    -0.018 A 
ATOM     13  C   UNL     1       4.144  -8.942  -2.555  0.00  0.00    +0.009 A 
ATOM     14  C   UNL     1       5.514  -8.961  -2.734  0.00  0.00    +0.046 A 
ATOM     15  C   UNL     1       6.050  -8.780  -4.000  0.00  0.00    +0.121 A 
ATOM     16  C   UNL     1       5.208  -8.579  -5.085  0.00  0.00    +0.046 A 
ATOM     17  C   UNL     1       3.839  -8.565  -4.902  0.00  0.00    +0.009 A 
BRANCH  15  18
ATOM     18  O   UNL     1       7.397  -8.798  -4.179  0.00  0.00    -0.489 OA
BRANCH  18  19
ATOM     19  C   UNL     1       8.206  -8.889  -3.004  0.00  0.00    +0.167 C 
ATOM     20  C   UNL     1       8.345 -10.356  -2.593  0.00  0.00    +0.051 C 
ATOM     21  C   UNL     1       9.591  -8.306  -3.292  0.00  0.00    +0.051 C 
ENDBRANCH  18  19
ENDBRANCH  15  18
ENDBRANCH   6  12
BRANCH   7  22
ATOM     22  C   UNL     1       1.371 -11.175  -3.704  0.00  0.00    +0.248 C 
ATOM     23  O   UNL     1       0.474 -11.341  -4.511  0.00  0.00    -0.270 OA
ATOM     24  N   UNL     1       2.369 -12.076  -3.609  0.00  0.00    -0.281 N 
ATOM     25  H   UNL     1       3.054 -11.972  -2.931  0.00  0.00    +0.155 HD
BRANCH  24  26
ATOM     26  C   UNL     1       2.415 -13.162  -4.489  0.00  0.00    +0.037 A 
ATOM     27  C   UNL     1       1.241 -13.671  -5.030  0.00  0.00    +0.023 A 
ATOM     28  C   UNL     1       1.291 -14.744  -5.898  0.00  0.00    +0.002 A 
ATOM     29  C   UNL     1       2.508 -15.311  -6.230  0.00  0.00    +0.004 A 
ATOM     30  C   UNL     1       3.679 -14.807  -5.694  0.00  0.00    -0.046 A 
ATOM     31  C   UNL     1       3.636 -13.730  -4.829  0.00  0.00    -0.026 A 
ATOM     32  C   UNL     1       4.913 -13.177  -4.250  0.00  0.00    +0.046 C 
ATOM     33  C   UNL     1       5.002 -15.428  -6.058  0.00  0.00    +0.044 C 
ENDBRANCH  24  26
ENDBRANCH   7  22
BRANCH   1  34
ATOM     34  S   UNL     1       0.912  -3.984  -1.293  0.00  0.00    -0.084 S 
BRANCH  34  35
ATOM     35  C   UNL     1       0.350  -3.885   0.429  0.00  0.00    +0.077 C 
BRANCH  35  36
ATOM     36  C   UNL     1       0.165  -2.418   0.822  0.00  0.00    +0.011 C 
BRANCH  36  38
ATOM     37  C   UNL     1      -0.494  -0.868   2.666  0.00  0.00    +0.004 C 
ATOM     38  C   UNL     1      -0.309  -2.335   2.274  0.00  0.00    -0.003 C 
ENDBRANCH  36  38
ENDBRANCH  35  36
ENDBRANCH  34  35
ENDBRANCH   1  34
TORSDOF 9
