REMARK  Name = ZINC35379149
REMARK  7 active torsions:
REMARK  status: ('A' for Active; 'I' for Inactive)
REMARK    1  A    between atoms: C_1  and  C_2
REMARK    2  A    between atoms: C_7  and  S_8
REMARK    3  A    between atoms: S_8  and  N_11
REMARK    4  A    between atoms: C_15  and  C_18
REMARK    5  A    between atoms: C_23  and  C_26
REMARK    6  A    between atoms: C_26  and  C_27
REMARK    7  A    between atoms: C_34  and  C_39
REMARK                            x       y       z     vdW  Elec       q    Type
REMARK                         _______ _______ _______ _____ _____    ______ ____
ROOT
ATOM      1  N   UNL     1       1.442   1.024   2.791  0.00  0.00    -0.176 NA
ATOM      2  C   UNL     1       2.632   0.414   3.398  0.00  0.00    +0.109 C 
ATOM      3  C   UNL     1       3.164   1.350   4.489  0.00  0.00    +0.018 C 
ATOM      4  C   UNL     1       3.404   2.738   3.891  0.00  0.00    +0.015 C 
ATOM      5  C   UNL     1       2.083   3.306   3.369  0.00  0.00    +0.091 C 
ATOM      6  C   UNL     1       1.541   2.391   2.261  0.00  0.00    +0.122 C 
ENDROOT
BRANCH   5   7
ATOM      7  C   UNL     1       2.315   4.687   2.811  0.00  0.00    +0.220 C 
ATOM      8  O   UNL     1       2.686   4.823   1.664  0.00  0.00    -0.275 OA
ATOM      9  N   UNL     1       2.109   5.770   3.586  0.00  0.00    -0.301 N 
ATOM     10  C   UNL     1       1.780   5.620   5.010  0.00  0.00    +0.108 C 
ATOM     11  C   UNL     1       2.768   6.452   5.834  0.00  0.00    +0.023 C 
ATOM     12  C   UNL     1       2.753   7.898   5.334  0.00  0.00    -0.004 C 
ATOM     13  C   UNL     1       3.193   7.938   3.869  0.00  0.00    +0.023 C 
ATOM     14  C   UNL     1       2.216   7.123   3.024  0.00  0.00    +0.108 C 
BRANCH  12  15
ATOM     15  C   UNL     1       3.713   8.739   6.178  0.00  0.00    +0.038 C 
BRANCH  15  16
ATOM     16  C   UNL     1       3.608  10.185   5.767  0.00  0.00    -0.047 A 
ATOM     17  C   UNL     1       4.418  10.679   4.762  0.00  0.00    +0.003 A 
ATOM     18  C   UNL     1       4.321  12.005   4.385  0.00  0.00    +0.000 A 
ATOM     19  C   UNL     1       3.414  12.838   5.014  0.00  0.00    +0.000 A 
ATOM     20  C   UNL     1       2.604  12.344   6.019  0.00  0.00    +0.000 A 
ATOM     21  C   UNL     1       2.697  11.017   6.392  0.00  0.00    +0.003 A 
ENDBRANCH  15  16
ENDBRANCH  12  15
ENDBRANCH   5   7
BRANCH   1  22
ATOM     22  S   UNL     1       0.017   0.184   2.699  0.00  0.00    +0.061 S 
ATOM     23  O   UNL     1      -1.019   1.152   2.603  0.00  0.00    -0.153 OA
ATOM     24  O   UNL     1       0.055  -0.793   3.730  0.00  0.00    -0.153 OA
BRANCH  22  31
ATOM     25  C   UNL     1       0.004   1.509  -0.015  0.00  0.00    +0.046 C 
ATOM     26  C   UNL     1       0.021   0.002  -0.023  0.00  0.00    -0.022 A 
ATOM     27  C   UNL     1       0.036  -0.681  -1.226  0.00  0.00    +0.032 A 
ATOM     28  C   UNL     1       0.051  -2.066  -1.232  0.00  0.00    +0.076 A 
ATOM     29  C   UNL     1       0.052  -2.767  -0.027  0.00  0.00    +0.145 A 
ATOM     30  C   UNL     1       0.038  -2.078   1.172  0.00  0.00    +0.076 A 
ATOM     31  C   UNL     1       0.028  -0.694   1.171  0.00  0.00    +0.112 A 
ATOM     32  O   UNL     1       0.065  -4.127  -0.045  0.00  0.00    -0.478 OA
ATOM     33  C   UNL     1      -0.616  -4.762  -1.131  0.00  0.00    +0.256 C 
ATOM     34  C   UNL     1      -0.234  -4.094  -2.428  0.00  0.00    +0.258 C 
ATOM     35  O   UNL     1      -0.197  -4.737  -3.456  0.00  0.00    -0.271 OA
ATOM     36  N   UNL     1       0.067  -2.777  -2.440  0.00  0.00    -0.280 N 
ATOM     37  C   UNL     1      -0.222  -6.239  -1.185  0.00  0.00    +0.062 C 
ATOM     38  H   UNL     1       0.290  -2.331  -3.272  0.00  0.00    +0.155 HD
ENDBRANCH  22  31
ENDBRANCH   1  22
TORSDOF 5
