REMARK  Name = ZINC64236918
REMARK  8 active torsions:
REMARK  status: ('A' for Active; 'I' for Inactive)
REMARK    1  A    between atoms: C_1  and  C_2
REMARK    2  A    between atoms: C_5  and  C_8
REMARK    3  A    between atoms: C_8  and  C_9
REMARK    4  A    between atoms: C_8  and  N_24
REMARK    5  A    between atoms: C_9  and  N_10
REMARK    6  A    between atoms: N_13  and  C_14
REMARK    7  A    between atoms: C_14  and  C_15
REMARK    8  A    between atoms: C_20  and  N_21
REMARK                            x       y       z     vdW  Elec       q    Type
REMARK                         _______ _______ _______ _____ _____    ______ ____
ROOT
ATOM      1  N   UNL     1      -2.205  -4.393  -0.961  0.00  0.00    -0.301 N 
ATOM      2  C   UNL     1      -3.511  -4.721  -0.992  0.00  0.00    +0.300 C 
ATOM      3  O   UNL     1      -3.978  -5.437  -0.127  0.00  0.00    -0.253 OA
ATOM      4  N   UNL     1      -4.301  -4.256  -1.980  0.00  0.00    -0.295 N 
ATOM      5  H   UNL     1      -1.832  -3.821  -1.651  0.00  0.00    +0.150 HD
ATOM      6  H   UNL     1      -3.928  -3.685  -2.670  0.00  0.00    +0.151 HD
ENDROOT
BRANCH   1   7
ATOM      7  C   UNL     1      -1.347  -4.898   0.113  0.00  0.00    +0.095 C 
BRANCH   7   8
ATOM      8  C   UNL     1       0.045  -4.274  -0.009  0.00  0.00    -0.020 C 
BRANCH   8  13
ATOM      9  C   UNL     1      -0.311   1.419   0.913  0.00  0.00    +0.044 C 
ATOM     10  C   UNL     1      -0.218  -0.066   0.672  0.00  0.00    -0.050 A 
ATOM     11  C   UNL     1      -0.149  -0.554  -0.619  0.00  0.00    +0.003 A 
ATOM     12  C   UNL     1      -0.064  -1.916  -0.840  0.00  0.00    +0.002 A 
ATOM     13  C   UNL     1      -0.047  -2.790   0.231  0.00  0.00    -0.059 A 
ATOM     14  C   UNL     1      -0.115  -2.301   1.523  0.00  0.00    +0.002 A 
ATOM     15  C   UNL     1      -0.196  -0.939   1.743  0.00  0.00    +0.003 A 
ENDBRANCH   8  13
BRANCH   8  16
ATOM     16  N   UNL     1       0.941  -4.877   0.987  0.00  0.00    +0.385 N 
ATOM     17  C   UNL     1       1.104  -6.329   0.717  0.00  0.00    -0.078 C 
ATOM     18  C   UNL     1       2.435  -6.675   1.431  0.00  0.00    -0.020 C 
ATOM     19  C   UNL     1       3.300  -5.419   1.176  0.00  0.00    -0.020 C 
ATOM     20  C   UNL     1       2.295  -4.292   0.875  0.00  0.00    -0.078 C 
ATOM     21  H   UNL     1       0.575  -4.734   1.916  0.00  0.00    -0.081 HD
ENDBRANCH   8  16
ENDBRANCH   7   8
ENDBRANCH   1   7
BRANCH   4  22
ATOM     22  C   UNL     1      -5.721  -4.613  -2.013  0.00  0.00    +0.143 C 
BRANCH  22  23
ATOM     23  C   UNL     1      -6.373  -3.970  -3.209  0.00  0.00    -0.000 A 
ATOM     24  C   UNL     1      -7.104  -2.806  -3.056  0.00  0.00    +0.007 A 
ATOM     25  C   UNL     1      -7.702  -2.216  -4.153  0.00  0.00    +0.000 A 
ATOM     26  C   UNL     1      -7.570  -2.789  -5.404  0.00  0.00    +0.002 A 
ATOM     27  C   UNL     1      -6.839  -3.952  -5.558  0.00  0.00    +0.033 A 
ATOM     28  C   UNL     1      -6.237  -4.540  -4.461  0.00  0.00    +0.131 A 
BRANCH  28  29
ATOM     29  N   UNL     1      -5.449  -5.782  -4.626  0.00  0.00    +0.057 N 
ATOM     30  O   UNL     1      -5.330  -6.281  -5.721  0.00  0.00    -0.126 OA
ATOM     31  O   UNL     1      -4.926  -6.299  -3.667  0.00  0.00    -0.126 OA
ENDBRANCH  28  29
ENDBRANCH  22  23
ENDBRANCH   4  22
TORSDOF 7
