REMARK  Name = ZINC39450012
REMARK  2 active torsions:
REMARK  status: ('A' for Active; 'I' for Inactive)
REMARK    1  A    between atoms: C_1  and  S_2
REMARK    2  A    between atoms: S_2  and  C_3
REMARK                            x       y       z     vdW  Elec       q    Type
REMARK                         _______ _______ _______ _____ _____    ______ ____
ROOT
ATOM      1  C   UNL     1       0.902  -0.439   1.516  0.00  0.00    +0.136 C 
ATOM      2  C   UNL     1       0.176  -1.578   2.240  0.00  0.00    +0.114 C 
ATOM      3  C   UNL     1       0.289  -2.840   1.424  0.00  0.00    +0.185 C 
ATOM      4  O   UNL     1      -0.593  -3.673   1.481  0.00  0.00    -0.290 OA
ATOM      5  C   UNL     1       1.411  -3.063   0.593  0.00  0.00    +0.127 A 
ATOM      6  C   UNL     1       2.387  -2.091   0.481  0.00  0.00    +0.083 A 
ATOM      7  C   UNL     1       3.556  -2.326  -0.376  0.00  0.00    +0.099 A 
ATOM      8  C   UNL     1       3.636  -3.551  -1.074  0.00  0.00    +0.069 A 
ATOM      9  C   UNL     1       4.736  -3.797  -1.896  0.00  0.00    +0.037 A 
ATOM     10  C   UNL     1       5.710  -2.816  -1.989  0.00  0.00    +0.060 A 
ATOM     11  C   UNL     1       5.564  -1.635  -1.272  0.00  0.00    +0.131 A 
ATOM     12  N   UNL     1       4.518  -1.421  -0.503  0.00  0.00    -0.251 NA
ATOM     13 CL   UNL     1       7.104  -3.062  -2.994  0.00  0.00    -0.082 Cl
ATOM     14  C   UNL     1       2.554  -4.533  -0.912  0.00  0.00    +0.276 A 
ATOM     15  O   UNL     1       2.602  -5.594  -1.506  0.00  0.00    -0.266 OA
ATOM     16  N   UNL     1       1.511  -4.258  -0.107  0.00  0.00    -0.213 N 
ATOM     17 CL   UNL     1       0.267  -5.420   0.058  0.00  0.00    +0.022 Cl
ATOM     18  N   UNL     1       2.256  -0.900   1.172  0.00  0.00    -0.328 N 
ATOM     19  H   UNL     1       3.037  -0.382   1.424  0.00  0.00    +0.147 HD
ENDROOT
BRANCH   1  21
ATOM     20  C   UNL     1      -0.022   1.810   0.012  0.00  0.00    +0.086 C 
ATOM     21  S   UNL     1       0.002  -0.004   0.002  0.00  0.00    -0.142 S 
ENDBRANCH   1  21
TORSDOF 1
