REMARK  Name = ZINC05228735
REMARK  7 active torsions:
REMARK  status: ('A' for Active; 'I' for Inactive)
REMARK    1  A    between atoms: C_1  and  C_2
REMARK    2  A    between atoms: C_2  and  C_4
REMARK    3  A    between atoms: C_10  and  C_31
REMARK    4  A    between atoms: C_20  and  C_30
REMARK    5  A    between atoms: C_23  and  O_26
REMARK    6  A    between atoms: O_26  and  C_27
REMARK    7  A    between atoms: C_27  and  C_29
REMARK                            x       y       z     vdW  Elec       q    Type
REMARK                         _______ _______ _______ _____ _____    ______ ____
ROOT
ATOM      1  C   UNL     1      -0.000  -0.750  -1.307  0.00  0.00    +0.061 C 
ATOM      2  C   UNL     1      -1.446  -1.083  -1.725  0.00  0.00    +0.012 C 
ATOM      3  C   UNL     1      -1.519  -2.624  -1.867  0.00  0.00    +0.005 C 
ATOM      4  C   UNL     1      -0.055  -3.022  -2.114  0.00  0.00    +0.003 C 
ATOM      5  C   UNL     1       0.730  -2.114  -1.147  0.00  0.00    -0.016 C 
ATOM      6  C   UNL     1       0.464  -2.562   0.296  0.00  0.00    +0.034 C 
ATOM      7  C   UNL     1       0.594  -4.041   0.452  0.00  0.00    -0.026 C 
ATOM      8  C   UNL     1       0.480  -4.891  -0.518  0.00  0.00    -0.064 C 
ATOM      9  C   UNL     1       0.228  -4.483  -1.941  0.00  0.00    +0.019 C 
ATOM     10  C   UNL     1       1.359  -4.958  -2.850  0.00  0.00    +0.008 C 
ATOM     11  C   UNL     1       1.902  -6.312  -2.381  0.00  0.00    +0.005 C 
ATOM     12  C   UNL     1       0.815  -7.050  -1.615  0.00  0.00    +0.002 C 
ATOM     13  C   UNL     1       0.628  -6.372  -0.245  0.00  0.00    -0.008 C 
ATOM     14  C   UNL     1      -0.614  -6.963   0.416  0.00  0.00    +0.015 C 
ATOM     15  C   UNL     1      -0.350  -8.457   0.659  0.00  0.00    +0.045 C 
ATOM     16  C   UNL     1      -0.072  -9.169  -0.664  0.00  0.00    +0.177 C 
ATOM     17  C   UNL     1       1.118  -8.523  -1.385  0.00  0.00    +0.049 C 
ATOM     18  C   UNL     1       1.856  -6.621   0.633  0.00  0.00    +0.016 C 
ATOM     19  C   UNL     1       2.223  -2.031  -1.471  0.00  0.00    +0.012 C 
ENDROOT
BRANCH   1  21
ATOM     20  C   UNL     1       1.196   0.828   0.393  0.00  0.00    +0.086 C 
ATOM     21  C   UNL     1       0.002  -0.004   0.002  0.00  0.00    +0.134 C 
ATOM     22  O   UNL     1      -0.953  -0.073   0.738  0.00  0.00    -0.297 OA
ENDBRANCH   1  21
BRANCH  16  23
ATOM     23  O   UNL     1       0.227 -10.565  -0.402  0.00  0.00    -0.462 OA
BRANCH  23  24
ATOM     24  C   UNL     1      -0.809 -11.419  -0.393  0.00  0.00    +0.304 C 
ATOM     25  O   UNL     1      -1.929 -11.012  -0.596  0.00  0.00    -0.251 OA
ATOM     26  C   UNL     1      -0.576 -12.884  -0.128  0.00  0.00    +0.136 C 
ENDBRANCH  23  24
ENDBRANCH  16  23
TORSDOF 3
