REMARK  Name = ZINC39607678
REMARK  11 active torsions:
REMARK  status: ('A' for Active; 'I' for Inactive)
REMARK    1  A    between atoms: C_1  and  C_2
REMARK    2  A    between atoms: C_2  and  C_3
REMARK    3  A    between atoms: C_3  and  O_4
REMARK    4  A    between atoms: O_4  and  C_5
REMARK    5  A    between atoms: C_5  and  C_6
REMARK    6  A    between atoms: C_6  and  N_7
REMARK    7  A    between atoms: C_8  and  C_10
REMARK    8  A    between atoms: C_21  and  C_23
REMARK    9  A    between atoms: C_25  and  C_30
REMARK   10  A    between atoms: N_27  and  C_28
REMARK   11  A    between atoms: C_28  and  C_29
REMARK                            x       y       z     vdW  Elec       q    Type
REMARK                         _______ _______ _______ _____ _____    ______ ____
ROOT
ATOM      1  C   UNL     1       3.165  -6.358  -0.565  0.00  0.00    +0.100 C 
ATOM      2  C   UNL     1       4.668  -6.089  -0.331  0.00  0.00    +0.121 C 
ATOM      3  N   UNL     1       5.166  -7.311   0.344  0.00  0.00    -0.295 N 
ATOM      4  C   UNL     1       4.462  -8.423  -0.339  0.00  0.00    +0.115 C 
ATOM      5  C   UNL     1       3.034  -7.891  -0.573  0.00  0.00    -0.004 C 
ATOM      6  C   UNL     1       2.507  -8.369  -1.923  0.00  0.00    -0.010 C 
ATOM      7  C   UNL     1       2.330  -9.890  -1.887  0.00  0.00    -0.082 C 
ATOM      8  N   UNL     1       1.392 -10.250  -0.817  0.00  0.00    +0.379 N 
ATOM      9  C   UNL     1       1.950  -9.869   0.487  0.00  0.00    -0.082 C 
ATOM     10  C   UNL     1       2.110  -8.348   0.551  0.00  0.00    -0.010 C 
ATOM     11  C   UNL     1       6.059  -7.393   1.350  0.00  0.00    +0.266 C 
ATOM     12  O   UNL     1       6.436  -8.481   1.742  0.00  0.00    -0.268 OA
ATOM     13  H   UNL     1       0.518  -9.767  -0.961  0.00  0.00    -0.086 HD
ATOM     14  H   UNL     1       1.230 -11.246  -0.834  0.00  0.00    -0.086 HD
ENDROOT
BRANCH  11  15
ATOM     15  C   UNL     1       6.576  -6.167   1.976  0.00  0.00    +0.138 A 
ATOM     16  C   UNL     1       6.085  -5.540   3.110  0.00  0.00    +0.071 A 
ATOM     17  C   UNL     1       6.906  -4.425   3.301  0.00  0.00    +0.075 A 
ATOM     18  N   UNL     1       7.800  -4.417   2.346  0.00  0.00    -0.175 NA
ATOM     19  N   UNL     1       7.642  -5.419   1.559  0.00  0.00    -0.258 N 
ATOM     20  C   UNL     1       6.783  -3.413   4.410  0.00  0.00    +0.069 C 
ATOM     21 BR   UNL     1       4.617  -6.079   4.172  0.00  0.00    -0.046 Br
BRANCH  19  22
ATOM     22  C   UNL     1       8.475  -5.715   0.390  0.00  0.00    +0.141 C 
ATOM     23  C   UNL     1       7.973  -4.909  -0.810  0.00  0.00    +0.029 C 
ENDBRANCH  19  22
ENDBRANCH  11  15
BRANCH   1  25
ATOM     24  N   UNL     1       1.039  -5.498   0.362  0.00  0.00    -0.313 N 
ATOM     25  C   UNL     1       2.346  -5.768   0.553  0.00  0.00    +0.218 C 
ATOM     26  O   UNL     1       2.863  -5.535   1.626  0.00  0.00    -0.275 OA
ATOM     27  H   UNL     1       0.643  -5.616  -0.515  0.00  0.00    +0.149 HD
BRANCH  24  28
ATOM     28  C   UNL     1       0.217  -5.027   1.480  0.00  0.00    +0.132 C 
BRANCH  28  29
ATOM     29  C   UNL     1      -1.216  -4.798   0.998  0.00  0.00    +0.178 C 
BRANCH  29  30
ATOM     30  O   UNL     1      -1.792  -6.045   0.604  0.00  0.00    -0.378 OA
BRANCH  30  31
ATOM     31  C   UNL     1      -3.138  -5.942   0.134  0.00  0.00    +0.159 C 
BRANCH  31  33
ATOM     32  C   UNL     1      -5.090  -7.219  -0.760  0.00  0.00    +0.006 C 
ATOM     33  C   UNL     1      -3.649  -7.330  -0.257  0.00  0.00    +0.025 C 
ENDBRANCH  31  33
ENDBRANCH  30  31
ENDBRANCH  29  30
ENDBRANCH  28  29
ENDBRANCH  24  28
ENDBRANCH   1  25
TORSDOF 8
