REMARK  Name = ZINC09500855
REMARK  8 active torsions:
REMARK  status: ('A' for Active; 'I' for Inactive)
REMARK    1  A    between atoms: C_1  and  C_2
REMARK    2  A    between atoms: C_2  and  N_3
REMARK    3  A    between atoms: C_7  and  C_9
REMARK    4  A    between atoms: C_9  and  S_10
REMARK    5  A    between atoms: S_10  and  C_11
REMARK    6  A    between atoms: N_24  and  C_25
REMARK    7  A    between atoms: C_28  and  C_32
REMARK    8  A    between atoms: C_30  and  C_31
REMARK                            x       y       z     vdW  Elec       q    Type
REMARK                         _______ _______ _______ _____ _____    ______ ____
ROOT
ATOM      1  C   UNL     1      -0.447   5.316   0.036  0.00  0.00    +0.198 A 
ATOM      2  N   UNL     1      -1.758   5.325   0.049  0.00  0.00    -0.120 NA
ATOM      3  N   UNL     1      -2.209   4.122   0.046  0.00  0.00    -0.109 NA
ATOM      4  C   UNL     1      -1.215   3.267   0.031  0.00  0.00    +0.245 A 
ATOM      5  N   UNL     1      -0.058   4.003   0.024  0.00  0.00    -0.255 N 
ATOM      6  C   UNL     1       1.183   3.381   0.009  0.00  0.00    +0.064 A 
ATOM      7  C   UNL     1       2.358   4.118   0.001  0.00  0.00    +0.027 A 
ATOM      8  C   UNL     1       3.577   3.469  -0.013  0.00  0.00    +0.002 A 
ATOM      9  C   UNL     1       3.639   2.085  -0.021  0.00  0.00    +0.001 A 
ATOM     10  C   UNL     1       2.482   1.335  -0.014  0.00  0.00    +0.015 A 
ATOM     11  C   UNL     1       1.245   1.978   0.001  0.00  0.00    +0.064 A 
ATOM     12  C   UNL     1      -0.014   1.212   0.009  0.00  0.00    +0.268 A 
ATOM     13  O   UNL     1       0.002  -0.004   0.002  0.00  0.00    -0.267 OA
ATOM     14  N   UNL     1      -1.186   1.881   0.018  0.00  0.00    -0.245 N 
ENDROOT
BRANCH  14  15
ATOM     15  C   UNL     1      -2.389   1.166   0.020  0.00  0.00    +0.056 A 
ATOM     16  C   UNL     1      -2.979   0.799   1.222  0.00  0.00    +0.027 A 
ATOM     17  C   UNL     1      -4.169   0.099   1.221  0.00  0.00    +0.005 A 
ATOM     18  C   UNL     1      -4.768  -0.247   0.023  0.00  0.00    -0.050 A 
ATOM     19  C   UNL     1      -4.180   0.112  -1.176  0.00  0.00    +0.008 A 
ATOM     20  C   UNL     1      -2.993   0.817  -1.181  0.00  0.00    -0.026 A 
ATOM     21  C   UNL     1      -2.353   1.208  -2.489  0.00  0.00    +0.046 C 
ATOM     22  C   UNL     1      -6.064  -1.017   0.025  0.00  0.00    +0.044 C 
ENDBRANCH  14  15
BRANCH   1  23
ATOM     23  S   UNL     1       0.612   6.723   0.034  0.00  0.00    -0.076 S 
BRANCH  23  24
ATOM     24  C   UNL     1      -0.530   8.132   0.053  0.00  0.00    +0.173 C 
BRANCH  24  29
ATOM     25  N   UNL     1      -0.325  12.935   0.080  0.00  0.00    -0.299 N 
ATOM     26  C   UNL     1       0.318  11.751   0.067  0.00  0.00    +0.306 C 
ATOM     27  O   UNL     1       1.533  11.719   0.055  0.00  0.00    -0.252 OA
ATOM     28  N   UNL     1      -0.386  10.602   0.067  0.00  0.00    -0.240 N 
ATOM     29  C   UNL     1       0.257   9.418   0.053  0.00  0.00    +0.231 C 
ATOM     30  O   UNL     1       1.469   9.386   0.042  0.00  0.00    -0.274 OA
ATOM     31  H   UNL     1      -1.295  12.961   0.089  0.00  0.00    +0.150 HD
ATOM     32  H   UNL     1      -1.356  10.627   0.076  0.00  0.00    +0.159 HD
BRANCH  25  34
ATOM     33  C   UNL     1      -0.523  15.373   0.097  0.00  0.00    +0.024 C 
ATOM     34  C   UNL     1       0.440  14.185   0.080  0.00  0.00    +0.102 C 
ENDBRANCH  25  34
ENDBRANCH  24  29
ENDBRANCH  23  24
ENDBRANCH   1  23
TORSDOF 5
