REMARK  Name = ZINC44904248
REMARK  12 active torsions:
REMARK  status: ('A' for Active; 'I' for Inactive)
REMARK    1  A    between atoms: C_1  and  C_2
REMARK    2  A    between atoms: C_2  and  C_3
REMARK    3  A    between atoms: C_2  and  C_4
REMARK    4  A    between atoms: C_4  and  C_5
REMARK    5  A    between atoms: C_5  and  C_7
REMARK    6  A    between atoms: C_5  and  N_13
REMARK    7  A    between atoms: C_14  and  C_16
REMARK    8  A    between atoms: C_16  and  N_17
REMARK    9  A    between atoms: N_17  and  C_18
REMARK   10  A    between atoms: N_17  and  S_34
REMARK   11  A    between atoms: C_21  and  C_24
REMARK   12  A    between atoms: S_34  and  C_37
REMARK                            x       y       z     vdW  Elec       q    Type
REMARK                         _______ _______ _______ _____ _____    ______ ____
ROOT
ATOM      1  N   UNL     1       2.474  -2.942  -2.892  0.00  0.00    -0.199 N 
ENDROOT
BRANCH   1   2
ATOM      2  C   UNL     1       3.101  -4.180  -2.733  0.00  0.00    +0.051 A 
ATOM      3  C   UNL     1       2.580  -5.309  -3.353  0.00  0.00    +0.025 A 
ATOM      4  C   UNL     1       3.203  -6.531  -3.194  0.00  0.00    +0.006 A 
ATOM      5  C   UNL     1       4.345  -6.632  -2.420  0.00  0.00    -0.041 A 
ATOM      6  C   UNL     1       4.866  -5.510  -1.802  0.00  0.00    +0.006 A 
ATOM      7  C   UNL     1       4.251  -4.283  -1.961  0.00  0.00    +0.025 A 
BRANCH   5   8
ATOM      8  C   UNL     1       5.021  -7.967  -2.248  0.00  0.00    -0.003 C 
ATOM      9  C   UNL     1       5.454  -8.499  -3.616  0.00  0.00    +0.015 C 
ATOM     10  C   UNL     1       6.141  -9.855  -3.442  0.00  0.00    -0.010 C 
ATOM     11  C   UNL     1       7.371  -9.692  -2.546  0.00  0.00    +0.007 C 
ATOM     12  C   UNL     1       6.939  -9.160  -1.178  0.00  0.00    -0.010 C 
ATOM     13  C   UNL     1       6.251  -7.804  -1.353  0.00  0.00    +0.015 C 
ATOM     14  C   UNL     1       5.964 -10.147  -0.532  0.00  0.00    +0.007 C 
ATOM     15  C   UNL     1       4.734 -10.309  -1.427  0.00  0.00    -0.010 C 
ATOM     16  C   UNL     1       5.166 -10.842  -2.795  0.00  0.00    +0.007 C 
ATOM     17  C   UNL     1       4.047  -8.954  -1.602  0.00  0.00    +0.015 C 
ENDBRANCH   5   8
ENDBRANCH   1   2
BRANCH   1  18
ATOM     18  S   UNL     1       3.311  -1.665  -3.532  0.00  0.00    +0.043 S 
ATOM     19  O   UNL     1       4.394  -2.258  -4.237  0.00  0.00    -0.155 OA
ATOM     20  O   UNL     1       2.333  -0.897  -4.220  0.00  0.00    -0.155 OA
ATOM     21  C   UNL     1       3.930  -0.746  -2.095  0.00  0.00    +0.218 C 
ENDBRANCH   1  18
BRANCH   1  22
ATOM     22  C   UNL     1       1.074  -2.774  -2.492  0.00  0.00    +0.226 C 
BRANCH  22  24
ATOM     23  N   UNL     1      -0.187  -2.260  -0.428  0.00  0.00    -0.307 N 
ATOM     24  C   UNL     1       1.007  -2.457  -1.020  0.00  0.00    +0.233 C 
ATOM     25  O   UNL     1       2.027  -2.379  -0.370  0.00  0.00    -0.274 OA
ATOM     26  H   UNL     1      -1.003  -2.322  -0.948  0.00  0.00    +0.149 HD
BRANCH  23  27
ATOM     27  C   UNL     1      -0.253  -1.952   1.003  0.00  0.00    +0.103 C 
BRANCH  27  28
ATOM     28  C   UNL     1      -1.594  -2.371   1.546  0.00  0.00    -0.027 A 
ATOM     29  C   UNL     1      -2.738  -2.167   0.797  0.00  0.00    +0.005 A 
ATOM     30  C   UNL     1      -3.969  -2.552   1.296  0.00  0.00    +0.000 A 
ATOM     31  C   UNL     1      -4.055  -3.141   2.543  0.00  0.00    +0.000 A 
ATOM     32  C   UNL     1      -2.912  -3.346   3.292  0.00  0.00    +0.000 A 
ATOM     33  C   UNL     1      -1.681  -2.965   2.792  0.00  0.00    +0.005 A 
ENDBRANCH  27  28
BRANCH  27  34
ATOM     34  C   UNL     1      -0.066  -0.447   1.210  0.00  0.00    +0.030 C 
BRANCH  34  36
ATOM     35  C   UNL     1       1.488   1.478   0.862  0.00  0.00    +0.007 C 
ATOM     36  C   UNL     1       1.343  -0.043   0.773  0.00  0.00    -0.015 C 
ATOM     37  C   UNL     1       2.372  -0.708   1.690  0.00  0.00    +0.007 C 
ENDBRANCH  34  36
ENDBRANCH  27  34
ENDBRANCH  23  27
ENDBRANCH  22  24
ENDBRANCH   1  22
TORSDOF 9
