REMARK  Name = ZINC41583788
REMARK  7 active torsions:
REMARK  status: ('A' for Active; 'I' for Inactive)
REMARK    1  A    between atoms: C_1  and  C_2
REMARK    2  A    between atoms: C_5  and  C_32
REMARK    3  A    between atoms: N_8  and  C_10
REMARK    4  A    between atoms: C_10  and  C_11
REMARK    5  A    between atoms: C_12  and  O_31
REMARK    6  A    between atoms: C_19  and  C_20
REMARK    7  A    between atoms: C_23  and  N_26
REMARK                            x       y       z     vdW  Elec       q    Type
REMARK                         _______ _______ _______ _____ _____    ______ ____
ROOT
ATOM      1  C   UNL     1       2.155   0.252   3.578  0.00  0.00    +0.020 A 
ATOM      2  C   UNL     1       3.263  -0.473   3.168  0.00  0.00    +0.122 A 
ATOM      3  C   UNL     1       4.547  -0.045   3.491  0.00  0.00    +0.046 A 
ATOM      4  C   UNL     1       4.728   1.097   4.218  0.00  0.00    +0.019 A 
ATOM      5  C   UNL     1       3.622   1.838   4.636  0.00  0.00    +0.068 A 
ATOM      6  C   UNL     1       2.321   1.420   4.312  0.00  0.00    +0.144 A 
ATOM      7  O   UNL     1       1.422   2.293   4.815  0.00  0.00    -0.451 OA
ATOM      8  C   UNL     1       2.024   3.311   5.475  0.00  0.00    +0.176 C 
ATOM      9  C   UNL     1       1.401   4.346   6.091  0.00  0.00    +0.058 C 
ATOM     10  C   UNL     1       3.477   3.082   5.413  0.00  0.00    +0.231 C 
ATOM     11  O   UNL     1       4.362   3.774   5.886  0.00  0.00    -0.283 OA
ENDROOT
BRANCH   9  12
ATOM     12  C   UNL     1       2.190   5.468   6.620  0.00  0.00    -0.021 A 
ATOM     13  C   UNL     1       3.281   5.964   5.897  0.00  0.00    +0.010 A 
ATOM     14  C   UNL     1       4.015   7.017   6.400  0.00  0.00    +0.033 A 
ATOM     15  C   UNL     1       3.675   7.583   7.617  0.00  0.00    +0.126 A 
ATOM     16  C   UNL     1       2.598   7.099   8.338  0.00  0.00    +0.033 A 
ATOM     17  C   UNL     1       1.849   6.051   7.846  0.00  0.00    +0.010 A 
BRANCH  15  18
ATOM     18  N   UNL     1       4.470   8.713   8.150  0.00  0.00    +0.056 N 
ATOM     19  O   UNL     1       5.412   9.138   7.523  0.00  0.00    -0.126 OA
ATOM     20  O   UNL     1       4.176   9.210   9.212  0.00  0.00    -0.126 OA
ENDBRANCH  15  18
ENDBRANCH   9  12
BRANCH   2  21
ATOM     21  O   UNL     1       3.093  -1.610   2.446  0.00  0.00    -0.506 OA
ATOM     22  H   UNL     1       3.075  -1.469   1.490  0.00  0.00    +0.292 HD
ENDBRANCH   2  21
BRANCH   1  23
ATOM     23  C   UNL     1       0.770  -0.223   3.221  0.00  0.00    -0.036 C 
BRANCH  23  29
ATOM     24  C   UNL     1       1.069   2.016  -0.344  0.00  0.00    +0.005 C 
ATOM     25  C   UNL     1       0.892   0.500  -0.460  0.00  0.00    -0.031 C 
ATOM     26  C   UNL     1      -0.565   0.180  -0.806  0.00  0.00    +0.003 C 
ATOM     27  C   UNL     1      -1.466   0.654   0.337  0.00  0.00    -0.031 C 
ATOM     28  C   UNL     1      -1.021  -0.011   1.641  0.00  0.00    -0.075 C 
ATOM     29  N   UNL     1       0.371   0.355   1.930  0.00  0.00    +0.383 N 
ATOM     30  C   UNL     1       1.252  -0.159   0.873  0.00  0.00    -0.075 C 
ATOM     31  C   UNL     1      -2.917   0.271   0.037  0.00  0.00    +0.005 C 
ATOM     32  H   UNL     1       0.452   1.359   1.974  0.00  0.00    -0.081 HD
ENDBRANCH  23  29
ENDBRANCH   1  23
TORSDOF 5
