REMARK  Name = ZINC25450690
REMARK  9 active torsions:
REMARK  status: ('A' for Active; 'I' for Inactive)
REMARK    1  A    between atoms: C_1  and  C_2
REMARK    2  A    between atoms: C_2  and  C_4
REMARK    3  A    between atoms: C_2  and  N_12
REMARK    4  A    between atoms: C_13  and  C_15
REMARK    5  A    between atoms: C_15  and  C_17
REMARK    6  A    between atoms: C_15  and  N_20
REMARK    7  A    between atoms: C_17  and  C_18
REMARK    8  A    between atoms: C_17  and  C_19
REMARK    9  A    between atoms: C_21  and  C_23
REMARK                            x       y       z     vdW  Elec       q    Type
REMARK                         _______ _______ _______ _____ _____    ______ ____
ROOT
ATOM      1  N   UNL     1       1.002  -0.158   0.994  0.00  0.00    -0.307 N 
ATOM      2  C   UNL     1       2.256  -0.642   1.091  0.00  0.00    +0.234 C 
ATOM      3  O   UNL     1       2.923  -0.802   0.091  0.00  0.00    -0.274 OA
ATOM      4  H   UNL     1       0.442  -0.100   1.784  0.00  0.00    +0.149 HD
ENDROOT
BRANCH   1   6
ATOM      5  C   UNL     1       0.905   1.728  -0.560  0.00  0.00    +0.033 C 
ATOM      6  C   UNL     1       0.484   0.279  -0.304  0.00  0.00    +0.102 C 
BRANCH   6   7
ATOM      7  C   UNL     1      -1.020   0.187  -0.302  0.00  0.00    -0.009 A 
ATOM      8  C   UNL     1      -1.716   0.258   0.890  0.00  0.00    +0.008 A 
ATOM      9  C   UNL     1      -3.095   0.173   0.893  0.00  0.00    +0.020 A 
ATOM     10  C   UNL     1      -3.781   0.018  -0.299  0.00  0.00    +0.042 A 
ATOM     11  C   UNL     1      -3.086  -0.053  -1.492  0.00  0.00    +0.040 A 
ATOM     12  C   UNL     1      -1.706   0.037  -1.495  0.00  0.00    +0.047 A 
ATOM     13 CL   UNL     1      -0.833  -0.046  -2.993  0.00  0.00    -0.083 Cl
ATOM     14 CL   UNL     1      -5.514  -0.089  -0.295  0.00  0.00    -0.083 Cl
ENDBRANCH   6   7
ENDBRANCH   1   6
BRANCH   2  15
ATOM     15  C   UNL     1       2.828  -0.986   2.442  0.00  0.00    +0.162 C 
BRANCH  15  16
ATOM     16  N   UNL     1       4.287  -0.854   2.402  0.00  0.00    -0.299 N 
ATOM     17  C   UNL     1       4.973  -0.610   3.536  0.00  0.00    +0.251 C 
ATOM     18  O   UNL     1       4.381  -0.499   4.594  0.00  0.00    -0.270 OA
ATOM     19  H   UNL     1       4.759  -0.942   1.559  0.00  0.00    +0.150 HD
BRANCH  17  20
ATOM     20  C   UNL     1       6.433  -0.478   3.496  0.00  0.00    +0.074 A 
ATOM     21  C   UNL     1       7.317  -0.236   4.536  0.00  0.00    +0.021 A 
ATOM     22  C   UNL     1       8.644  -0.165   4.186  0.00  0.00    +0.008 A 
ATOM     23  C   UNL     1       8.993  -0.330   2.886  0.00  0.00    +0.046 A 
ATOM     24  S   UNL     1       7.533  -0.596   2.098  0.00  0.00    -0.092 S 
ENDBRANCH  17  20
ENDBRANCH  15  16
BRANCH  15  25
ATOM     25  C   UNL     1       2.456  -2.425   2.804  0.00  0.00    +0.012 C 
ATOM     26  C   UNL     1       0.939  -2.532   2.972  0.00  0.00    +0.009 C 
ATOM     27  C   UNL     1       2.912  -3.365   1.686  0.00  0.00    +0.009 C 
ENDBRANCH  15  25
ENDBRANCH   2  15
TORSDOF 6
