REMARK  Name = ZINC63708107
REMARK  7 active torsions:
REMARK  status: ('A' for Active; 'I' for Inactive)
REMARK    1  A    between atoms: C_1  and  C_2
REMARK    2  A    between atoms: C_4  and  N_8
REMARK    3  A    between atoms: C_9  and  C_11
REMARK    4  A    between atoms: C_11  and  S_12
REMARK    5  A    between atoms: S_12  and  C_13
REMARK    6  A    between atoms: C_25  and  C_27
REMARK    7  A    between atoms: C_30  and  N_33
REMARK                            x       y       z     vdW  Elec       q    Type
REMARK                         _______ _______ _______ _____ _____    ______ ____
ROOT
ATOM      1  C   UNL     1      -2.860  -7.353   3.444  0.00  0.00    +0.252 C 
ATOM      2  N   UNL     1      -1.641  -7.482   4.245  0.00  0.00    -0.356 N 
ATOM      3  C   UNL     1      -1.567  -6.933   5.424  0.00  0.00    +0.048 A 
ATOM      4  C   UNL     1      -0.354  -7.046   6.248  0.00  0.00    +0.026 A 
ATOM      5  C   UNL     1      -0.335  -6.450   7.472  0.00  0.00    +0.002 A 
ATOM      6  C   UNL     1      -1.432  -5.741   7.954  0.00  0.00    +0.001 A 
ATOM      7  C   UNL     1      -2.601  -5.598   7.225  0.00  0.00    +0.013 A 
ATOM      8  C   UNL     1      -2.715  -6.171   5.967  0.00  0.00    +0.036 A 
ATOM      9  C   UNL     1      -3.938  -6.036   5.177  0.00  0.00    +0.124 C 
ATOM     10  N   UNL     1      -4.010  -6.603   3.962  0.00  0.00    -0.176 N 
ATOM     11  N   UNL     1      -5.168  -6.355   3.454  0.00  0.00    -0.160 NA
ATOM     12  C   UNL     1      -5.879  -5.635   4.295  0.00  0.00    +0.149 C 
ATOM     13  N   UNL     1      -5.114  -5.418   5.405  0.00  0.00    -0.284 N 
ATOM     14  H   UNL     1      -5.366  -4.919   6.197  0.00  0.00    +0.155 HD
ATOM     15  H   UNL     1      -0.884  -7.979   3.897  0.00  0.00    +0.162 HD
ENDROOT
BRANCH  12  16
ATOM     16  C   UNL     1      -7.257  -5.149   4.077  0.00  0.00    +0.017 A 
ATOM     17  C   UNL     1      -7.894  -4.384   5.057  0.00  0.00    +0.013 A 
ATOM     18  C   UNL     1      -9.181  -3.933   4.847  0.00  0.00    +0.033 A 
ATOM     19  C   UNL     1      -9.840  -4.237   3.669  0.00  0.00    +0.126 A 
ATOM     20  C   UNL     1      -9.215  -4.994   2.694  0.00  0.00    +0.033 A 
ATOM     21  C   UNL     1      -7.927  -5.447   2.888  0.00  0.00    +0.013 A 
BRANCH  19  22
ATOM     22  N   UNL     1     -11.221  -3.749   3.451  0.00  0.00    +0.056 N 
ATOM     23  O   UNL     1     -11.819  -3.028   4.377  0.00  0.00    -0.126 OA
ATOM     24  O   UNL     1     -11.851  -4.037   2.331  0.00  0.00    -0.126 OA
ENDBRANCH  19  22
ENDBRANCH  12  16
BRANCH   1  25
ATOM     25  S   UNL     1      -2.389  -6.593   1.865  0.00  0.00    -0.106 S 
BRANCH  25  26
ATOM     26  C   UNL     1      -1.828  -4.931   2.329  0.00  0.00    +0.168 C 
BRANCH  26  28
ATOM     27  N   UNL     1      -0.946  -2.918   1.194  0.00  0.00    -0.288 N 
ATOM     28  C   UNL     1      -1.402  -4.182   1.093  0.00  0.00    +0.225 C 
ATOM     29  O   UNL     1      -1.470  -4.717   0.006  0.00  0.00    -0.275 OA
ATOM     30  H   UNL     1      -0.891  -2.491   2.063  0.00  0.00    +0.151 HD
BRANCH  27  34
ATOM     31  C   UNL     1      -0.018   1.503   0.010  0.00  0.00    +0.067 C 
ATOM     32  C   UNL     1       0.002  -0.004   0.002  0.00  0.00    +0.060 C 
ATOM     33  C   UNL     1      -1.086  -0.777   0.003  0.00  0.00    +0.045 C 
ATOM     34  C   UNL     1      -0.531  -2.190  -0.007  0.00  0.00    +0.239 C 
ATOM     35  N   UNL     1       0.926  -1.973  -0.013  0.00  0.00    -0.160 NA
ATOM     36  N   UNL     1       1.125  -0.756  -0.013  0.00  0.00    -0.157 NA
ENDBRANCH  27  34
ENDBRANCH  26  28
ENDBRANCH  25  26
ENDBRANCH   1  25
TORSDOF 6
