REMARK  Name = ZINC28556961
REMARK  11 active torsions:
REMARK  status: ('A' for Active; 'I' for Inactive)
REMARK    1  A    between atoms: C_1  and  C_2
REMARK    2  A    between atoms: N_7  and  C_29
REMARK    3  A    between atoms: N_13  and  S_16
REMARK    4  A    between atoms: S_16  and  C_19
REMARK    5  A    between atoms: C_22  and  O_27
REMARK    6  A    between atoms: C_23  and  O_25
REMARK    7  A    between atoms: O_25  and  C_26
REMARK    8  A    between atoms: O_27  and  C_28
REMARK    9  A    between atoms: C_29  and  C_30
REMARK   10  A    between atoms: C_29  and  C_31
REMARK   11  A    between atoms: N_32  and  C_34
REMARK                            x       y       z     vdW  Elec       q    Type
REMARK                         _______ _______ _______ _____ _____    ______ ____
ROOT
ATOM      1  C   UNL     1      -5.088   2.969   1.750  0.00  0.00    +0.070 C 
ATOM      2  C   UNL     1      -3.705   3.366   2.199  0.00  0.00    +0.086 A 
ATOM      3  C   UNL     1      -2.577   2.524   2.220  0.00  0.00    +0.120 A 
ATOM      4  C   UNL     1      -1.506   3.287   2.702  0.00  0.00    +0.152 A 
ATOM      5  C   UNL     1      -0.240   2.676   2.831  0.00  0.00    +0.281 A 
ATOM      6  O   UNL     1       0.716   3.305   3.251  0.00  0.00    -0.265 OA
ATOM      7  N   UNL     1      -0.110   1.379   2.473  0.00  0.00    -0.277 N 
ATOM      8  C   UNL     1      -1.186   0.679   2.008  0.00  0.00    +0.202 A 
ATOM      9  N   UNL     1      -2.371   1.227   1.886  0.00  0.00    -0.212 NA
ATOM     10  N   UNL     1      -1.022  -0.639   1.658  0.00  0.00    -0.298 N 
ATOM     11  C   UNL     1      -1.307  -0.844   0.231  0.00  0.00    +0.125 C 
ATOM     12  C   UNL     1      -0.940  -2.279  -0.159  0.00  0.00    +0.128 C 
ATOM     13  N   UNL     1      -1.633  -3.203   0.753  0.00  0.00    -0.174 NA
ATOM     14  C   UNL     1      -1.505  -2.977   2.201  0.00  0.00    +0.128 C 
ATOM     15  C   UNL     1      -1.850  -1.514   2.498  0.00  0.00    +0.125 C 
ATOM     16  N   UNL     1      -1.993   4.541   2.956  0.00  0.00    -0.260 N 
ATOM     17  N   UNL     1      -3.356   4.547   2.631  0.00  0.00    -0.174 NA
ATOM     18  C   UNL     1      -1.225   5.675   3.475  0.00  0.00    +0.173 C 
ENDROOT
BRANCH  13  19
ATOM     19  S   UNL     1      -2.532  -4.463   0.165  0.00  0.00    +0.061 S 
ATOM     20  O   UNL     1      -2.028  -4.751  -1.133  0.00  0.00    -0.153 OA
ATOM     21  O   UNL     1      -2.585  -5.440   1.195  0.00  0.00    -0.153 OA
BRANCH  19  22
ATOM     22  C   UNL     1      -4.177  -3.872  -0.054  0.00  0.00    +0.109 A 
ATOM     23  C   UNL     1      -5.091  -3.977   0.978  0.00  0.00    +0.032 A 
ATOM     24  C   UNL     1      -6.381  -3.509   0.813  0.00  0.00    +0.051 A 
ATOM     25  C   UNL     1      -6.765  -2.944  -0.392  0.00  0.00    +0.162 A 
ATOM     26  C   UNL     1      -5.847  -2.843  -1.433  0.00  0.00    +0.163 A 
ATOM     27  C   UNL     1      -4.553  -3.309  -1.260  0.00  0.00    +0.078 A 
BRANCH  26  28
ATOM     28  O   UNL     1      -6.218  -2.289  -2.618  0.00  0.00    -0.491 OA
ATOM     29  C   UNL     1      -5.223  -2.218  -3.642  0.00  0.00    +0.277 C 
ENDBRANCH  26  28
BRANCH  25  30
ATOM     30  O   UNL     1      -8.035  -2.488  -0.558  0.00  0.00    -0.491 OA
ATOM     31  C   UNL     1      -8.923  -2.624   0.553  0.00  0.00    +0.277 C 
ENDBRANCH  25  30
ENDBRANCH  19  22
ENDBRANCH  13  19
BRANCH   7  32
ATOM     32  C   UNL     1       1.192   0.719   2.589  0.00  0.00    +0.087 C 
ATOM     33  C   UNL     1       1.651   0.750   4.048  0.00  0.00    +0.031 C 
ATOM     34  C   UNL     1       2.215   1.450   1.717  0.00  0.00    +0.031 C 
ENDBRANCH   7  32
TORSDOF 5
