REMARK  Name = ZINC63513948
REMARK  10 active torsions:
REMARK  status: ('A' for Active; 'I' for Inactive)
REMARK    1  A    between atoms: C_1  and  C_2
REMARK    2  A    between atoms: C_6  and  C_38
REMARK    3  A    between atoms: C_7  and  N_8
REMARK    4  A    between atoms: C_9  and  C_14
REMARK    5  A    between atoms: C_14  and  C_16
REMARK    6  A    between atoms: C_14  and  N_24
REMARK    7  A    between atoms: N_24  and  C_25
REMARK    8  A    between atoms: C_25  and  C_26
REMARK    9  A    between atoms: C_26  and  C_27
REMARK   10  A    between atoms: C_35  and  C_37
REMARK                            x       y       z     vdW  Elec       q    Type
REMARK                         _______ _______ _______ _____ _____    ______ ____
ROOT
ATOM      1  C   UNL     1       2.045   1.683   2.001  0.00  0.00    +0.127 C 
ENDROOT
BRANCH   1   2
ATOM      2  C   UNL     1       3.342   2.209   2.558  0.00  0.00    -0.009 A 
ATOM      3  C   UNL     1       4.543   1.657   2.154  0.00  0.00    +0.008 A 
ATOM      4  C   UNL     1       5.733   2.140   2.665  0.00  0.00    +0.020 A 
ATOM      5  C   UNL     1       5.722   3.177   3.581  0.00  0.00    +0.042 A 
ATOM      6  C   UNL     1       4.521   3.730   3.986  0.00  0.00    +0.040 A 
ATOM      7  C   UNL     1       3.330   3.250   3.470  0.00  0.00    +0.047 A 
ATOM      8 CL   UNL     1       1.822   3.947   3.973  0.00  0.00    -0.083 Cl
ATOM      9 CL   UNL     1       7.217   3.783   4.223  0.00  0.00    -0.083 Cl
ENDBRANCH   1   2
BRANCH   1  11
ATOM     10  N   UNL     1       0.186   0.115   2.451  0.00  0.00    -0.181 N 
ATOM     11  C   UNL     1       1.506   0.581   2.916  0.00  0.00    +0.222 C 
ATOM     12  N   UNL     1       1.213   1.112   4.261  0.00  0.00    -0.226 N 
ATOM     13  N   UNL     1      -0.161   0.924   4.456  0.00  0.00    -0.063 NA
ATOM     14  N   UNL     1      -0.708   0.398   3.490  0.00  0.00    -0.056 NA
ATOM     15  H   UNL     1       1.842   1.509   4.883  0.00  0.00    +0.172 HD
BRANCH  10  22
ATOM     16  C   UNL     1      -1.407   1.577   0.601  0.00  0.00    +0.046 C 
ATOM     17  C   UNL     1      -0.886   0.197   0.291  0.00  0.00    -0.027 A 
ATOM     18  C   UNL     1      -1.174  -0.393  -0.924  0.00  0.00    +0.005 A 
ATOM     19  C   UNL     1      -0.697  -1.659  -1.210  0.00  0.00    +0.001 A 
ATOM     20  C   UNL     1       0.069  -2.339  -0.281  0.00  0.00    +0.005 A 
ATOM     21  C   UNL     1       0.361  -1.755   0.936  0.00  0.00    -0.027 A 
ATOM     22  C   UNL     1      -0.112  -0.481   1.224  0.00  0.00    +0.061 A 
ATOM     23  C   UNL     1       1.195  -2.497   1.948  0.00  0.00    +0.046 C 
ENDBRANCH  10  22
ENDBRANCH   1  11
BRANCH   1  24
ATOM     24  N   UNL     1       2.276   1.134   0.658  0.00  0.00    -0.306 NA
ATOM     25  H   UNL     1       3.097   0.547   0.644  0.00  0.00    +0.123 HD
BRANCH  24  26
ATOM     26  C   UNL     1       2.379   2.208  -0.339  0.00  0.00    +0.086 C 
BRANCH  26  27
ATOM     27  C   UNL     1       2.490   1.596  -1.737  0.00  0.00    +0.048 C 
BRANCH  27  28
ATOM     28  C   UNL     1       2.595   2.698  -2.760  0.00  0.00    -0.038 C 
ATOM     29  C   UNL     1       2.602   4.030  -2.523  0.00  0.00    -0.001 A 
ATOM     30  C   UNL     1       2.514   4.821  -1.290  0.00  0.00    +0.010 A 
ATOM     31  C   UNL     1       2.546   6.170  -1.373  0.00  0.00    +0.001 A 
ATOM     32  C   UNL     1       2.661   6.831  -2.604  0.00  0.00    +0.002 A 
ATOM     33  C   UNL     1       2.746   6.173  -3.779  0.00  0.00    +0.026 A 
ATOM     34  C   UNL     1       2.722   4.751  -3.811  0.00  0.00    +0.043 A 
ATOM     35  N   UNL     1       2.788   3.898  -4.804  0.00  0.00    -0.378 N 
ATOM     36  C   UNL     1       2.722   2.538  -4.259  0.00  0.00    +0.103 C 
ATOM     37  C   UNL     1       1.499   1.808  -4.817  0.00  0.00    +0.035 C 
ATOM     38  H   UNL     1       2.870   4.129  -5.743  0.00  0.00    +0.160 HD
ENDBRANCH  27  28
ENDBRANCH  26  27
ENDBRANCH  24  26
ENDBRANCH   1  24
TORSDOF 7
