REMARK  Name = ZINC52785829
REMARK  8 active torsions:
REMARK  status: ('A' for Active; 'I' for Inactive)
REMARK    1  A    between atoms: C_1  and  O_2
REMARK    2  A    between atoms: O_2  and  C_3
REMARK    3  A    between atoms: C_3  and  C_4
REMARK    4  A    between atoms: C_4  and  C_5
REMARK    5  A    between atoms: C_5  and  C_7
REMARK    6  A    between atoms: C_5  and  N_10
REMARK    7  A    between atoms: N_10  and  S_11
REMARK    8  A    between atoms: S_11  and  C_14
REMARK                            x       y       z     vdW  Elec       q    Type
REMARK                         _______ _______ _______ _____ _____    ______ ____
ROOT
ATOM      1  N   UNL     1       0.550  -2.372  -3.470  0.00  0.00    -0.176 NA
ATOM      2  H   UNL     1      -0.418  -2.321  -3.437  0.00  0.00    +0.149 HD
ENDROOT
BRANCH   1   3
ATOM      3  S   UNL     1       1.346  -2.085  -4.894  0.00  0.00    +0.059 S 
ATOM      4  O   UNL     1       0.348  -1.822  -5.871  0.00  0.00    -0.153 OA
ATOM      5  O   UNL     1       2.385  -1.162  -4.600  0.00  0.00    -0.153 OA
BRANCH   3   6
ATOM      6  C   UNL     1       2.128  -3.591  -5.367  0.00  0.00    +0.105 A 
ATOM      7  C   UNL     1       3.413  -3.867  -4.936  0.00  0.00    +0.029 A 
ATOM      8  C   UNL     1       4.027  -5.049  -5.307  0.00  0.00    +0.016 A 
ATOM      9  C   UNL     1       3.356  -5.955  -6.108  0.00  0.00    +0.013 A 
ATOM     10  C   UNL     1       2.072  -5.678  -6.539  0.00  0.00    +0.016 A 
ATOM     11  C   UNL     1       1.456  -4.499  -6.163  0.00  0.00    +0.029 A 
ATOM     12  I   UNL     1       4.287  -7.745  -6.670  0.00  0.00    -0.044 I 
ENDBRANCH   3   6
ENDBRANCH   1   3
BRANCH   1  13
ATOM     13  C   UNL     1       1.309  -2.703  -2.261  0.00  0.00    +0.191 C 
BRANCH  13  14
ATOM     14  C   UNL     1       1.379  -4.200  -2.107  0.00  0.00    +0.374 C 
ATOM     15  O   UNL     1       0.699  -4.919  -2.819  0.00  0.00    -0.245 OA
ATOM     16  O   UNL     1       2.117  -4.693  -1.270  0.00  0.00    -0.245 OA
ENDBRANCH  13  14
BRANCH  13  17
ATOM     17  C   UNL     1       0.613  -2.097  -1.041  0.00  0.00    +0.060 C 
BRANCH  17  18
ATOM     18  C   UNL     1       0.652  -0.570  -1.138  0.00  0.00    +0.161 C 
BRANCH  18  20
ATOM     19  C   UNL     1      -0.017   1.425   0.010  0.00  0.00    +0.193 C 
ATOM     20  O   UNL     1       0.002  -0.004   0.002  0.00  0.00    -0.383 OA
ENDBRANCH  18  20
ENDBRANCH  17  18
ENDBRANCH  13  17
ENDBRANCH   1  13
TORSDOF 7
