REMARK  Name = ZINC12372311
REMARK  12 active torsions:
REMARK  status: ('A' for Active; 'I' for Inactive)
REMARK    1  A    between atoms: C_1  and  C_2
REMARK    2  A    between atoms: C_3  and  C_17
REMARK    3  A    between atoms: C_6  and  O_12
REMARK    4  A    between atoms: O_12  and  C_13
REMARK    5  A    between atoms: C_17  and  C_18
REMARK    6  A    between atoms: C_18  and  N_19
REMARK    7  A    between atoms: C_24  and  C_25
REMARK    8  A    between atoms: C_24  and  O_26
REMARK    9  A    between atoms: C_28  and  C_33
REMARK   10  A    between atoms: C_28  and  C_34
REMARK   11  A    between atoms: C_29  and  C_31
REMARK   12  A    between atoms: C_29  and  C_32
REMARK                            x       y       z     vdW  Elec       q    Type
REMARK                         _______ _______ _______ _____ _____    ______ ____
ROOT
ATOM      1  N   UNL     1       2.168   0.962  -0.010  0.00  0.00    -0.235 N 
ATOM      2  C   UNL     1       1.233   1.921   0.001  0.00  0.00    +0.406 C 
ATOM      3  O   UNL     1       1.497   3.107   0.002  0.00  0.00    -0.226 OA
ATOM      4  O   UNL     1      -0.018   1.448   0.010  0.00  0.00    -0.439 OA
ATOM      5  C   UNL     1       0.002  -0.004   0.002  0.00  0.00    +0.158 C 
ATOM      6  C   UNL     1       1.500  -0.352  -0.003  0.00  0.00    +0.175 C 
ATOM      7  C   UNL     1       1.923  -1.150   1.228  0.00  0.00    +0.068 C 
ATOM      8  C   UNL     1      -0.642  -0.546  -1.270  0.00  0.00    +0.040 C 
ATOM      9  C   UNL     1      -2.140  -0.268  -1.313  0.00  0.00    -0.070 C 
ATOM     10  C   UNL     1      -2.200  -0.244   1.196  0.00  0.00    -0.070 C 
ATOM     11  C   UNL     1      -0.704  -0.572   1.222  0.00  0.00    +0.040 C 
ATOM     12  C   UNL     1      -2.872  -1.107   2.290  0.00  0.00    -0.010 C 
ATOM     13  C   UNL     1      -2.430   1.220   1.575  0.00  0.00    -0.010 C 
ATOM     14  C   UNL     1      -2.744  -1.170  -2.416  0.00  0.00    -0.010 C 
ATOM     15  C   UNL     1      -2.392   1.183  -1.740  0.00  0.00    -0.010 C 
ATOM     16  N   UNL     1      -2.886  -0.607  -0.073  0.00  0.00    +0.386 N 
ATOM     17  H   UNL     1      -3.049  -1.621  -0.067  0.00  0.00    -0.084 HD
ATOM     18  H   UNL     1      -3.787  -0.116  -0.099  0.00  0.00    -0.084 HD
ENDROOT
BRANCH   6  19
ATOM     19  O   UNL     1       1.839  -1.073  -1.194  0.00  0.00    -0.368 OA
ATOM     20  H   UNL     1       2.773  -1.320  -1.252  0.00  0.00    +0.212 HD
ENDBRANCH   6  19
BRANCH   1  21
ATOM     21  C   UNL     1       3.616   1.180  -0.026  0.00  0.00    +0.119 C 
BRANCH  21  22
ATOM     22  C   UNL     1       4.105   1.256  -1.473  0.00  0.00    +0.056 C 
BRANCH  22  25
ATOM     23  C   UNL     1       6.285  -0.954  -1.500  0.00  0.00    +0.063 C 
ATOM     24  C   UNL     1       6.545   0.530  -1.501  0.00  0.00    +0.017 A 
ATOM     25  C   UNL     1       5.595   1.479  -1.490  0.00  0.00    -0.018 A 
ATOM     26  C   UNL     1       6.282   2.773  -1.502  0.00  0.00    +0.007 A 
ATOM     27  C   UNL     1       5.848   4.101  -1.504  0.00  0.00    +0.056 A 
ATOM     28  C   UNL     1       6.777   5.122  -1.518  0.00  0.00    +0.131 A 
ATOM     29  C   UNL     1       8.139   4.832  -1.531  0.00  0.00    +0.048 A 
ATOM     30  C   UNL     1       8.578   3.527  -1.520  0.00  0.00    +0.030 A 
ATOM     31  C   UNL     1       7.658   2.484  -1.511  0.00  0.00    +0.047 A 
ATOM     32  N   UNL     1       7.784   1.111  -1.514  0.00  0.00    -0.358 N 
ATOM     33  H   UNL     1       8.625   0.628  -1.524  0.00  0.00    +0.166 HD
BRANCH  28  34
ATOM     34  O   UNL     1       6.360   6.417  -1.520  0.00  0.00    -0.406 OA
BRANCH  34  35
ATOM     35  C   UNL     1       7.373   7.424  -1.535  0.00  0.00    +0.575 C 
ATOM     36  F   UNL     1       8.157   7.280  -2.684  0.00  0.00    -0.133 F 
ATOM     37  F   UNL     1       6.774   8.688  -1.534  0.00  0.00    -0.133 F 
ATOM     38  F   UNL     1       8.181   7.291  -0.400  0.00  0.00    -0.133 F 
ENDBRANCH  34  35
ENDBRANCH  28  34
ENDBRANCH  22  25
ENDBRANCH  21  22
ENDBRANCH   1  21
TORSDOF 6
