REMARK  Name = ZINC39984244
REMARK  4 active torsions:
REMARK  status: ('A' for Active; 'I' for Inactive)
REMARK    1  A    between atoms: N_7  and  S_8
REMARK    2  A    between atoms: S_8  and  C_11
REMARK    3  A    between atoms: C_16  and  N_21
REMARK    4  A    between atoms: N_21  and  C_22
REMARK                            x       y       z     vdW  Elec       q    Type
REMARK                         _______ _______ _______ _____ _____    ______ ____
ROOT
ATOM      1  C   UNL     1      -0.273   1.097   0.324  0.00  0.00    +0.002 A 
ATOM      2  C   UNL     1       0.836   1.950   0.198  0.00  0.00    +0.002 A 
ATOM      3  C   UNL     1       2.098   1.491   0.051  0.00  0.00    +0.028 A 
ATOM      4  C   UNL     1       2.354   0.097   0.018  0.00  0.00    +0.064 A 
ATOM      5  N   UNL     1       3.586  -0.345  -0.125  0.00  0.00    -0.338 N 
ATOM      6  C   UNL     1       3.863  -1.658  -0.160  0.00  0.00    +0.170 C 
ATOM      7  N   UNL     1       5.088  -2.070  -0.302  0.00  0.00    -0.111 NA
ATOM      8  C   UNL     1       2.730  -2.651  -0.032  0.00  0.00    +0.235 C 
ATOM      9  N   UNL     1       1.367  -2.121   0.127  0.00  0.00    -0.359 N 
ATOM     10  C   UNL     1       1.201  -0.828   0.149  0.00  0.00    +0.061 A 
ATOM     11  C   UNL     1      -0.141  -0.248   0.306  0.00  0.00    +0.027 A 
ATOM     12  H   UNL     1       0.608  -2.720   0.212  0.00  0.00    +0.162 HD
ATOM     13  H   UNL     1       4.311   0.294  -0.207  0.00  0.00    +0.167 HD
ENDROOT
BRANCH   7  14
ATOM     14  S   UNL     1       6.320  -0.972  -0.441  0.00  0.00    +0.107 S 
ATOM     15  O   UNL     1       6.117  -0.287  -1.669  0.00  0.00    -0.146 OA
ATOM     16  O   UNL     1       6.402  -0.294   0.805  0.00  0.00    -0.146 OA
BRANCH  14  17
ATOM     17  C   UNL     1       7.816  -1.887  -0.616  0.00  0.00    +0.150 A 
ATOM     18  C   UNL     1       8.423  -2.322  -1.746  0.00  0.00    +0.037 A 
ATOM     19  C   UNL     1       9.606  -3.030  -1.642  0.00  0.00    +0.010 A 
ATOM     20  C   UNL     1      10.124  -3.268  -0.412  0.00  0.00    +0.047 A 
ATOM     21  S   UNL     1       8.929  -2.474   0.651  0.00  0.00    -0.076 S 
ENDBRANCH  14  17
ENDBRANCH   7  14
BRANCH   8  22
ATOM     22  N   UNL     1       2.742  -3.500  -1.226  0.00  0.00    -0.318 N 
ATOM     23  H   UNL     1       2.870  -3.104  -2.102  0.00  0.00    +0.148 HD
BRANCH  22  24
ATOM     24  C   UNL     1       2.570  -4.883  -1.103  0.00  0.00    +0.033 A 
ATOM     25  C   UNL     1       2.740  -5.706  -2.209  0.00  0.00    +0.027 A 
ATOM     26  C   UNL     1       2.571  -7.072  -2.088  0.00  0.00    +0.051 A 
ATOM     27  C   UNL     1       2.232  -7.625  -0.864  0.00  0.00    +0.166 A 
ATOM     28  C   UNL     1       2.061  -6.803   0.247  0.00  0.00    +0.168 A 
ATOM     29  C   UNL     1       2.236  -5.434   0.127  0.00  0.00    +0.072 A 
ATOM     30  O   UNL     1       1.733  -7.582   1.319  0.00  0.00    -0.453 OA
ATOM     31  C   UNL     1       1.304  -8.839   0.765  0.00  0.00    +0.466 C 
ATOM     32  O   UNL     1       2.010  -8.920  -0.487  0.00  0.00    -0.453 OA
ENDBRANCH  22  24
ENDBRANCH   8  22
TORSDOF 4
