REMARK  Name = ZINC08452244
REMARK  13 active torsions:
REMARK  status: ('A' for Active; 'I' for Inactive)
REMARK    1  A    between atoms: C_1  and  C_2
REMARK    2  A    between atoms: C_2  and  O_3
REMARK    3  A    between atoms: O_3  and  C_4
REMARK    4  A    between atoms: C_4  and  C_6
REMARK    5  A    between atoms: C_7  and  C_36
REMARK    6  A    between atoms: C_14  and  C_15
REMARK    7  A    between atoms: C_19  and  O_22
REMARK    8  A    between atoms: C_20  and  O_21
REMARK    9  A    between atoms: O_22  and  C_23
REMARK   10  A    between atoms: C_25  and  C_27
REMARK   11  A    between atoms: C_30  and  C_35
REMARK   12  A    between atoms: C_31  and  O_33
REMARK   13  A    between atoms: O_33  and  C_34
REMARK                            x       y       z     vdW  Elec       q    Type
REMARK                         _______ _______ _______ _____ _____    ______ ____
ROOT
ATOM      1  C   UNL     1      -7.316   0.062  -0.189  0.00  0.00    +0.085 C 
ATOM      2  C   UNL     1      -7.721   1.337  -0.471  0.00  0.00    +0.053 C 
ATOM      3  N   UNL     1      -6.843   2.331  -0.509  0.00  0.00    -0.228 NA
ATOM      4  C   UNL     1      -5.559   2.202  -0.290  0.00  0.00    +0.178 A 
ATOM      5  N   UNL     1      -4.944   1.008   0.009  0.00  0.00    -0.275 N 
ATOM      6  C   UNL     1      -3.621   1.000   0.212  0.00  0.00    +0.268 A 
ATOM      7  O   UNL     1      -3.034  -0.033   0.479  0.00  0.00    -0.266 OA
ATOM      8  C   UNL     1      -2.898   2.274   0.102  0.00  0.00    +0.081 A 
ATOM      9  C   UNL     1      -1.573   2.532   0.259  0.00  0.00    +0.032 C 
ATOM     10  S   UNL     1      -4.234   3.394  -0.287  0.00  0.00    -0.046 S 
ATOM     11  C   UNL     1      -5.847  -0.175   0.075  0.00  0.00    +0.162 C 
ATOM     12  C   UNL     1      -9.178   1.616  -0.741  0.00  0.00    +0.066 C 
ENDROOT
BRANCH  11  13
ATOM     13  C   UNL     1      -5.355  -1.191  -0.923  0.00  0.00    -0.016 A 
ATOM     14  C   UNL     1      -5.207  -2.513  -0.548  0.00  0.00    +0.006 A 
ATOM     15  C   UNL     1      -4.760  -3.448  -1.463  0.00  0.00    +0.007 A 
ATOM     16  C   UNL     1      -4.450  -3.061  -2.752  0.00  0.00    -0.009 A 
ATOM     17  C   UNL     1      -4.592  -1.734  -3.130  0.00  0.00    +0.123 A 
ATOM     18  C   UNL     1      -5.046  -0.798  -2.211  0.00  0.00    +0.052 A 
ATOM     19  C   UNL     1      -3.957  -4.080  -3.748  0.00  0.00    +0.047 C 
BRANCH  17  20
ATOM     20  O   UNL     1      -4.287  -1.350  -4.397  0.00  0.00    -0.495 OA
ATOM     21  C   UNL     1      -4.567   0.006  -4.750  0.00  0.00    +0.277 C 
ENDBRANCH  17  20
ENDBRANCH  11  13
BRANCH   9  22
ATOM     22  C   UNL     1      -0.673   1.478   0.739  0.00  0.00    +0.021 A 
ATOM     23  C   UNL     1      -1.032   0.691   1.841  0.00  0.00    +0.012 A 
ATOM     24  C   UNL     1      -0.181  -0.294   2.291  0.00  0.00    +0.004 A 
ATOM     25  C   UNL     1       1.027  -0.520   1.651  0.00  0.00    +0.049 A 
ATOM     26  C   UNL     1       1.396   0.245   0.557  0.00  0.00    +0.162 A 
ATOM     27  C   UNL     1       0.551   1.247   0.093  0.00  0.00    +0.166 A 
BRANCH  27  28
ATOM     28  O   UNL     1       0.909   1.999  -0.980  0.00  0.00    -0.503 OA
ATOM     29  H   UNL     1       0.619   1.636  -1.829  0.00  0.00    +0.292 HD
ENDBRANCH  27  28
BRANCH  26  30
ATOM     30  O   UNL     1       2.584   0.016  -0.064  0.00  0.00    -0.491 OA
ATOM     31  C   UNL     1       3.402  -1.029   0.466  0.00  0.00    +0.277 C 
ENDBRANCH  26  30
ENDBRANCH   9  22
BRANCH   1  32
ATOM     32  C   UNL     1      -8.238  -0.996  -0.148  0.00  0.00    +0.339 C 
ATOM     33  O   UNL     1      -9.408  -0.797  -0.424  0.00  0.00    -0.245 OA
BRANCH  32  34
ATOM     34  O   UNL     1      -7.828  -2.236   0.198  0.00  0.00    -0.462 OA
BRANCH  34  36
ATOM     35  C   UNL     1      -8.188  -4.581   0.659  0.00  0.00    +0.048 C 
ATOM     36  C   UNL     1      -8.794  -3.286   0.115  0.00  0.00    +0.229 C 
ENDBRANCH  34  36
ENDBRANCH  32  34
ENDBRANCH   1  32
TORSDOF 8
