REMARK  Name = ZINC63982441
REMARK  6 active torsions:
REMARK  status: ('A' for Active; 'I' for Inactive)
REMARK    1  A    between atoms: C_1  and  C_2
REMARK    2  A    between atoms: C_2  and  O_3
REMARK    3  A    between atoms: O_3  and  C_4
REMARK    4  A    between atoms: C_7  and  C_10
REMARK    5  A    between atoms: C_10  and  N_12
REMARK    6  A    between atoms: N_21  and  C_22
REMARK                            x       y       z     vdW  Elec       q    Type
REMARK                         _______ _______ _______ _____ _____    ______ ____
ROOT
ATOM      1  N   UNL     1       0.524  -6.763  -0.811  0.00  0.00    -0.142 NA
ATOM      2  C   UNL     1       0.512  -8.081  -0.969  0.00  0.00    +0.201 A 
ATOM      3  N   UNL     1       1.097  -8.758  -1.994  0.00  0.00    -0.326 N 
ATOM      4  C   UNL     1       0.865 -10.117  -1.808  0.00  0.00    +0.067 A 
ATOM      5  C   UNL     1       1.222 -11.246  -2.532  0.00  0.00    +0.047 A 
ATOM      6  C   UNL     1       0.838 -12.497  -2.090  0.00  0.00    +0.043 A 
ATOM      7  C   UNL     1       0.097 -12.629  -0.926  0.00  0.00    +0.022 A 
ATOM      8  C   UNL     1      -0.263 -11.512  -0.200  0.00  0.00    +0.029 A 
ATOM      9  C   UNL     1       0.118 -10.251  -0.636  0.00  0.00    +0.068 A 
ATOM     10  N   UNL     1      -0.083  -8.970  -0.129  0.00  0.00    -0.315 N 
ATOM     11  C   UNL     1      -0.814  -8.637   1.097  0.00  0.00    +0.152 C 
ATOM     12 CL   UNL     1       1.285 -13.909  -2.995  0.00  0.00    -0.083 Cl
ATOM     13  H   UNL     1       1.591  -8.361  -2.728  0.00  0.00    +0.169 HD
ENDROOT
BRANCH   1  14
ATOM     14  C   UNL     1       1.044  -5.980  -1.763  0.00  0.00    +0.272 C 
ATOM     15  O   UNL     1       1.592  -6.479  -2.731  0.00  0.00    -0.268 OA
BRANCH  14  19
ATOM     16  C   UNL     1       0.749  -1.806  -1.346  0.00  0.00    +0.215 A 
ATOM     17  C   UNL     1       1.387  -2.312  -2.474  0.00  0.00    +0.068 A 
ATOM     18  C   UNL     1       1.496  -3.678  -2.632  0.00  0.00    +0.020 A 
ATOM     19  C   UNL     1       0.955  -4.508  -1.641  0.00  0.00    +0.057 A 
ATOM     20  C   UNL     1       0.330  -3.927  -0.538  0.00  0.00    +0.127 A 
ATOM     21  N   UNL     1       0.253  -2.617  -0.424  0.00  0.00    -0.221 NA
BRANCH  16  22
ATOM     22  O   UNL     1       0.639  -0.465  -1.185  0.00  0.00    -0.477 OA
BRANCH  22  24
ATOM     23  C   UNL     1      -0.048   1.524   0.003  0.00  0.00    +0.048 C 
ATOM     24  C   UNL     1      -0.021  -0.005  -0.004  0.00  0.00    +0.227 C 
ENDBRANCH  22  24
ENDBRANCH  16  22
ENDBRANCH  14  19
ENDBRANCH   1  14
TORSDOF 4
