REMARK  Name = ZINC67183710
REMARK  5 active torsions:
REMARK  status: ('A' for Active; 'I' for Inactive)
REMARK    1  A    between atoms: C_8  and  C_10
REMARK    2  A    between atoms: C_11  and  C_16
REMARK    3  A    between atoms: C_16  and  N_17
REMARK    4  A    between atoms: N_17  and  C_18
REMARK    5  A    between atoms: C_18  and  C_19
REMARK                            x       y       z     vdW  Elec       q    Type
REMARK                         _______ _______ _______ _____ _____    ______ ____
ROOT
ATOM      1  C   UNL     1       3.796  -3.333  -0.053  0.00  0.00    +0.129 A 
ATOM      2  C   UNL     1       5.032  -3.488  -0.715  0.00  0.00    -0.016 A 
ATOM      3  C   UNL     1       5.470  -4.744  -0.485  0.00  0.00    +0.107 A 
ATOM      4  N   UNL     1       4.557  -5.370   0.291  0.00  0.00    -0.284 N 
ATOM      5  H   UNL     1       4.614  -6.283   0.612  0.00  0.00    +0.188 HD
ATOM      6  N   UNL     1       3.518  -4.469   0.556  0.00  0.00    -0.171 NA
ENDROOT
BRANCH   1  14
ATOM      7  C   UNL     1      -0.017   1.363   0.009  0.00  0.00    +0.001 A 
ATOM      8  C   UNL     1       1.170   2.082   0.002  0.00  0.00    +0.004 A 
ATOM      9  C   UNL     1       2.387   1.432  -0.013  0.00  0.00    +0.047 A 
ATOM     10  C   UNL     1       2.429   0.044  -0.021  0.00  0.00    +0.136 A 
ATOM     11  C   UNL     1       1.223  -0.679  -0.013  0.00  0.00    +0.021 A 
ATOM     12  C   UNL     1       0.002  -0.004   0.002  0.00  0.00    +0.011 A 
ATOM     13  C   UNL     1       1.610  -2.092  -0.025  0.00  0.00    +0.060 A 
ATOM     14  C   UNL     1       2.964  -2.111  -0.038  0.00  0.00    +0.156 A 
ATOM     15  O   UNL     1       3.439  -0.850  -0.036  0.00  0.00    -0.453 OA
ENDBRANCH   1  14
BRANCH   2  16
ATOM     16  C   UNL     1       5.737  -2.438  -1.534  0.00  0.00    -0.042 C 
BRANCH  16  17
ATOM     17  N   UNL     1       6.441  -1.510  -0.639  0.00  0.00    +0.384 N 
ATOM     18  H   UNL     1       5.776  -1.066  -0.024  0.00  0.00    -0.085 HD
ATOM     19  H   UNL     1       7.117  -2.020  -0.090  0.00  0.00    -0.085 HD
BRANCH  17  20
ATOM     20  C   UNL     1       7.129  -0.487  -1.437  0.00  0.00    -0.046 C 
BRANCH  20  21
ATOM     21  C   UNL     1       7.851   0.465  -0.519  0.00  0.00    -0.061 A 
ATOM     22  C   UNL     1       7.204   1.592  -0.046  0.00  0.00    +0.005 A 
ATOM     23  C   UNL     1       7.863   2.468   0.795  0.00  0.00    +0.049 A 
ATOM     24  C   UNL     1       9.176   2.219   1.167  0.00  0.00    +0.162 A 
ATOM     25  C   UNL     1       9.825   1.086   0.694  0.00  0.00    +0.162 A 
ATOM     26  C   UNL     1       9.157   0.208  -0.147  0.00  0.00    +0.051 A 
ATOM     27  O   UNL     1      11.111   0.818   1.053  0.00  0.00    -0.485 OA
ATOM     28  C   UNL     1      11.866   1.905   1.598  0.00  0.00    +0.270 C 
ATOM     29  C   UNL     1      10.997   2.618   2.643  0.00  0.00    +0.270 C 
ATOM     30  O   UNL     1       9.813   3.094   1.993  0.00  0.00    -0.485 OA
ENDBRANCH  20  21
ENDBRANCH  17  20
ENDBRANCH  16  17
ENDBRANCH   2  16
TORSDOF 5
