REMARK  Name = ZINC39921268
REMARK  9 active torsions:
REMARK  status: ('A' for Active; 'I' for Inactive)
REMARK    1  A    between atoms: C_1  and  C_2
REMARK    2  A    between atoms: C_2  and  O_3
REMARK    3  A    between atoms: O_3  and  C_4
REMARK    4  A    between atoms: C_7  and  C_10
REMARK    5  A    between atoms: C_25  and  N_32
REMARK    6  A    between atoms: C_26  and  C_27
REMARK    7  A    between atoms: C_27  and  O_29
REMARK    8  A    between atoms: O_29  and  C_30
REMARK    9  A    between atoms: C_30  and  C_31
REMARK                            x       y       z     vdW  Elec       q    Type
REMARK                         _______ _______ _______ _____ _____    ______ ____
ROOT
ATOM      1  C   UNL     1      -2.138  -5.976  -0.053  0.00  0.00    +0.080 C 
ATOM      2  C   UNL     1      -2.932  -6.473  -1.265  0.00  0.00    +0.154 C 
ATOM      3  C   UNL     1      -3.216  -7.940  -0.987  0.00  0.00    +0.129 C 
ATOM      4  C   UNL     1      -2.745  -8.878  -1.892  0.00  0.00    +0.035 A 
ATOM      5  C   UNL     1      -2.985 -10.257  -1.711  0.00  0.00    +0.013 A 
ATOM      6  C   UNL     1      -2.511 -11.147  -2.624  0.00  0.00    +0.001 A 
ATOM      7  C   UNL     1      -1.790 -10.727  -3.738  0.00  0.00    +0.002 A 
ATOM      8  C   UNL     1      -1.523  -9.410  -3.966  0.00  0.00    +0.024 A 
ATOM      9  C   UNL     1      -1.980  -8.435  -3.064  0.00  0.00    +0.044 A 
ATOM     10  N   UNL     1      -1.711  -7.142  -3.284  0.00  0.00    -0.284 N 
ATOM     11  C   UNL     1      -2.121  -6.145  -2.499  0.00  0.00    +0.229 C 
ATOM     12  O   UNL     1      -1.846  -4.988  -2.756  0.00  0.00    -0.275 OA
ATOM     13  O   UNL     1      -3.893  -8.261   0.119  0.00  0.00    -0.445 OA
ATOM     14  C   UNL     1      -3.577  -7.574   1.242  0.00  0.00    +0.194 C 
ATOM     15  C   UNL     1      -2.767  -6.491   1.212  0.00  0.00    +0.102 C 
ATOM     16  H   UNL     1      -1.189  -6.912  -4.069  0.00  0.00    +0.155 HD
ENDROOT
BRANCH   1  20
ATOM     17  C   UNL     1      -2.142  -1.703  -0.007  0.00  0.00    +0.121 A 
ATOM     18  C   UNL     1      -0.943  -2.396  -0.088  0.00  0.00    +0.046 A 
ATOM     19  C   UNL     1      -0.944  -3.777  -0.102  0.00  0.00    +0.008 A 
ATOM     20  C   UNL     1      -2.139  -4.470  -0.037  0.00  0.00    -0.038 A 
ATOM     21  C   UNL     1      -3.336  -3.781   0.044  0.00  0.00    +0.008 A 
ATOM     22  C   UNL     1      -3.339  -2.400   0.065  0.00  0.00    +0.046 A 
BRANCH  17  23
ATOM     23  O   UNL     1      -2.143  -0.344   0.008  0.00  0.00    -0.492 OA
BRANCH  23  25
ATOM     24  C   UNL     1      -1.075   1.823  -0.039  0.00  0.00    +0.048 C 
ATOM     25  C   UNL     1      -0.874   0.307  -0.069  0.00  0.00    +0.225 C 
ENDBRANCH  23  25
ENDBRANCH  17  23
ENDBRANCH   1  20
BRANCH  14  26
ATOM     26  N   UNL     1      -4.094  -7.986   2.441  0.00  0.00    -0.329 N 
ATOM     27  H   UNL     1      -4.745  -8.705   2.467  0.00  0.00    +0.145 HD
ATOM     28  H   UNL     1      -3.809  -7.560   3.264  0.00  0.00    +0.145 HD
ENDBRANCH  14  26
BRANCH  15  29
ATOM     29  C   UNL     1      -2.501  -5.819   2.416  0.00  0.00    +0.341 C 
ATOM     30  O   UNL     1      -1.433  -5.978   2.979  0.00  0.00    -0.245 OA
BRANCH  29  31
ATOM     31  O   UNL     1      -3.430  -4.996   2.950  0.00  0.00    -0.462 OA
BRANCH  31  32
ATOM     32  C   UNL     1      -3.092  -4.345   4.176  0.00  0.00    +0.229 C 
ATOM     33  C   UNL     1      -4.258  -3.462   4.623  0.00  0.00    +0.048 C 
ENDBRANCH  31  32
ENDBRANCH  29  31
ENDBRANCH  15  29
TORSDOF 7
