REMARK  Name = ZINC59165923
REMARK  12 active torsions:
REMARK  status: ('A' for Active; 'I' for Inactive)
REMARK    1  A    between atoms: C_1  and  C_2
REMARK    2  A    between atoms: C_2  and  C_3
REMARK    3  A    between atoms: C_3  and  N_4
REMARK    4  A    between atoms: C_5  and  C_7
REMARK    5  A    between atoms: C_7  and  N_8
REMARK    6  A    between atoms: N_16  and  N_17
REMARK    7  A    between atoms: C_18  and  C_20
REMARK    8  A    between atoms: C_20  and  N_21
REMARK    9  A    between atoms: N_21  and  C_22
REMARK   10  A    between atoms: N_21  and  C_29
REMARK   11  A    between atoms: C_22  and  C_23
REMARK   12  A    between atoms: C_29  and  C_30
REMARK                            x       y       z     vdW  Elec       q    Type
REMARK                         _______ _______ _______ _____ _____    ______ ____
ROOT
ATOM      1  N   UNL     1       2.815  -5.606   8.285  0.00  0.00    -0.208 N 
ATOM      2  C   UNL     1       2.852  -6.319   9.428  0.00  0.00    +0.216 C 
ATOM      3  O   UNL     1       1.858  -6.413  10.117  0.00  0.00    -0.276 OA
ATOM      4  H   UNL     1       3.610  -5.530   7.735  0.00  0.00    +0.177 HD
ENDROOT
BRANCH   1  13
ATOM      5  N   UNL     1       0.802  -3.106   4.989  0.00  0.00    -0.257 N 
ATOM      6  C   UNL     1       2.171  -3.256   4.795  0.00  0.00    +0.047 A 
ATOM      7  C   UNL     1       3.014  -2.821   3.778  0.00  0.00    +0.024 A 
ATOM      8  C   UNL     1       4.363  -3.109   3.824  0.00  0.00    +0.002 A 
ATOM      9  C   UNL     1       4.893  -3.832   4.879  0.00  0.00    +0.001 A 
ATOM     10  C   UNL     1       4.073  -4.273   5.898  0.00  0.00    +0.012 A 
ATOM     11  C   UNL     1       2.712  -3.988   5.860  0.00  0.00    +0.028 A 
ATOM     12  C   UNL     1       1.584  -4.304   6.767  0.00  0.00    +0.153 C 
ATOM     13  N   UNL     1       1.628  -4.974   7.892  0.00  0.00    -0.175 NA
ATOM     14  C   UNL     1       0.400  -3.693   6.129  0.00  0.00    +0.272 C 
ATOM     15  O   UNL     1      -0.738  -3.719   6.558  0.00  0.00    -0.268 OA
BRANCH   5  16
ATOM     16  C   UNL     1      -0.087  -2.393   4.069  0.00  0.00    +0.209 C 
BRANCH  16  18
ATOM     17  N   UNL     1      -0.918  -0.085   3.752  0.00  0.00    -0.314 N 
ATOM     18  C   UNL     1      -0.154  -0.939   4.461  0.00  0.00    +0.231 C 
ATOM     19  O   UNL     1       0.479  -0.538   5.414  0.00  0.00    -0.274 OA
ATOM     20  H   UNL     1      -1.425  -0.405   2.989  0.00  0.00    +0.149 HD
BRANCH  17  21
ATOM     21  C   UNL     1      -0.983   1.329   4.133  0.00  0.00    +0.104 C 
BRANCH  21  23
ATOM     22  C   UNL     1      -1.980   3.549   3.570  0.00  0.00    +0.005 C 
ATOM     23  C   UNL     1      -1.913   2.073   3.172  0.00  0.00    +0.015 C 
ENDBRANCH  21  23
ENDBRANCH  17  21
ENDBRANCH  16  18
ENDBRANCH   5  16
ENDBRANCH   1  13
BRANCH   2  24
ATOM     24  C   UNL     1       4.129  -6.999   9.851  0.00  0.00    +0.021 C 
BRANCH  24  25
ATOM     25  N   UNL     1       3.874  -7.824  11.039  0.00  0.00    +0.391 N 
ATOM     26  H   UNL     1       3.436  -7.261  11.753  0.00  0.00    -0.080 HD
BRANCH  25  27
ATOM     27  C   UNL     1       2.985  -8.938  10.680  0.00  0.00    -0.042 C 
BRANCH  27  28
ATOM     28  C   UNL     1       2.625  -9.713  11.921  0.00  0.00    -0.064 A 
ATOM     29  C   UNL     1       3.414 -10.772  12.329  0.00  0.00    +0.002 A 
ATOM     30  C   UNL     1       3.084 -11.483  13.467  0.00  0.00    +0.000 A 
ATOM     31  C   UNL     1       1.964 -11.135  14.198  0.00  0.00    +0.000 A 
ATOM     32  C   UNL     1       1.174 -10.076  13.791  0.00  0.00    +0.000 A 
ATOM     33  C   UNL     1       1.507  -9.362  12.656  0.00  0.00    +0.002 A 
ENDBRANCH  27  28
ENDBRANCH  25  27
BRANCH  25  34
ATOM     34  C   UNL     1       5.145  -8.357  11.548  0.00  0.00    -0.042 C 
BRANCH  34  35
ATOM     35  C   UNL     1       6.011  -7.220  12.025  0.00  0.00    -0.064 A 
ATOM     36  C   UNL     1       6.975  -6.687  11.190  0.00  0.00    +0.002 A 
ATOM     37  C   UNL     1       7.769  -5.644  11.628  0.00  0.00    +0.000 A 
ATOM     38  C   UNL     1       7.599  -5.133  12.901  0.00  0.00    +0.000 A 
ATOM     39  C   UNL     1       6.634  -5.665  13.736  0.00  0.00    +0.000 A 
ATOM     40  C   UNL     1       5.837  -6.705  13.296  0.00  0.00    +0.002 A 
ENDBRANCH  34  35
ENDBRANCH  25  34
ENDBRANCH  24  25
ENDBRANCH   2  24
TORSDOF 11
