REMARK  Name = ZINC08739848
REMARK  4 active torsions:
REMARK  status: ('A' for Active; 'I' for Inactive)
REMARK    1  A    between atoms: C_4  and  N_7
REMARK    2  A    between atoms: C_11  and  C_12
REMARK    3  A    between atoms: N_16  and  C_17
REMARK    4  A    between atoms: C_27  and  O_28
REMARK                            x       y       z     vdW  Elec       q    Type
REMARK                         _______ _______ _______ _____ _____    ______ ____
ROOT
ATOM      1  N   UNL     1       0.302   0.302   1.381  0.00  0.00    -0.192 N 
ATOM      2  C   UNL     1       0.132   1.590   1.014  0.00  0.00    +0.264 C 
ATOM      3  O   UNL     1      -0.922   2.166   1.212  0.00  0.00    -0.269 OA
ATOM      4  C   UNL     1       1.260   2.274   0.362  0.00  0.00    +0.103 C 
ATOM      5  C   UNL     1       1.168   3.600  -0.047  0.00  0.00    +0.044 C 
ATOM      6  C   UNL     1       2.494   1.489   0.163  0.00  0.00    +0.276 C 
ATOM      7  O   UNL     1       3.472   1.986  -0.370  0.00  0.00    -0.268 OA
ATOM      8  N   UNL     1       2.514   0.212   0.582  0.00  0.00    -0.127 NA
ATOM      9  C   UNL     1       1.477  -0.345   1.156  0.00  0.00    +0.286 C 
ENDROOT
BRANCH   1  13
ATOM     10  C   UNL     1      -2.830  -1.730   3.234  0.00  0.00    +0.000 A 
ATOM     11  C   UNL     1      -2.427  -2.095   1.963  0.00  0.00    +0.002 A 
ATOM     12  C   UNL     1      -1.389  -1.424   1.346  0.00  0.00    +0.024 A 
ATOM     13  C   UNL     1      -0.751  -0.381   2.004  0.00  0.00    +0.046 A 
ATOM     14  C   UNL     1      -1.155  -0.019   3.282  0.00  0.00    +0.024 A 
ATOM     15  C   UNL     1      -2.196  -0.691   3.892  0.00  0.00    +0.002 A 
ENDBRANCH   1  13
BRANCH   5  16
ATOM     16  C   UNL     1      -0.061   4.274   0.028  0.00  0.00    +0.047 A 
ATOM     17  C   UNL     1      -0.312   5.457   0.716  0.00  0.00    +0.027 A 
ATOM     18  C   UNL     1      -1.656   5.766   0.519  0.00  0.00    +0.020 A 
ATOM     19  C   UNL     1      -2.203   4.795  -0.258  0.00  0.00    +0.092 A 
ATOM     20  N   UNL     1      -1.247   3.882  -0.563  0.00  0.00    -0.316 N 
BRANCH  20  21
ATOM     21  C   UNL     1      -1.431   2.736  -1.347  0.00  0.00    +0.047 A 
ATOM     22  C   UNL     1      -0.609   2.502  -2.441  0.00  0.00    +0.027 A 
ATOM     23  C   UNL     1      -0.789   1.368  -3.208  0.00  0.00    +0.017 A 
ATOM     24  C   UNL     1      -1.795   0.471  -2.895  0.00  0.00    +0.018 A 
ATOM     25  C   UNL     1      -2.620   0.705  -1.808  0.00  0.00    +0.017 A 
ATOM     26  C   UNL     1      -2.440   1.835  -1.034  0.00  0.00    +0.027 A 
ATOM     27 BR   UNL     1      -2.044  -1.076  -3.953  0.00  0.00    -0.050 Br
ENDBRANCH  20  21
ENDBRANCH   5  16
BRANCH   9  28
ATOM     28  O   UNL     1       1.581  -1.630   1.547  0.00  0.00    -0.483 OA
ATOM     29  H   UNL     1       2.424  -2.073   1.379  0.00  0.00    +0.295 HD
ENDBRANCH   9  28
TORSDOF 4
