REMARK  Name = ZINC09525726
REMARK  6 active torsions:
REMARK  status: ('A' for Active; 'I' for Inactive)
REMARK    1  A    between atoms: C_3  and  C_10
REMARK    2  A    between atoms: C_5  and  N_7
REMARK    3  A    between atoms: C_10  and  C_12
REMARK    4  A    between atoms: C_12  and  N_13
REMARK    5  A    between atoms: N_13  and  N_24
REMARK    6  A    between atoms: C_14  and  C_16
REMARK                            x       y       z     vdW  Elec       q    Type
REMARK                         _______ _______ _______ _____ _____    ______ ____
ROOT
ATOM      1  N   UNL     1       2.396   5.284  -0.095  0.00  0.00    -0.199 N 
ATOM      2  C   UNL     1       2.456   4.000   0.311  0.00  0.00    +0.265 C 
ATOM      3  O   UNL     1       3.531   3.438   0.389  0.00  0.00    -0.268 OA
ENDROOT
BRANCH   1   4
ATOM      4  N   UNL     1       1.172   5.967  -0.079  0.00  0.00    -0.152 N 
ATOM      5  C   UNL     1       0.612   6.508   1.064  0.00  0.00    +0.243 C 
ATOM      6  O   UNL     1       1.136   6.729   2.135  0.00  0.00    -0.273 OA
ATOM      7  C   UNL     1      -0.746   6.742   0.660  0.00  0.00    +0.092 C 
ATOM      8  C   UNL     1      -2.100   7.152   1.127  0.00  0.00    +0.002 C 
ATOM      9  C   UNL     1      -2.914   5.854   0.717  0.00  0.00    +0.004 C 
ATOM     10  C   UNL     1      -2.663   5.789  -0.814  0.00  0.00    +0.004 C 
ATOM     11  C   UNL     1      -2.050   7.141  -1.218  0.00  0.00    +0.002 C 
ATOM     12  C   UNL     1      -2.625   8.062  -0.065  0.00  0.00    +0.008 C 
ATOM     13  C   UNL     1      -0.575   7.255  -0.823  0.00  0.00    +0.092 C 
ATOM     14  C   UNL     1       0.405   6.174  -1.196  0.00  0.00    +0.243 C 
ATOM     15  O   UNL     1       0.495   5.604  -2.262  0.00  0.00    -0.273 OA
ENDBRANCH   1   4
BRANCH   2  16
ATOM     16  C   UNL     1       1.217   3.277   0.660  0.00  0.00    +0.057 A 
ATOM     17  C   UNL     1      -0.024   3.776   0.257  0.00  0.00    +0.016 A 
ATOM     18  C   UNL     1      -1.177   3.096   0.585  0.00  0.00    +0.021 A 
ATOM     19  C   UNL     1      -1.108   1.916   1.309  0.00  0.00    +0.042 A 
ATOM     20  C   UNL     1       0.117   1.418   1.717  0.00  0.00    +0.040 A 
ATOM     21  C   UNL     1       1.280   2.090   1.395  0.00  0.00    +0.054 A 
ATOM     22 CL   UNL     1       2.817   1.461   1.901  0.00  0.00    -0.083 Cl
ATOM     23 CL   UNL     1      -2.565   1.063   1.711  0.00  0.00    -0.083 Cl
ENDBRANCH   2  16
BRANCH   1  24
ATOM     24  C   UNL     1       3.609   5.966  -0.552  0.00  0.00    +0.211 C 
BRANCH  24  25
ATOM     25  C   UNL     1       3.767   5.768  -2.037  0.00  0.00    +0.182 C 
ATOM     26  O   UNL     1       2.947   5.121  -2.653  0.00  0.00    -0.290 OA
BRANCH  25  29
ATOM     27  C   UNL     1       6.939   7.657  -2.699  0.00  0.00    +0.003 A 
ATOM     28  C   UNL     1       5.864   7.106  -2.033  0.00  0.00    +0.011 A 
ATOM     29  C   UNL     1       4.917   6.360  -2.740  0.00  0.00    +0.021 A 
ATOM     30  C   UNL     1       5.070   6.174  -4.118  0.00  0.00    +0.044 A 
ATOM     31  C   UNL     1       6.148   6.735  -4.769  0.00  0.00    +0.127 A 
ATOM     32  C   UNL     1       7.082   7.473  -4.063  0.00  0.00    +0.033 A 
BRANCH  31  33
ATOM     33  N   UNL     1       6.310   6.542  -6.228  0.00  0.00    +0.056 N 
ATOM     34  O   UNL     1       7.264   7.033  -6.805  0.00  0.00    -0.126 OA
ATOM     35  O   UNL     1       5.490   5.893  -6.852  0.00  0.00    -0.126 OA
ENDBRANCH  31  33
ENDBRANCH  25  29
ENDBRANCH  24  25
ENDBRANCH   1  24
TORSDOF 6
