REMARK  Name = ZINC16682637
REMARK  7 active torsions:
REMARK  status: ('A' for Active; 'I' for Inactive)
REMARK    1  A    between atoms: C_1  and  C_2
REMARK    2  A    between atoms: C_2  and  O_3
REMARK    3  A    between atoms: O_3  and  C_4
REMARK    4  A    between atoms: C_4  and  C_6
REMARK    5  A    between atoms: N_8  and  C_27
REMARK    6  A    between atoms: N_15  and  C_18
REMARK    7  A    between atoms: C_23  and  N_24
REMARK                            x       y       z     vdW  Elec       q    Type
REMARK                         _______ _______ _______ _____ _____    ______ ____
ROOT
ATOM      1  C   UNL     1       1.428  -2.327  -2.479  0.00  0.00    +0.157 C 
ATOM      2  N   UNL     1       1.961  -1.623  -3.425  0.00  0.00    -0.176 NA
ATOM      3  N   UNL     1       2.540  -2.381  -4.439  0.00  0.00    -0.211 N 
ATOM      4  C   UNL     1       2.373  -3.808  -4.128  0.00  0.00    +0.203 C 
ATOM      5  C   UNL     1       1.611  -3.797  -2.777  0.00  0.00    +0.164 C 
ATOM      6  C   UNL     1       0.276  -4.416  -3.126  0.00  0.00    +0.238 C 
ATOM      7  O   UNL     1      -0.635  -4.601  -2.349  0.00  0.00    -0.274 OA
ATOM      8  N   UNL     1       0.259  -4.729  -4.427  0.00  0.00    -0.206 N 
ATOM      9  C   UNL     1       1.395  -4.428  -5.102  0.00  0.00    +0.250 C 
ATOM     10  O   UNL     1       1.608  -4.625  -6.279  0.00  0.00    -0.273 OA
ENDROOT
BRANCH   3  11
ATOM     11  C   UNL     1       3.178  -1.868  -5.570  0.00  0.00    +0.052 A 
ATOM     12  C   UNL     1       3.714  -2.731  -6.519  0.00  0.00    +0.026 A 
ATOM     13  C   UNL     1       4.344  -2.220  -7.636  0.00  0.00    +0.017 A 
ATOM     14  C   UNL     1       4.442  -0.851  -7.812  0.00  0.00    +0.018 A 
ATOM     15  C   UNL     1       3.910   0.011  -6.869  0.00  0.00    +0.017 A 
ATOM     16  C   UNL     1       3.274  -0.494  -5.752  0.00  0.00    +0.026 A 
ATOM     17 BR   UNL     1       5.306  -0.156  -9.344  0.00  0.00    -0.050 Br
ENDBRANCH   3  11
BRANCH   8  18
ATOM     18  C   UNL     1      -0.849  -5.321  -5.050  0.00  0.00    +0.074 A 
ATOM     19  C   UNL     1      -1.834  -4.526  -5.619  0.00  0.00    +0.026 A 
ATOM     20  C   UNL     1      -2.924  -5.112  -6.232  0.00  0.00    +0.002 A 
ATOM     21  C   UNL     1      -3.035  -6.490  -6.278  0.00  0.00    +0.002 A 
ATOM     22  C   UNL     1      -2.056  -7.284  -5.711  0.00  0.00    +0.034 A 
ATOM     23  C   UNL     1      -0.960  -6.704  -5.103  0.00  0.00    +0.148 A 
BRANCH  23  24
ATOM     24  N   UNL     1       0.091  -7.555  -4.502  0.00  0.00    +0.058 N 
ATOM     25  O   UNL     1      -0.006  -8.759  -4.549  0.00  0.00    -0.126 OA
ATOM     26  O   UNL     1       1.048  -7.046  -3.965  0.00  0.00    -0.126 OA
ENDBRANCH  23  24
ENDBRANCH   8  18
BRANCH   1  27
ATOM     27  C   UNL     1       0.776  -1.800  -1.335  0.00  0.00    +0.356 C 
ATOM     28  O   UNL     1       0.312  -2.553  -0.499  0.00  0.00    -0.244 OA
BRANCH  27  29
ATOM     29  O   UNL     1       0.671  -0.465  -1.174  0.00  0.00    -0.461 OA
BRANCH  29  31
ATOM     30  C   UNL     1      -0.019   1.526   0.010  0.00  0.00    +0.048 C 
ATOM     31  C   UNL     1       0.002  -0.004   0.002  0.00  0.00    +0.229 C 
ENDBRANCH  29  31
ENDBRANCH  27  29
ENDBRANCH   1  27
TORSDOF 6
