REMARK  Name = ZINC02353927
REMARK  7 active torsions:
REMARK  status: ('A' for Active; 'I' for Inactive)
REMARK    1  A    between atoms: C_1  and  C_2
REMARK    2  A    between atoms: C_7  and  C_8
REMARK    3  A    between atoms: C_17  and  C_19
REMARK    4  A    between atoms: C_19  and  C_20
REMARK    5  A    between atoms: C_19  and  C_21
REMARK    6  A    between atoms: N_24  and  C_27
REMARK    7  A    between atoms: C_27  and  C_28
REMARK                            x       y       z     vdW  Elec       q    Type
REMARK                         _______ _______ _______ _____ _____    ______ ____
ROOT
ATOM      1  C   UNL     1       5.822  -0.804  -3.252  0.00  0.00    +0.044 C 
ATOM      2  C   UNL     1       4.546  -0.519  -2.504  0.00  0.00    -0.046 A 
ATOM      3  C   UNL     1       3.444  -0.033  -3.184  0.00  0.00    +0.004 A 
ATOM      4  C   UNL     1       2.272   0.231  -2.498  0.00  0.00    +0.005 A 
ATOM      5  C   UNL     1       2.205   0.009  -1.140  0.00  0.00    -0.027 A 
ATOM      6  C   UNL     1       3.306  -0.481  -0.446  0.00  0.00    +0.039 A 
ATOM      7  C   UNL     1       4.482  -0.743  -1.145  0.00  0.00    -0.026 A 
ATOM      8  C   UNL     1       5.688  -1.274  -0.414  0.00  0.00    +0.046 C 
ATOM      9  N   UNL     1       2.997  -0.627   0.908  0.00  0.00    -0.286 N 
ATOM     10  C   UNL     1       1.732  -0.257   1.184  0.00  0.00    +0.211 C 
ATOM     11  O   UNL     1       1.191  -0.276   2.269  0.00  0.00    -0.277 OA
ATOM     12  C   UNL     1       1.119   0.186  -0.117  0.00  0.00    +0.050 C 
ATOM     13  C   UNL     1       0.644   1.642  -0.046  0.00  0.00    +0.088 C 
ATOM     14  C   UNL     1      -0.883   1.545   0.224  0.00  0.00    +0.073 C 
ATOM     15  C   UNL     1      -1.173   0.031   0.315  0.00  0.00    -0.055 C 
ATOM     16  C   UNL     1      -1.033   2.160   1.597  0.00  0.00    +0.224 C 
ATOM     17  O   UNL     1      -2.079   2.291   2.196  0.00  0.00    -0.275 OA
ATOM     18  N   UNL     1       0.168   2.539   2.049  0.00  0.00    -0.237 N 
ATOM     19  C   UNL     1       1.180   2.294   1.208  0.00  0.00    +0.225 C 
ATOM     20  O   UNL     1       2.345   2.556   1.419  0.00  0.00    -0.275 OA
ATOM     21  H   UNL     1       3.622  -0.956   1.574  0.00  0.00    +0.155 HD
ATOM     22  N   UNL     1      -0.072  -0.585  -0.429  0.00  0.00    +0.394 N 
ATOM     23  H   UNL     1       0.051  -1.562  -0.137  0.00  0.00    -0.083 HD
ATOM     24  H   UNL     1      -0.262  -0.551  -1.438  0.00  0.00    -0.083 HD
ENDROOT
BRANCH  15  25
ATOM     25  C   UNL     1      -2.527  -0.290  -0.321  0.00  0.00    -0.031 C 
ATOM     26  C   UNL     1      -2.794  -1.793  -0.220  0.00  0.00    +0.005 C 
ATOM     27  C   UNL     1      -3.630   0.474   0.416  0.00  0.00    +0.005 C 
ENDBRANCH  15  25
BRANCH  18  28
ATOM     28  C   UNL     1       0.360   3.170   3.357  0.00  0.00    +0.153 C 
BRANCH  28  29
ATOM     29  C   UNL     1       0.080   4.647   3.248  0.00  0.00    -0.011 A 
ATOM     30  C   UNL     1      -1.170   5.139   3.574  0.00  0.00    +0.006 A 
ATOM     31  C   UNL     1      -1.428   6.493   3.474  0.00  0.00    +0.000 A 
ATOM     32  C   UNL     1      -0.435   7.357   3.047  0.00  0.00    +0.001 A 
ATOM     33  C   UNL     1       0.815   6.866   2.721  0.00  0.00    +0.020 A 
ATOM     34  C   UNL     1       1.075   5.511   2.826  0.00  0.00    +0.046 A 
ATOM     35 CL   UNL     1       2.647   4.895   2.423  0.00  0.00    -0.083 Cl
ENDBRANCH  28  29
ENDBRANCH  18  28
TORSDOF 3
