REMARK  Name = ZINC03544978
REMARK  8 active torsions:
REMARK  status: ('A' for Active; 'I' for Inactive)
REMARK    1  A    between atoms: C_1  and  C_2
REMARK    2  A    between atoms: C_2  and  C_4
REMARK    3  A    between atoms: C_2  and  S_15
REMARK    4  A    between atoms: S_15  and  C_16
REMARK    5  A    between atoms: C_19  and  C_22
REMARK    6  A    between atoms: N_20  and  N_21
REMARK    7  A    between atoms: C_25  and  O_28
REMARK    8  A    between atoms: O_28  and  C_29
REMARK                            x       y       z     vdW  Elec       q    Type
REMARK                         _______ _______ _______ _____ _____    ______ ____
ROOT
ATOM      1  C   UNL     1       2.298   0.885  -1.441  0.00  0.00    +0.209 A 
ATOM      2  N   UNL     1       1.619   0.080  -2.228  0.00  0.00    -0.121 NA
ATOM      3  N   UNL     1       2.369  -0.336  -3.185  0.00  0.00    -0.127 NA
ATOM      4  C   UNL     1       3.572   0.177  -3.069  0.00  0.00    +0.182 A 
ATOM      5  N   UNL     1       3.562   0.979  -1.951  0.00  0.00    -0.224 N 
ENDROOT
BRANCH   4   6
ATOM      6  C   UNL     1       4.718  -0.058  -3.971  0.00  0.00    +0.021 A 
ATOM      7  C   UNL     1       6.008   0.296  -3.571  0.00  0.00    +0.015 A 
ATOM      8  C   UNL     1       7.075   0.071  -4.414  0.00  0.00    +0.046 A 
ATOM      9  C   UNL     1       6.868  -0.497  -5.664  0.00  0.00    +0.127 A 
ATOM     10  C   UNL     1       5.586  -0.846  -6.068  0.00  0.00    +0.046 A 
ATOM     11  C   UNL     1       4.514  -0.629  -5.229  0.00  0.00    +0.015 A 
BRANCH   9  12
ATOM     12  O   UNL     1       7.922  -0.712  -6.494  0.00  0.00    -0.434 OA
BRANCH  12  13
ATOM     13  C   UNL     1       9.213  -0.330  -6.016  0.00  0.00    +0.541 C 
ATOM     14  F   UNL     1       9.222   1.042  -5.744  0.00  0.00    -0.166 F 
ATOM     15  F   UNL     1       9.505  -1.039  -4.846  0.00  0.00    -0.166 F 
ENDBRANCH  12  13
ENDBRANCH   9  12
ENDBRANCH   4   6
BRANCH   5  16
ATOM     16  N   UNL     1       4.600   1.714  -1.453  0.00  0.00    -0.295 N 
ATOM     17  H   UNL     1       5.142   1.174  -0.795  0.00  0.00    +0.163 HD
ATOM     18  H   UNL     1       5.182   2.067  -2.197  0.00  0.00    +0.163 HD
ENDBRANCH   5  16
BRANCH   1  19
ATOM     19  S   UNL     1       1.688   1.697  -0.001  0.00  0.00    -0.072 S 
BRANCH  19  21
ATOM     20  C   UNL     1      -0.750   1.620  -1.231  0.00  0.00    +0.029 C 
ATOM     21  C   UNL     1      -0.017   1.091   0.004  0.00  0.00    +0.137 C 
BRANCH  21  22
ATOM     22  C   UNL     1      -0.718   1.572   1.248  0.00  0.00    +0.233 C 
ATOM     23  O   UNL     1      -0.289   2.531   1.853  0.00  0.00    -0.274 OA
ATOM     24  N   UNL     1      -1.822   0.936   1.688  0.00  0.00    -0.270 N 
ATOM     25  C   UNL     1      -2.373  -0.291   1.107  0.00  0.00    +0.118 C 
ATOM     26  C   UNL     1      -3.615  -0.616   1.952  0.00  0.00    +0.056 C 
ATOM     27  C   UNL     1      -3.679   0.495   2.977  0.00  0.00    -0.024 A 
ATOM     28  C   UNL     1      -2.612   1.354   2.763  0.00  0.00    +0.040 A 
ATOM     29  C   UNL     1      -2.461   2.466   3.593  0.00  0.00    +0.024 A 
ATOM     30  C   UNL     1      -3.362   2.702   4.611  0.00  0.00    +0.002 A 
ATOM     31  C   UNL     1      -4.422   1.839   4.815  0.00  0.00    +0.000 A 
ATOM     32  C   UNL     1      -4.580   0.736   3.996  0.00  0.00    +0.005 A 
ENDBRANCH  21  22
ENDBRANCH  19  21
ENDBRANCH   1  19
TORSDOF 7
