REMARK  Name = ZINC03338134
REMARK  11 active torsions:
REMARK  status: ('A' for Active; 'I' for Inactive)
REMARK    1  A    between atoms: C_1  and  C_2
REMARK    2  A    between atoms: C_2  and  O_3
REMARK    3  A    between atoms: O_3  and  C_4
REMARK    4  A    between atoms: C_4  and  C_6
REMARK    5  A    between atoms: C_10  and  N_11
REMARK    6  A    between atoms: C_12  and  C_14
REMARK    7  A    between atoms: C_14  and  N_15
REMARK    8  A    between atoms: C_18  and  C_22
REMARK    9  A    between atoms: C_18  and  C_23
REMARK   10  A    between atoms: C_26  and  C_29
REMARK   11  A    between atoms: C_31  and  C_35
REMARK                            x       y       z     vdW  Elec       q    Type
REMARK                         _______ _______ _______ _____ _____    ______ ____
ROOT
ATOM      1  N   UNL     1      -1.177  -1.125   5.076  0.00  0.00    -0.278 N 
ATOM      2  C   UNL     1      -1.379  -2.245   5.800  0.00  0.00    +0.236 C 
ATOM      3  O   UNL     1      -0.727  -2.444   6.803  0.00  0.00    -0.274 OA
ATOM      4  H   UNL     1      -1.698  -0.966   4.274  0.00  0.00    +0.155 HD
ENDROOT
BRANCH   1   9
ATOM      5  C   UNL     1       0.124   0.998   4.873  0.00  0.00    +0.091 A 
ATOM      6  C   UNL     1       1.169   1.788   5.502  0.00  0.00    -0.021 A 
ATOM      7  C   UNL     1       1.687   1.261   6.633  0.00  0.00    -0.004 A 
ATOM      8  S   UNL     1       0.817  -0.264   6.862  0.00  0.00    -0.077 S 
ATOM      9  C   UNL     1      -0.226  -0.202   5.479  0.00  0.00    +0.086 A 
ATOM     10  C   UNL     1       2.765   1.848   7.491  0.00  0.00    +0.046 C 
ATOM     11  C   UNL     1       3.470   2.956   6.690  0.00  0.00    -0.009 C 
ATOM     12  C   UNL     1       2.402   3.865   6.075  0.00  0.00    +0.008 C 
ATOM     13  C   UNL     1       1.666   3.122   4.958  0.00  0.00    +0.037 C 
ATOM     14  C   UNL     1       4.362   3.773   7.627  0.00  0.00    +0.008 C 
BRANCH   5  15
ATOM     15  C   UNL     1      -0.533   1.447   3.644  0.00  0.00    +0.342 C 
ATOM     16  O   UNL     1      -1.534   2.135   3.705  0.00  0.00    -0.245 OA
BRANCH  15  17
ATOM     17  O   UNL     1      -0.027   1.098   2.443  0.00  0.00    -0.461 OA
BRANCH  17  19
ATOM     18  C   UNL     1      -0.013   1.086   0.008  0.00  0.00    +0.048 C 
ATOM     19  C   UNL     1      -0.729   1.579   1.267  0.00  0.00    +0.229 C 
ENDBRANCH  17  19
ENDBRANCH  15  17
ENDBRANCH   5  15
ENDBRANCH   1   9
BRANCH   2  20
ATOM     20  C   UNL     1      -2.414  -3.249   5.362  0.00  0.00    +0.214 C 
BRANCH  20  21
ATOM     21  N   UNL     1      -2.440  -4.367   6.307  0.00  0.00    -0.215 N 
ATOM     22  C   UNL     1      -1.686  -5.478   6.187  0.00  0.00    +0.251 C 
ATOM     23  O   UNL     1      -0.889  -5.731   5.309  0.00  0.00    -0.272 OA
ATOM     24  C   UNL     1      -2.041  -6.345   7.378  0.00  0.00    +0.135 C 
ATOM     25  N   UNL     1      -3.054  -5.551   8.095  0.00  0.00    -0.281 N 
ATOM     26  C   UNL     1      -3.219  -4.415   7.394  0.00  0.00    +0.310 C 
ATOM     27  O   UNL     1      -3.990  -3.531   7.712  0.00  0.00    -0.252 OA
ATOM     28  C   UNL     1      -2.632  -7.677   6.912  0.00  0.00    +0.047 C 
ATOM     29  H   UNL     1      -3.512  -5.799   8.913  0.00  0.00    +0.152 HD
BRANCH  24  30
ATOM     30  C   UNL     1      -0.835  -6.579   8.252  0.00  0.00    -0.015 A 
ATOM     31  C   UNL     1       0.419  -6.695   7.682  0.00  0.00    +0.006 A 
ATOM     32  C   UNL     1       1.525  -6.904   8.483  0.00  0.00    +0.004 A 
ATOM     33  C   UNL     1       1.377  -7.008   9.854  0.00  0.00    -0.050 A 
ATOM     34  C   UNL     1       0.122  -6.897  10.423  0.00  0.00    +0.004 A 
ATOM     35  C   UNL     1      -0.984  -6.683   9.622  0.00  0.00    +0.006 A 
ATOM     36  C   UNL     1       2.583  -7.242  10.727  0.00  0.00    +0.044 C 
ENDBRANCH  24  30
ENDBRANCH  20  21
ENDBRANCH   2  20
TORSDOF 7
