REMARK  Name = ZINC40013667
REMARK  13 active torsions:
REMARK  status: ('A' for Active; 'I' for Inactive)
REMARK    1  A    between atoms: C_1  and  C_2
REMARK    2  A    between atoms: C_2  and  C_3
REMARK    3  A    between atoms: C_3  and  C_4
REMARK    4  A    between atoms: C_4  and  N_5
REMARK    5  A    between atoms: N_5  and  C_6
REMARK    6  A    between atoms: N_5  and  C_10
REMARK    7  A    between atoms: C_6  and  C_7
REMARK    8  A    between atoms: C_7  and  C_8
REMARK    9  A    between atoms: C_8  and  C_9
REMARK   10  A    between atoms: C_10  and  C_11
REMARK   11  A    between atoms: C_11  and  C_12
REMARK   12  A    between atoms: C_12  and  N_13
REMARK   13  A    between atoms: C_14  and  C_30
REMARK                            x       y       z     vdW  Elec       q    Type
REMARK                         _______ _______ _______ _____ _____    ______ ____
ROOT
ATOM      1  N   UNL     1      -1.577  -6.024   3.382  0.00  0.00    -0.284 N 
ATOM      2  C   UNL     1      -0.151  -6.317   3.599  0.00  0.00    +0.144 C 
ATOM      3  C   UNL     1       0.008  -6.503   5.072  0.00  0.00    +0.072 A 
ATOM      4  C   UNL     1       1.186  -6.822   5.884  0.00  0.00    +0.199 A 
ATOM      5  O   UNL     1       2.322  -6.819   5.442  0.00  0.00    -0.287 OA
ATOM      6  C   UNL     1       0.864  -7.148   7.296  0.00  0.00    +0.067 A 
ATOM      7  C   UNL     1       1.846  -7.664   8.143  0.00  0.00    +0.053 A 
ATOM      8  C   UNL     1       1.528  -7.966   9.450  0.00  0.00    +0.124 A 
ATOM      9  C   UNL     1       0.235  -7.757   9.918  0.00  0.00    +0.042 A 
ATOM     10  C   UNL     1      -0.740  -7.247   9.091  0.00  0.00    +0.050 A 
ATOM     11  C   UNL     1      -0.442  -6.931   7.765  0.00  0.00    +0.140 A 
ATOM     12  O   UNL     1      -1.417  -6.422   6.978  0.00  0.00    -0.450 OA
ATOM     13  C   UNL     1      -1.218  -6.327   5.648  0.00  0.00    +0.199 A 
ATOM     14  C   UNL     1      -2.191  -6.027   4.583  0.00  0.00    +0.283 C 
ATOM     15  O   UNL     1      -3.374  -5.816   4.760  0.00  0.00    -0.267 OA
ATOM     16  F   UNL     1       2.472  -8.465  10.277  0.00  0.00    -0.205 F 
ENDROOT
BRANCH   2  17
ATOM     17  C   UNL     1       0.694  -5.163   3.125  0.00  0.00    -0.022 A 
ATOM     18  C   UNL     1       0.286  -3.864   3.363  0.00  0.00    +0.007 A 
ATOM     19  C   UNL     1       1.061  -2.805   2.929  0.00  0.00    +0.020 A 
ATOM     20  C   UNL     1       2.245  -3.045   2.256  0.00  0.00    +0.041 A 
ATOM     21  C   UNL     1       2.654  -4.345   2.018  0.00  0.00    +0.020 A 
ATOM     22  C   UNL     1       1.881  -5.403   2.458  0.00  0.00    +0.007 A 
ATOM     23 CL   UNL     1       3.219  -1.715   1.710  0.00  0.00    -0.084 Cl
ENDBRANCH   2  17
BRANCH   1  24
ATOM     24  C   UNL     1      -2.217  -5.768   2.089  0.00  0.00    +0.107 C 
BRANCH  24  25
ATOM     25  C   UNL     1      -2.166  -4.270   1.783  0.00  0.00    +0.000 C 
BRANCH  25  26
ATOM     26  C   UNL     1      -2.834  -4.003   0.432  0.00  0.00    -0.077 C 
BRANCH  26  27
ATOM     27  N   UNL     1      -2.785  -2.565   0.138  0.00  0.00    +0.380 N 
ATOM     28  H   UNL     1      -3.201  -2.051   0.901  0.00  0.00    -0.082 HD
BRANCH  27  29
ATOM     29  C   UNL     1      -1.387  -2.147  -0.030  0.00  0.00    -0.079 C 
BRANCH  29  30
ATOM     30  C   UNL     1      -1.326  -0.627  -0.196  0.00  0.00    -0.019 C 
BRANCH  30  32
ATOM     31  C   UNL     1       0.197   1.343  -0.404  0.00  0.00    +0.004 C 
ATOM     32  C   UNL     1       0.136  -0.177  -0.238  0.00  0.00    -0.005 C 
ENDBRANCH  30  32
ENDBRANCH  29  30
ENDBRANCH  27  29
BRANCH  27  33
ATOM     33  C   UNL     1      -3.530  -2.292  -1.098  0.00  0.00    -0.079 C 
BRANCH  33  34
ATOM     34  C   UNL     1      -5.014  -2.593  -0.876  0.00  0.00    -0.019 C 
BRANCH  34  35
ATOM     35  C   UNL     1      -5.809  -2.184  -2.119  0.00  0.00    -0.005 C 
ATOM     36  C   UNL     1      -7.293  -2.484  -1.897  0.00  0.00    +0.004 C 
ENDBRANCH  34  35
ENDBRANCH  33  34
ENDBRANCH  27  33
ENDBRANCH  26  27
ENDBRANCH  25  26
ENDBRANCH  24  25
ENDBRANCH   1  24
TORSDOF 11
