REMARK  Name = ZINC59293997
REMARK  10 active torsions:
REMARK  status: ('A' for Active; 'I' for Inactive)
REMARK    1  A    between atoms: C_1  and  C_2
REMARK    2  A    between atoms: C_2  and  O_3
REMARK    3  A    between atoms: O_3  and  C_4
REMARK    4  A    between atoms: C_4  and  C_6
REMARK    5  A    between atoms: C_7  and  N_30
REMARK    6  A    between atoms: C_11  and  C_26
REMARK    7  A    between atoms: C_15  and  C_24
REMARK    8  A    between atoms: C_16  and  C_18
REMARK    9  A    between atoms: C_19  and  C_23
REMARK   10  A    between atoms: C_26  and  C_27
REMARK                            x       y       z     vdW  Elec       q    Type
REMARK                         _______ _______ _______ _____ _____    ______ ____
ROOT
ATOM      1  C   UNL     1       1.497  -2.319  -2.424  0.00  0.00    +0.085 C 
ATOM      2  C   UNL     1       1.593  -3.669  -2.546  0.00  0.00    +0.106 C 
ATOM      3  N   UNL     1       2.216  -4.209  -3.681  0.00  0.00    -0.220 N 
ATOM      4  C   UNL     1       2.072  -5.480  -4.062  0.00  0.00    +0.239 C 
ATOM      5  O   UNL     1       1.341  -6.243  -3.467  0.00  0.00    -0.274 OA
ATOM      6  C   UNL     1       2.868  -5.923  -5.279  0.00  0.00    +0.150 C 
ATOM      7  S   UNL     1       3.910  -4.422  -5.537  0.00  0.00    -0.095 S 
ATOM      8  C   UNL     1       2.997  -3.349  -4.460  0.00  0.00    +0.091 C 
ATOM      9  C   UNL     1       2.985  -2.003  -4.384  0.00  0.00    +0.070 C 
ATOM     10  C   UNL     1       1.957  -1.356  -3.479  0.00  0.00    +0.109 C 
ENDROOT
BRANCH  10  11
ATOM     11  C   UNL     1       0.772  -0.917  -4.301  0.00  0.00    +0.005 A 
ATOM     12  C   UNL     1       0.279   0.332  -4.489  0.00  0.00    -0.039 A 
ATOM     13  C   UNL     1      -0.831   0.499  -5.295  0.00  0.00    +0.011 A 
ATOM     14  C   UNL     1      -1.394  -0.589  -5.873  0.00  0.00    +0.046 A 
ATOM     15  S   UNL     1      -0.342  -1.906  -5.285  0.00  0.00    -0.100 S 
ATOM     16  C   UNL     1       0.932   1.519  -3.829  0.00  0.00    +0.044 C 
ENDBRANCH  10  11
BRANCH   2  17
ATOM     17  N   UNL     1       1.089  -4.492  -1.573  0.00  0.00    -0.345 N 
ATOM     18  H   UNL     1       0.543  -4.123  -0.860  0.00  0.00    +0.143 HD
ATOM     19  H   UNL     1       1.277  -5.443  -1.597  0.00  0.00    +0.143 HD
ENDBRANCH   2  17
BRANCH   1  20
ATOM     20  C   UNL     1       0.931  -1.797  -1.251  0.00  0.00    +0.339 C 
ATOM     21  O   UNL     1      -0.208  -1.365  -1.263  0.00  0.00    -0.245 OA
BRANCH  20  22
ATOM     22  O   UNL     1       1.650  -1.774  -0.107  0.00  0.00    -0.462 OA
BRANCH  22  24
ATOM     23  C   UNL     1       1.973  -1.286   2.238  0.00  0.00    +0.048 C 
ATOM     24  C   UNL     1       1.011  -1.228   1.049  0.00  0.00    +0.229 C 
ENDBRANCH  22  24
ENDBRANCH  20  22
ENDBRANCH   1  20
BRANCH   9  25
ATOM     25  C   UNL     1       3.911  -1.212  -5.137  0.00  0.00    +0.098 C 
ATOM     26  N   UNL     1       4.646  -0.584  -5.734  0.00  0.00    -0.191 NA
ENDBRANCH   9  25
BRANCH   6  27
ATOM     27  C   UNL     1       1.955  -6.181  -6.479  0.00  0.00    +0.149 C 
BRANCH  27  28
ATOM     28  C   UNL     1       2.768  -6.733  -7.621  0.00  0.00    +0.358 C 
ATOM     29  O   UNL     1       3.968  -6.905  -7.487  0.00  0.00    -0.246 OA
ATOM     30  O   UNL     1       2.227  -7.009  -8.678  0.00  0.00    -0.246 OA
ENDBRANCH  27  28
ENDBRANCH   6  27
TORSDOF 8
