REMARK  Name = ZINC33328937
REMARK  8 active torsions:
REMARK  status: ('A' for Active; 'I' for Inactive)
REMARK    1  A    between atoms: C_1  and  C_2
REMARK    2  A    between atoms: C_3  and  C_32
REMARK    3  A    between atoms: C_5  and  N_9
REMARK    4  A    between atoms: C_6  and  C_7
REMARK    5  A    between atoms: C_10  and  C_12
REMARK    6  A    between atoms: C_12  and  S_13
REMARK    7  A    between atoms: S_13  and  C_14
REMARK    8  A    between atoms: C_19  and  C_27
REMARK                            x       y       z     vdW  Elec       q    Type
REMARK                         _______ _______ _______ _____ _____    ______ ____
ROOT
ATOM      1  C   UNL     1      -3.366  -0.658  -0.969  0.00  0.00    +0.198 A 
ATOM      2  N   UNL     1      -2.808  -1.809  -1.274  0.00  0.00    -0.122 NA
ATOM      3  N   UNL     1      -1.553  -1.786  -0.986  0.00  0.00    -0.128 NA
ATOM      4  C   UNL     1      -1.235  -0.621  -0.482  0.00  0.00    +0.173 A 
ATOM      5  N   UNL     1      -2.388   0.141  -0.455  0.00  0.00    -0.251 N 
ATOM      6  C   UNL     1      -2.351   1.428   0.032  0.00  0.00    +0.185 A 
ATOM      7  N   UNL     1      -1.252   1.978   0.487  0.00  0.00    -0.226 NA
ATOM      8  C   UNL     1      -0.067   1.322   0.500  0.00  0.00    +0.077 A 
ATOM      9  C   UNL     1       0.000  -0.007   0.021  0.00  0.00    +0.045 A 
ATOM     10  C   UNL     1       1.211  -0.693   0.035  0.00  0.00    +0.014 A 
ATOM     11  C   UNL     1       2.342  -0.069   0.519  0.00  0.00    +0.001 A 
ATOM     12  C   UNL     1       2.282   1.234   0.990  0.00  0.00    +0.002 A 
ATOM     13  C   UNL     1       1.093   1.931   0.985  0.00  0.00    +0.028 A 
ENDROOT
BRANCH   6  14
ATOM     14  C   UNL     1      -3.591   2.212   0.048  0.00  0.00    +0.170 A 
ATOM     15  C   UNL     1      -3.690   3.561  -0.135  0.00  0.00    +0.053 A 
ATOM     16  C   UNL     1      -5.054   3.883  -0.042  0.00  0.00    +0.042 A 
ATOM     17  C   UNL     1      -5.718   2.732   0.199  0.00  0.00    +0.196 A 
ATOM     18  O   UNL     1      -4.833   1.727   0.253  0.00  0.00    -0.460 OA
ENDBRANCH   6  14
BRANCH   1  19
ATOM     19  S   UNL     1      -5.061  -0.229  -1.186  0.00  0.00    -0.076 S 
BRANCH  19  20
ATOM     20  C   UNL     1      -5.687  -1.770  -1.899  0.00  0.00    +0.173 C 
BRANCH  20  22
ATOM     21  N   UNL     1      -7.846  -2.663  -2.711  0.00  0.00    -0.278 N 
ATOM     22  C   UNL     1      -7.162  -1.633  -2.176  0.00  0.00    +0.228 C 
ATOM     23  O   UNL     1      -7.734  -0.595  -1.916  0.00  0.00    -0.275 OA
ATOM     24  H   UNL     1      -7.327  -3.604  -2.947  0.00  0.00    +0.155 HD
BRANCH  21  29
ATOM     25  C   UNL     1     -12.479  -4.012  -4.243  0.00  0.00    +0.046 C 
ATOM     26  C   UNL     1     -11.449  -3.076  -3.665  0.00  0.00    -0.021 A 
ATOM     27  C   UNL     1     -11.775  -1.830  -3.273  0.00  0.00    -0.007 A 
ATOM     28  S   UNL     1     -10.231  -1.172  -2.677  0.00  0.00    -0.077 S 
ATOM     29  C   UNL     1      -9.205  -2.537  -2.966  0.00  0.00    +0.090 A 
ATOM     30  C   UNL     1     -10.072  -3.476  -3.509  0.00  0.00    +0.083 A 
ATOM     31  C   UNL     1     -13.122  -1.157  -3.320  0.00  0.00    +0.052 C 
BRANCH  30  32
ATOM     32  C   UNL     1      -9.620  -4.779  -3.895  0.00  0.00    +0.102 C 
ATOM     33  N   UNL     1      -9.263  -5.813  -4.201  0.00  0.00    -0.191 NA
ENDBRANCH  30  32
ENDBRANCH  21  29
ENDBRANCH  20  22
ENDBRANCH  19  20
ENDBRANCH   1  19
TORSDOF 6
