REMARK  Name = ZINC00926107
REMARK  7 active torsions:
REMARK  status: ('A' for Active; 'I' for Inactive)
REMARK    1  A    between atoms: C_1  and  C_2
REMARK    2  A    between atoms: C_7  and  C_14
REMARK    3  A    between atoms: C_14  and  N_63
REMARK    4  A    between atoms: C_15  and  C_16
REMARK    5  A    between atoms: C_15  and  N_63
REMARK    6  A    between atoms: N_20  and  C_21
REMARK    7  A    between atoms: C_26  and  N_63
REMARK                            x       y       z     vdW  Elec       q    Type
REMARK                         _______ _______ _______ _____ _____    ______ ____
ROOT
ATOM      1  N   UNL     1      -0.237   0.087  -0.133  0.00  0.00    +0.389 N 
ATOM      2  H   UNL     1      -1.188  -0.298  -0.177  0.00  0.00    -0.080 HD
ENDROOT
BRANCH   1   3
ATOM      3  C   UNL     1       0.428  -0.415   1.088  0.00  0.00    -0.068 C 
ATOM      4  C   UNL     1      -0.597  -0.451   2.224  0.00  0.00    -0.015 C 
ATOM      5  C   UNL     1       0.068  -0.986   3.494  0.00  0.00    -0.002 C 
ATOM      6  C   UNL     1       1.230  -0.071   3.885  0.00  0.00    -0.000 C 
ATOM      7  C   UNL     1       2.255  -0.034   2.749  0.00  0.00    -0.002 C 
ATOM      8  C   UNL     1       1.590   0.500   1.479  0.00  0.00    -0.015 C 
ENDBRANCH   1   3
BRANCH   1   9
ATOM      9  C   UNL     1       0.513  -0.345  -1.331  0.00  0.00    -0.037 C 
BRANCH   9  16
ATOM     10  C   UNL     1      -1.563  -7.838  -3.112  0.00  0.00    +0.044 C 
ATOM     11  C   UNL     1      -1.346  -6.359  -2.917  0.00  0.00    -0.048 A 
ATOM     12  C   UNL     1      -2.167  -5.452  -3.573  0.00  0.00    +0.004 A 
ATOM     13  C   UNL     1      -1.987  -4.108  -3.410  0.00  0.00    +0.010 A 
ATOM     14  C   UNL     1      -0.966  -3.641  -2.575  0.00  0.00    -0.001 A 
ATOM     15  C   UNL     1      -0.750  -2.207  -2.373  0.00  0.00    +0.017 A 
ATOM     16  C   UNL     1       0.259  -1.814  -1.556  0.00  0.00    +0.001 A 
ATOM     17  C   UNL     1       1.068  -2.774  -0.912  0.00  0.00    +0.251 A 
ATOM     18  O   UNL     1       1.965  -2.398  -0.177  0.00  0.00    -0.268 OA
ATOM     19  N   UNL     1       0.873  -4.093  -1.087  0.00  0.00    -0.322 N 
ATOM     20  H   UNL     1       1.465  -4.745  -0.615  0.00  0.00    +0.169 HD
ATOM     21  C   UNL     1      -0.131  -4.558  -1.909  0.00  0.00    +0.049 A 
ATOM     22  C   UNL     1      -0.333  -5.922  -2.091  0.00  0.00    +0.029 A 
ENDBRANCH   9  16
ENDBRANCH   1   9
BRANCH   1  23
ATOM     23  C   UNL     1      -0.318   1.563  -0.093  0.00  0.00    +0.001 C 
BRANCH  23  24
ATOM     24  C   UNL     1      -1.390   1.962   0.888  0.00  0.00    +0.135 A 
ATOM     25  N   UNL     1      -1.210   2.372   2.120  0.00  0.00    -0.115 NA
ATOM     26  N   UNL     1      -2.367   2.616   2.631  0.00  0.00    -0.023 NA
ATOM     27  N   UNL     1      -3.280   2.374   1.757  0.00  0.00    -0.044 NA
ATOM     28  N   UNL     1      -2.718   1.973   0.667  0.00  0.00    -0.228 N 
BRANCH  28  29
ATOM     29  C   UNL     1      -3.396   1.598  -0.575  0.00  0.00    +0.111 C 
ATOM     30  C   UNL     1      -4.247   2.777  -1.090  0.00  0.00    +0.027 C 
ATOM     31  C   UNL     1      -5.515   2.104  -1.674  0.00  0.00    +0.002 C 
ATOM     32  C   UNL     1      -5.777   0.947  -0.679  0.00  0.00    +0.002 C 
ATOM     33  C   UNL     1      -4.369   0.434  -0.314  0.00  0.00    +0.027 C 
ENDBRANCH  28  29
ENDBRANCH  23  24
ENDBRANCH   1  23
TORSDOF 6
