REMARK  Name = ZINC06196650
REMARK  12 active torsions:
REMARK  status: ('A' for Active; 'I' for Inactive)
REMARK    1  A    between atoms: C_1  and  C_2
REMARK    2  A    between atoms: C_2  and  O_3
REMARK    3  A    between atoms: O_3  and  C_4
REMARK    4  A    between atoms: C_11  and  C_16
REMARK    5  A    between atoms: C_16  and  N_17
REMARK    6  A    between atoms: N_17  and  C_18
REMARK    7  A    between atoms: N_17  and  S_27
REMARK    8  A    between atoms: C_18  and  C_19
REMARK    9  A    between atoms: C_19  and  C_20
REMARK   10  A    between atoms: C_25  and  C_26
REMARK   11  A    between atoms: S_27  and  C_30
REMARK   12  A    between atoms: C_35  and  C_36
REMARK                            x       y       z     vdW  Elec       q    Type
REMARK                         _______ _______ _______ _____ _____    ______ ____
ROOT
ATOM      1  N   UNL     1       1.020  -3.595   1.346  0.00  0.00    -0.172 NA
ENDROOT
BRANCH   1   2
ATOM      2  S   UNL     1       2.064  -2.792   2.349  0.00  0.00    +0.061 S 
ATOM      3  O   UNL     1       3.366  -2.972   1.808  0.00  0.00    -0.153 OA
ATOM      4  O   UNL     1       1.504  -1.505   2.572  0.00  0.00    -0.153 OA
BRANCH   2   5
ATOM      5  C   UNL     1       2.044  -3.626   3.900  0.00  0.00    +0.110 A 
ATOM      6  C   UNL     1       3.077  -4.479   4.240  0.00  0.00    +0.048 A 
ATOM      7  C   UNL     1       3.061  -5.134   5.458  0.00  0.00    +0.043 A 
ATOM      8  C   UNL     1       2.010  -4.935   6.336  0.00  0.00    +0.020 A 
ATOM      9  C   UNL     1       0.978  -4.082   5.995  0.00  0.00    +0.007 A 
ATOM     10  C   UNL     1       0.997  -3.424   4.780  0.00  0.00    -0.024 A 
ATOM     11  C   UNL     1      -0.126  -2.489   4.412  0.00  0.00    +0.046 C 
ATOM     12 CL   UNL     1       4.359  -6.205   5.885  0.00  0.00    -0.083 Cl
ENDBRANCH   2   5
ENDBRANCH   1   2
BRANCH   1  13
ATOM     13  C   UNL     1       1.525  -4.624   0.434  0.00  0.00    +0.150 C 
BRANCH  13  21
ATOM     14  C   UNL     1       4.858  -2.042  -4.111  0.00  0.00    +0.121 A 
ATOM     15  C   UNL     1       3.799  -1.887  -5.003  0.00  0.00    +0.047 A 
ATOM     16  C   UNL     1       2.528  -2.291  -4.661  0.00  0.00    +0.030 A 
ATOM     17  C   UNL     1       2.292  -2.860  -3.414  0.00  0.00    +0.049 A 
ATOM     18  C   UNL     1       3.358  -3.018  -2.509  0.00  0.00    +0.002 A 
ATOM     19  C   UNL     1       4.645  -2.604  -2.869  0.00  0.00    +0.055 A 
ATOM     20  C   UNL     1       3.096  -3.619  -1.200  0.00  0.00    +0.020 A 
ATOM     21  C   UNL     1       1.829  -4.002  -0.905  0.00  0.00    +0.033 A 
ATOM     22  C   UNL     1       0.794  -3.821  -1.847  0.00  0.00    +0.254 A 
ATOM     23  O   UNL     1      -0.338  -4.173  -1.562  0.00  0.00    -0.268 OA
ATOM     24  N   UNL     1       1.025  -3.271  -3.052  0.00  0.00    -0.322 N 
ATOM     25  H   UNL     1       0.268  -3.158  -3.696  0.00  0.00    +0.169 HD
BRANCH  14  26
ATOM     26  O   UNL     1       6.106  -1.637  -4.466  0.00  0.00    -0.492 OA
BRANCH  26  28
ATOM     27  C   UNL     1       7.720  -0.671  -5.984  0.00  0.00    +0.048 C 
ATOM     28  C   UNL     1       6.257  -1.063  -5.766  0.00  0.00    +0.225 C 
ENDBRANCH  26  28
ENDBRANCH  14  26
ENDBRANCH  13  21
ENDBRANCH   1  13
BRANCH   1  29
ATOM     29  C   UNL     1      -0.410  -3.278   1.372  0.00  0.00    +0.114 C 
BRANCH  29  30
ATOM     30  C   UNL     1      -1.188  -4.471   1.930  0.00  0.00    +0.052 C 
BRANCH  30  31
ATOM     31  C   UNL     1      -2.646  -4.110   2.049  0.00  0.00    -0.043 A 
ATOM     32  C   UNL     1      -3.152  -3.665   3.256  0.00  0.00    +0.004 A 
ATOM     33  C   UNL     1      -4.488  -3.329   3.364  0.00  0.00    +0.000 A 
ATOM     34  C   UNL     1      -5.321  -3.448   2.267  0.00  0.00    +0.000 A 
ATOM     35  C   UNL     1      -4.817  -3.897   1.061  0.00  0.00    +0.003 A 
ATOM     36  C   UNL     1      -3.479  -4.228   0.952  0.00  0.00    -0.047 A 
ATOM     37  C   UNL     1      -2.929  -4.719  -0.362  0.00  0.00    +0.044 C 
ENDBRANCH  30  31
ENDBRANCH  29  30
ENDBRANCH   1  29
TORSDOF 9
