REMARK  Name = ZINC67292308
REMARK  7 active torsions:
REMARK  status: ('A' for Active; 'I' for Inactive)
REMARK    1  A    between atoms: C_1  and  C_2
REMARK    2  A    between atoms: C_2  and  O_3
REMARK    3  A    between atoms: O_3  and  C_4
REMARK    4  A    between atoms: C_7  and  N_10
REMARK    5  A    between atoms: C_12  and  C_22
REMARK    6  A    between atoms: N_24  and  C_25
REMARK    7  A    between atoms: C_25  and  C_26
REMARK                            x       y       z     vdW  Elec       q    Type
REMARK                         _______ _______ _______ _____ _____    ______ ____
ROOT
ATOM      1  N   UNL     1       1.131  -5.931   1.742  0.00  0.00    -0.325 N 
ATOM      2  C   UNL     1       2.280  -6.462   2.099  0.00  0.00    +0.212 A 
ATOM      3  C   UNL     1       2.399  -7.909   2.368  0.00  0.00    +0.097 A 
ATOM      4  C   UNL     1       3.647  -8.487   2.178  0.00  0.00    +0.030 A 
ATOM      5  C   UNL     1       4.732  -7.613   1.727  0.00  0.00    +0.019 A 
ATOM      6  C   UNL     1       5.937  -8.150   1.259  0.00  0.00    +0.026 A 
ATOM      7  C   UNL     1       6.941  -7.306   0.839  0.00  0.00    +0.019 A 
ATOM      8  C   UNL     1       6.763  -5.930   0.877  0.00  0.00    +0.019 A 
ATOM      9  C   UNL     1       5.581  -5.386   1.337  0.00  0.00    +0.048 A 
ATOM     10  C   UNL     1       4.557  -6.217   1.767  0.00  0.00    +0.137 A 
ATOM     11  O   UNL     1       3.395  -5.697   2.224  0.00  0.00    -0.439 OA
ATOM     12 BR   UNL     1       8.571  -8.027   0.206  0.00  0.00    -0.050 Br
ATOM     13  H   UNL     1       0.366  -6.501   1.572  0.00  0.00    +0.169 HD
ENDROOT
BRANCH   1  17
ATOM     14  C   UNL     1       0.781  -1.825   1.348  0.00  0.00    +0.121 A 
ATOM     15  C   UNL     1       0.249  -2.661   0.377  0.00  0.00    +0.047 A 
ATOM     16  C   UNL     1       0.363  -4.029   0.503  0.00  0.00    +0.029 A 
ATOM     17  C   UNL     1       1.016  -4.573   1.612  0.00  0.00    +0.042 A 
ATOM     18  C   UNL     1       1.550  -3.728   2.587  0.00  0.00    +0.029 A 
ATOM     19  C   UNL     1       1.435  -2.361   2.449  0.00  0.00    +0.047 A 
BRANCH  14  20
ATOM     20  O   UNL     1       0.666  -0.476   1.219  0.00  0.00    -0.492 OA
BRANCH  20  22
ATOM     21  C   UNL     1      -0.049   1.538   0.091  0.00  0.00    +0.048 C 
ATOM     22  C   UNL     1      -0.020   0.009   0.062  0.00  0.00    +0.225 C 
ENDBRANCH  20  22
ENDBRANCH  14  20
ENDBRANCH   1  17
BRANCH   3  23
ATOM     23  C   UNL     1       1.244  -8.704   2.819  0.00  0.00    +0.249 C 
ATOM     24  O   UNL     1       0.144  -8.190   2.893  0.00  0.00    -0.270 OA
ATOM     25  N   UNL     1       1.406 -10.000   3.150  0.00  0.00    -0.309 N 
ATOM     26  H   UNL     1       2.294 -10.390   3.162  0.00  0.00    +0.149 HD
BRANCH  25  27
ATOM     27  C   UNL     1       0.241 -10.820   3.490  0.00  0.00    +0.136 C 
BRANCH  27  28
ATOM     28  C   UNL     1       0.698 -12.242   3.823  0.00  0.00    +0.135 C 
ATOM     29  C   UNL     1      -0.524 -13.136   4.152  0.00  0.00    +0.035 C 
ATOM     30  C   UNL     1       0.041 -14.543   3.814  0.00  0.00    +0.031 C 
ATOM     31  C   UNL     1       0.976 -14.243   2.623  0.00  0.00    +0.160 C 
ATOM     32  O   UNL     1       1.312 -12.850   2.676  0.00  0.00    -0.375 OA
ENDBRANCH  27  28
ENDBRANCH  25  27
ENDBRANCH   3  23
TORSDOF 6
