REMARK  Name = ZINC22789957
REMARK  8 active torsions:
REMARK  status: ('A' for Active; 'I' for Inactive)
REMARK    1  A    between atoms: C_1  and  C_2
REMARK    2  A    between atoms: C_2  and  C_3
REMARK    3  A    between atoms: C_4  and  C_31
REMARK    4  A    between atoms: C_6  and  C_8
REMARK    5  A    between atoms: C_11  and  C_13
REMARK    6  A    between atoms: C_13  and  N_14
REMARK    7  A    between atoms: N_17  and  C_20
REMARK    8  A    between atoms: C_20  and  C_21
REMARK                            x       y       z     vdW  Elec       q    Type
REMARK                         _______ _______ _______ _____ _____    ______ ____
ROOT
ATOM      1  N   UNL     1      -4.875   3.997   3.707  0.00  0.00    -0.297 NA
ATOM      2  C   UNL     1      -4.703   4.902   2.562  0.00  0.00    +0.066 C 
ATOM      3  C   UNL     1      -4.713   4.089   1.265  0.00  0.00    -0.063 C 
ATOM      4  N   UNL     1      -3.637   3.090   1.309  0.00  0.00    +0.385 N 
ATOM      5  C   UNL     1      -3.808   2.184   2.453  0.00  0.00    -0.063 C 
ATOM      6  C   UNL     1      -3.798   2.998   3.750  0.00  0.00    +0.066 C 
ATOM      7  H   UNL     1      -2.683   3.623   1.437  0.00  0.00    -0.081 HD
ENDROOT
BRANCH   1   8
ATOM      8  C   UNL     1      -4.946   4.749   4.967  0.00  0.00    +0.182 C 
BRANCH   8  12
ATOM      9  C   UNL     1      -5.403   2.427   7.713  0.00  0.00    +0.255 A 
ATOM     10  N   UNL     1      -4.096   2.575   7.675  0.00  0.00    -0.107 NA
ATOM     11  N   UNL     1      -3.789   3.385   6.724  0.00  0.00    -0.111 NA
ATOM     12  C   UNL     1      -4.875   3.791   6.128  0.00  0.00    +0.232 A 
ATOM     13  O   UNL     1      -5.919   3.196   6.732  0.00  0.00    -0.418 OA
BRANCH   9  17
ATOM     14  C   UNL     1      -7.926   0.187  10.136  0.00  0.00    -0.007 A 
ATOM     15  C   UNL     1      -6.603   0.071  10.419  0.00  0.00    -0.040 A 
ATOM     16  C   UNL     1      -5.689   0.771   9.665  0.00  0.00    +0.024 A 
ATOM     17  C   UNL     1      -6.159   1.582   8.649  0.00  0.00    +0.076 A 
ATOM     18  S   UNL     1      -7.923   1.328   8.763  0.00  0.00    -0.088 S 
ATOM     19  C   UNL     1      -6.139  -0.821  11.542  0.00  0.00    +0.044 C 
BRANCH  14  21
ATOM     20  C   UNL     1      -9.596   0.404  11.957  0.00  0.00    +0.009 C 
ATOM     21  C   UNL     1      -9.099  -0.478  10.809  0.00  0.00    +0.039 C 
ENDBRANCH  14  21
ENDBRANCH   9  17
ENDBRANCH   8  12
ENDBRANCH   1   8
BRANCH   4  22
ATOM     22  C   UNL     1      -3.566   2.338   0.049  0.00  0.00    -0.022 C 
BRANCH  22  23
ATOM     23  C   UNL     1      -2.311   1.503   0.032  0.00  0.00    +0.033 A 
ATOM     24  C   UNL     1      -2.385   0.126   0.025  0.00  0.00    +0.092 A 
ATOM     25  C   UNL     1      -1.213  -0.630   0.010  0.00  0.00    +0.259 A 
ATOM     26  O   UNL     1      -1.272  -1.849   0.005  0.00  0.00    -0.267 OA
ATOM     27  N   UNL     1       0.002  -0.004   0.002  0.00  0.00    -0.262 N 
ATOM     28  C   UNL     1       1.237  -0.607  -0.013  0.00  0.00    +0.104 A 
ATOM     29  C   UNL     1       2.356   0.117  -0.019  0.00  0.00    +0.067 A 
ATOM     30  S   UNL     1       1.713   1.784  -0.005  0.00  0.00    -0.058 S 
ATOM     31  C   UNL     1      -0.017   1.365   0.009  0.00  0.00    +0.180 A 
ATOM     32  N   UNL     1      -1.113   2.081   0.029  0.00  0.00    -0.229 NA
ENDBRANCH  22  23
ENDBRANCH   4  22
TORSDOF 6
