REMARK  Name = ZINC06301588
REMARK  10 active torsions:
REMARK  status: ('A' for Active; 'I' for Inactive)
REMARK    1  A    between atoms: C_1  and  C_2
REMARK    2  A    between atoms: C_4  and  C_38
REMARK    3  A    between atoms: C_7  and  C_14
REMARK    4  A    between atoms: C_14  and  C_16
REMARK    5  A    between atoms: C_14  and  N_67
REMARK    6  A    between atoms: N_20  and  C_21
REMARK    7  A    between atoms: C_26  and  C_27
REMARK    8  A    between atoms: C_26  and  N_67
REMARK    9  A    between atoms: C_32  and  C_33
REMARK   10  A    between atoms: C_32  and  N_67
REMARK                            x       y       z     vdW  Elec       q    Type
REMARK                         _______ _______ _______ _____ _____    ______ ____
ROOT
ATOM      1  C   UNL     1      -3.594   6.470   0.406  0.00  0.00    +0.040 C 
ENDROOT
BRANCH   1   8
ATOM      2  C   UNL     1       3.433   2.914   1.671  0.00  0.00    +0.044 C 
ATOM      3  C   UNL     1       2.013   3.374   1.466  0.00  0.00    -0.048 A 
ATOM      4  C   UNL     1       0.973   2.460   1.567  0.00  0.00    +0.007 A 
ATOM      5  C   UNL     1      -0.321   2.855   1.381  0.00  0.00    -0.041 A 
ATOM      6  C   UNL     1      -0.603   4.196   1.097  0.00  0.00    +0.002 A 
ATOM      7  C   UNL     1      -1.978   4.655   0.897  0.00  0.00    +0.018 A 
ATOM      8  C   UNL     1      -2.190   5.965   0.618  0.00  0.00    +0.011 A 
ATOM      9  C   UNL     1      -1.100   6.857   0.525  0.00  0.00    +0.251 A 
ATOM     10  O   UNL     1      -1.313   8.030   0.273  0.00  0.00    -0.268 OA
ATOM     11  N   UNL     1       0.167   6.444   0.707  0.00  0.00    -0.322 N 
ATOM     12  H   UNL     1       0.892   7.084   0.637  0.00  0.00    +0.169 HD
ATOM     13  C   UNL     1       0.449   5.126   0.993  0.00  0.00    +0.050 A 
ATOM     14  C   UNL     1       1.759   4.699   1.182  0.00  0.00    +0.029 A 
ATOM     15  C   UNL     1      -1.442   1.853   1.487  0.00  0.00    +0.044 C 
ENDBRANCH   1   8
BRANCH   1  16
ATOM     16  C   UNL     1      -3.947   7.444   1.501  0.00  0.00    +0.143 A 
ATOM     17  N   UNL     1      -3.525   8.679   1.615  0.00  0.00    -0.115 NA
ATOM     18  N   UNL     1      -4.050   9.182   2.679  0.00  0.00    -0.023 NA
ATOM     19  N   UNL     1      -4.796   8.299   3.247  0.00  0.00    -0.044 NA
ATOM     20  N   UNL     1      -4.763   7.215   2.547  0.00  0.00    -0.227 N 
BRANCH  20  21
ATOM     21  C   UNL     1      -5.476   5.970   2.838  0.00  0.00    +0.111 C 
ATOM     22  C   UNL     1      -6.994   6.235   2.914  0.00  0.00    +0.027 C 
ATOM     23  C   UNL     1      -7.485   5.307   4.054  0.00  0.00    +0.002 C 
ATOM     24  C   UNL     1      -6.330   5.387   5.083  0.00  0.00    +0.002 C 
ATOM     25  C   UNL     1      -5.054   5.430   4.216  0.00  0.00    +0.027 C 
ENDBRANCH  20  21
ENDBRANCH   1  16
BRANCH   1  26
ATOM     26  N   UNL     1      -3.663   7.167  -0.895  0.00  0.00    +0.397 N 
ATOM     27  H   UNL     1      -3.025   7.971  -0.878  0.00  0.00    -0.079 HD
BRANCH  26  28
ATOM     28  C   UNL     1      -3.252   6.251  -1.981  0.00  0.00    -0.001 C 
BRANCH  28  29
ATOM     29  C   UNL     1      -4.090   4.999  -1.962  0.00  0.00    +0.089 A 
ATOM     30  C   UNL     1      -5.191   4.778  -2.702  0.00  0.00    +0.042 A 
ATOM     31  C   UNL     1      -5.656   3.485  -2.369  0.00  0.00    +0.041 A 
ATOM     32  C   UNL     1      -4.810   2.993  -1.445  0.00  0.00    +0.195 A 
ATOM     33  O   UNL     1      -3.861   3.912  -1.207  0.00  0.00    -0.470 OA
ENDBRANCH  28  29
ENDBRANCH  26  28
BRANCH  26  34
ATOM     34  C   UNL     1      -5.038   7.651  -1.137  0.00  0.00    -0.034 C 
BRANCH  34  35
ATOM     35  C   UNL     1      -5.008   8.654  -2.261  0.00  0.00    -0.027 A 
ATOM     36  C   UNL     1      -5.259   8.466  -3.580  0.00  0.00    +0.009 A 
ATOM     37  C   UNL     1      -5.171   9.545  -4.440  0.00  0.00    +0.008 A 
ATOM     38  C   UNL     1      -4.836  10.759  -3.939  0.00  0.00    +0.045 A 
ATOM     39  S   UNL     1      -4.640  10.400  -2.201  0.00  0.00    -0.103 S 
ENDBRANCH  34  35
ENDBRANCH  26  34
ENDBRANCH   1  26
TORSDOF 8
