REMARK  Name = ZINC06530376
REMARK  7 active torsions:
REMARK  status: ('A' for Active; 'I' for Inactive)
REMARK    1  A    between atoms: C_1  and  C_2
REMARK    2  A    between atoms: C_2  and  O_3
REMARK    3  A    between atoms: O_3  and  C_4
REMARK    4  A    between atoms: C_4  and  C_6
REMARK    5  A    between atoms: C_14  and  C_25
REMARK    6  A    between atoms: C_20  and  N_24
REMARK    7  A    between atoms: C_21  and  C_22
REMARK                            x       y       z     vdW  Elec       q    Type
REMARK                         _______ _______ _______ _____ _____    ______ ____
ROOT
ATOM      1  C   UNL     1       1.109  -1.971   2.243  0.00  0.00    +0.114 C 
ATOM      2  C   UNL     1       0.593  -1.412   3.565  0.00  0.00    +0.016 C 
ATOM      3  C   UNL     1       1.458  -1.810   4.716  0.00  0.00    +0.001 C 
ATOM      4  C   UNL     1       1.466  -3.245   4.893  0.00  0.00    +0.001 C 
ATOM      5  C   UNL     1       1.721  -4.085   3.656  0.00  0.00    +0.018 C 
ATOM      6  C   UNL     1       1.393  -3.519   2.247  0.00  0.00    +0.055 C 
ATOM      7  C   UNL     1       0.217  -4.216   1.667  0.00  0.00    +0.048 A 
ATOM      8  C   UNL     1      -0.943  -4.488   2.254  0.00  0.00    +0.041 A 
ATOM      9  N   UNL     1      -1.726  -5.145   1.302  0.00  0.00    -0.278 N 
ATOM     10  H   UNL     1      -2.686  -5.453   1.468  0.00  0.00    +0.189 HD
ATOM     11  N   UNL     1      -0.946  -5.267   0.153  0.00  0.00    -0.135 NA
ATOM     12  C   UNL     1       0.208  -4.796   0.396  0.00  0.00    +0.245 A 
ATOM     13  O   UNL     1       1.268  -4.665  -0.382  0.00  0.00    -0.422 OA
ATOM     14  C   UNL     1       2.430  -4.308   0.159  0.00  0.00    +0.200 C 
ATOM     15  C   UNL     1       2.535  -3.737   1.362  0.00  0.00    +0.098 C 
ATOM     16  C   UNL     1      -1.490  -4.174   3.629  0.00  0.00    +0.065 C 
ENDROOT
BRANCH  14  17
ATOM     17  N   UNL     1       3.634  -4.505  -0.575  0.00  0.00    -0.328 N 
ATOM     18  H   UNL     1       3.603  -4.897  -1.461  0.00  0.00    +0.145 HD
ATOM     19  H   UNL     1       4.485  -4.247  -0.188  0.00  0.00    +0.145 HD
ENDBRANCH  14  17
BRANCH   1  20
ATOM     20  C   UNL     1       0.264  -1.622   1.048  0.00  0.00    +0.311 C 
ATOM     21  O   UNL     1      -0.935  -1.528   1.162  0.00  0.00    -0.250 OA
BRANCH  20  22
ATOM     22  O   UNL     1       0.842  -1.414  -0.145  0.00  0.00    -0.465 OA
BRANCH  22  24
ATOM     23  C   UNL     1       0.813  -0.888  -2.504  0.00  0.00    +0.048 C 
ATOM     24  C   UNL     1      -0.020  -1.087  -1.236  0.00  0.00    +0.229 C 
ENDBRANCH  22  24
ENDBRANCH  20  22
ENDBRANCH   1  20
BRANCH  15  25
ATOM     25  C   UNL     1       3.888  -3.371   1.716  0.00  0.00    +0.101 C 
ATOM     26  N   UNL     1       4.951  -3.083   1.994  0.00  0.00    -0.191 NA
ENDBRANCH  15  25
TORSDOF 5
