REMARK  Name = ZINC65739327
REMARK  6 active torsions:
REMARK  status: ('A' for Active; 'I' for Inactive)
REMARK    1  A    between atoms: C_1  and  O_2
REMARK    2  A    between atoms: O_2  and  C_3
REMARK    3  A    between atoms: C_3  and  C_5
REMARK    4  A    between atoms: C_14  and  C_16
REMARK    5  A    between atoms: C_19  and  N_25
REMARK    6  A    between atoms: C_20  and  N_22
REMARK                            x       y       z     vdW  Elec       q    Type
REMARK                         _______ _______ _______ _____ _____    ______ ____
ROOT
ATOM      1  C   UNL     1      -1.792  -0.969  -0.372  0.00  0.00    +0.194 C 
ATOM      2  C   UNL     1      -1.423  -1.013  -1.865  0.00  0.00    +0.071 C 
ATOM      3  C   UNL     1      -2.616  -1.660  -2.532  0.00  0.00    -0.024 A 
ATOM      4  C   UNL     1      -2.860  -1.961  -3.858  0.00  0.00    +0.005 A 
ATOM      5  C   UNL     1      -4.048  -2.563  -4.227  0.00  0.00    +0.000 A 
ATOM      6  C   UNL     1      -4.995  -2.862  -3.264  0.00  0.00    +0.002 A 
ATOM      7  C   UNL     1      -4.757  -2.562  -1.940  0.00  0.00    +0.024 A 
ATOM      8  C   UNL     1      -3.559  -1.955  -1.560  0.00  0.00    +0.041 A 
ATOM      9  N   UNL     1      -3.124  -1.572  -0.288  0.00  0.00    -0.253 N 
ATOM     10  C   UNL     1      -3.828  -1.734   0.850  0.00  0.00    +0.252 C 
ATOM     11  O   UNL     1      -4.947  -2.210   0.811  0.00  0.00    -0.270 OA
ENDROOT
BRANCH  10  12
ATOM     12  C   UNL     1      -3.241  -1.334   2.144  0.00  0.00    +0.040 A 
ATOM     13  C   UNL     1      -1.909  -0.917   2.210  0.00  0.00    +0.015 A 
ATOM     14  C   UNL     1      -1.365  -0.544   3.419  0.00  0.00    +0.031 A 
ATOM     15  C   UNL     1      -2.140  -0.581   4.573  0.00  0.00    +0.097 A 
ATOM     16  C   UNL     1      -3.466  -0.995   4.511  0.00  0.00    +0.152 A 
ATOM     17  C   UNL     1      -4.018  -1.365   3.305  0.00  0.00    +0.048 A 
BRANCH  15  18
ATOM     18  N   UNL     1      -1.584  -0.202   5.799  0.00  0.00    -0.218 N 
ATOM     19  C   UNL     1      -0.294   0.104   6.042  0.00  0.00    +0.225 A 
ATOM     20  N   UNL     1      -0.181   0.407   7.310  0.00  0.00    -0.222 NA
ATOM     21  C   UNL     1      -1.369   0.307   7.906  0.00  0.00    +0.245 A 
ATOM     22  N   UNL     1      -2.260  -0.057   7.022  0.00  0.00    -0.153 NA
ENDBRANCH  15  18
BRANCH  16  23
ATOM     23  N   UNL     1      -4.287  -1.034   5.743  0.00  0.00    +0.059 N 
ATOM     24  O   UNL     1      -3.863  -1.581   6.734  0.00  0.00    -0.126 OA
ATOM     25  O   UNL     1      -5.380  -0.518   5.757  0.00  0.00    -0.126 OA
ENDBRANCH  16  23
ENDBRANCH  10  12
BRANCH   1  26
ATOM     26  C   UNL     1      -1.831   0.456   0.115  0.00  0.00    +0.328 C 
ATOM     27  O   UNL     1      -2.872   0.935   0.499  0.00  0.00    -0.249 OA
BRANCH  26  29
ATOM     28  C   UNL     1      -0.820   2.538   0.596  0.00  0.00    +0.280 C 
ATOM     29  O   UNL     1      -0.710   1.195   0.121  0.00  0.00    -0.467 OA
ENDBRANCH  26  29
ENDBRANCH   1  26
TORSDOF 5
