REMARK  Name = ZINC59148621
REMARK  11 active torsions:
REMARK  status: ('A' for Active; 'I' for Inactive)
REMARK    1  A    between atoms: C_1  and  C_2
REMARK    2  A    between atoms: C_2  and  C_4
REMARK    3  A    between atoms: C_2  and  C_14
REMARK    4  A    between atoms: C_7  and  C_10
REMARK    5  A    between atoms: C_10  and  C_11
REMARK    6  A    between atoms: C_11  and  C_12
REMARK    7  A    between atoms: C_11  and  C_13
REMARK    8  A    between atoms: N_16  and  N_17
REMARK    9  A    between atoms: N_25  and  C_28
REMARK   10  A    between atoms: C_28  and  C_29
REMARK   11  A    between atoms: C_29  and  N_30
REMARK                            x       y       z     vdW  Elec       q    Type
REMARK                         _______ _______ _______ _____ _____    ______ ____
ROOT
ATOM      1  N   UNL     1      -3.551  -0.702   1.043  0.00  0.00    -0.175 NA
ATOM      2  C   UNL     1      -4.322  -0.484   2.080  0.00  0.00    +0.153 C 
ATOM      3  C   UNL     1      -4.017   0.338   3.275  0.00  0.00    +0.028 A 
ATOM      4  C   UNL     1      -2.909   1.086   3.658  0.00  0.00    +0.012 A 
ATOM      5  C   UNL     1      -2.922   1.761   4.862  0.00  0.00    +0.001 A 
ATOM      6  C   UNL     1      -4.035   1.693   5.684  0.00  0.00    +0.002 A 
ATOM      7  C   UNL     1      -5.139   0.953   5.312  0.00  0.00    +0.024 A 
ATOM      8  C   UNL     1      -5.144   0.266   4.103  0.00  0.00    +0.046 A 
ATOM      9  N   UNL     1      -6.107  -0.536   3.500  0.00  0.00    -0.267 N 
ATOM     10  C   UNL     1      -5.687  -1.000   2.311  0.00  0.00    +0.271 C 
ATOM     11  O   UNL     1      -6.317  -1.719   1.559  0.00  0.00    -0.268 OA
ENDROOT
BRANCH   1  14
ATOM     12  C   UNL     1      -1.451  -0.408  -0.040  0.00  0.00    +0.239 C 
ATOM     13  O   UNL     1      -1.923  -0.880  -1.053  0.00  0.00    -0.273 OA
ATOM     14  N   UNL     1      -2.213  -0.285   1.065  0.00  0.00    -0.206 N 
ATOM     15  H   UNL     1      -1.836   0.092   1.874  0.00  0.00    +0.177 HD
BRANCH  12  17
ATOM     16  C   UNL     1       0.051   1.534   0.311  0.00  0.00    +0.022 C 
ATOM     17  C   UNL     1      -0.013   0.041  -0.017  0.00  0.00    +0.103 C 
BRANCH  17  18
ATOM     18  C   UNL     1       0.611  -0.204  -1.367  0.00  0.00    -0.036 A 
ATOM     19  C   UNL     1       0.092   0.412  -2.490  0.00  0.00    +0.004 A 
ATOM     20  C   UNL     1       0.665   0.188  -3.728  0.00  0.00    +0.004 A 
ATOM     21  C   UNL     1       1.757  -0.652  -3.843  0.00  0.00    -0.047 A 
ATOM     22  C   UNL     1       2.276  -1.268  -2.720  0.00  0.00    +0.004 A 
ATOM     23  C   UNL     1       1.706  -1.040  -1.481  0.00  0.00    +0.004 A 
BRANCH  21  24
ATOM     24  C   UNL     1       2.380  -0.898  -5.193  0.00  0.00    +0.038 C 
BRANCH  24  25
ATOM     25  C   UNL     1       3.475   0.141  -5.445  0.00  0.00    -0.013 C 
ATOM     26  C   UNL     1       4.607  -0.056  -4.435  0.00  0.00    +0.007 C 
ATOM     27  C   UNL     1       4.022  -0.030  -6.864  0.00  0.00    +0.007 C 
ENDBRANCH  24  25
ENDBRANCH  21  24
ENDBRANCH  17  18
ENDBRANCH  12  17
ENDBRANCH   1  14
BRANCH   9  28
ATOM     28  C   UNL     1      -7.417  -0.833   4.085  0.00  0.00    +0.095 C 
BRANCH  28  29
ATOM     29  C   UNL     1      -8.428   0.222   3.633  0.00  0.00    -0.059 C 
BRANCH  29  30
ATOM     30  N   UNL     1      -9.742  -0.075   4.219  0.00  0.00    +0.381 N 
ATOM     31  C   UNL     1     -10.236  -1.351   3.687  0.00  0.00    -0.079 C 
ATOM     32  C   UNL     1     -11.566  -1.706   4.356  0.00  0.00    -0.019 C 
ATOM     33  C   UNL     1     -12.587  -0.602   4.066  0.00  0.00    -0.004 C 
ATOM     34  C   UNL     1     -12.029   0.737   4.558  0.00  0.00    -0.019 C 
ATOM     35  C   UNL     1     -10.682   1.001   3.883  0.00  0.00    -0.079 C 
ATOM     36  H   UNL     1      -9.654  -0.143   5.222  0.00  0.00    -0.082 HD
ENDBRANCH  29  30
ENDBRANCH  28  29
ENDBRANCH   9  28
TORSDOF 8
