REMARK  Name = ZINC35369028
REMARK  3 active torsions:
REMARK  status: ('A' for Active; 'I' for Inactive)
REMARK    1  A    between atoms: C_1  and  C_2
REMARK    2  A    between atoms: C_3  and  C_7
REMARK    3  A    between atoms: C_7  and  C_9
REMARK                            x       y       z     vdW  Elec       q    Type
REMARK                         _______ _______ _______ _____ _____    ______ ____
ROOT
ATOM      1  C   UNL     1      -2.510  -0.405   0.011  0.00  0.00    +0.203 C 
ATOM      2  O   UNL     1      -2.800   0.778   0.019  0.00  0.00    -0.286 OA
ENDROOT
BRANCH   1   5
ATOM      3  C   UNL     1      -0.018   1.503   0.010  0.00  0.00    +0.087 C 
ATOM      4  C   UNL     1       0.002  -0.004   0.002  0.00  0.00    +0.113 A 
ATOM      5  C   UNL     1      -1.094  -0.817   0.003  0.00  0.00    +0.063 A 
ATOM      6  C   UNL     1      -0.568  -2.190  -0.007  0.00  0.00    +0.053 A 
ATOM      7  C   UNL     1       0.769  -2.073  -0.013  0.00  0.00    +0.196 A 
ATOM      8  O   UNL     1       1.097  -0.771  -0.013  0.00  0.00    -0.467 OA
ENDBRANCH   1   5
BRANCH   1   9
ATOM      9  C   UNL     1      -3.567  -1.418   0.011  0.00  0.00    +0.061 A 
ATOM     10  C   UNL     1      -4.945  -1.245   0.012  0.00  0.00    +0.021 A 
ATOM     11  C   UNL     1      -5.691  -2.398   0.011  0.00  0.00    +0.028 A 
ATOM     12  C   UNL     1      -5.052  -3.597   0.009  0.00  0.00    +0.079 A 
ATOM     13  S   UNL     1      -3.421  -3.195  -0.000  0.00  0.00    -0.074 S 
ATOM     14 CL   UNL     1      -5.759  -5.182   0.007  0.00  0.00    -0.076 Cl
ENDBRANCH   1   9
TORSDOF 2
