REMARK  Name = ZINC45819971
REMARK  9 active torsions:
REMARK  status: ('A' for Active; 'I' for Inactive)
REMARK    1  A    between atoms: C_3  and  C_6
REMARK    2  A    between atoms: C_6  and  C_8
REMARK    3  A    between atoms: C_6  and  N_30
REMARK    4  A    between atoms: C_8  and  N_9
REMARK    5  A    between atoms: C_10  and  C_12
REMARK    6  A    between atoms: C_16  and  S_18
REMARK    7  A    between atoms: S_18  and  N_21
REMARK    8  A    between atoms: N_21  and  C_22
REMARK    9  A    between atoms: C_22  and  C_23
REMARK                            x       y       z     vdW  Elec       q    Type
REMARK                         _______ _______ _______ _____ _____    ______ ____
ROOT
ATOM      1  N   UNL     1       5.570   0.024  -1.358  0.00  0.00    -0.312 N 
ATOM      2  C   UNL     1       6.234  -0.409  -2.448  0.00  0.00    +0.244 C 
ATOM      3  O   UNL     1       5.633  -0.605  -3.487  0.00  0.00    -0.270 OA
ATOM      4  H   UNL     1       6.049   0.181  -0.529  0.00  0.00    +0.149 HD
ENDROOT
BRANCH   2   5
ATOM      5  C   UNL     1       7.691  -0.647  -2.380  0.00  0.00    +0.039 A 
ATOM      6  C   UNL     1       8.382  -0.428  -1.187  0.00  0.00    +0.014 A 
ATOM      7  C   UNL     1       9.741  -0.652  -1.130  0.00  0.00    +0.023 A 
ATOM      8  C   UNL     1      10.421  -1.093  -2.254  0.00  0.00    +0.067 A 
ATOM      9  C   UNL     1       9.741  -1.311  -3.440  0.00  0.00    +0.124 A 
ATOM     10  C   UNL     1       8.381  -1.096  -3.508  0.00  0.00    +0.043 A 
ATOM     11 CL   UNL     1      12.133  -1.371  -2.174  0.00  0.00    -0.082 Cl
BRANCH   9  12
ATOM     12  S   UNL     1      10.615  -1.871  -4.864  0.00  0.00    +0.060 S 
ATOM     13  O   UNL     1      11.408  -2.974  -4.446  0.00  0.00    -0.153 OA
ATOM     14  O   UNL     1       9.660  -1.973  -5.912  0.00  0.00    -0.153 OA
BRANCH  12  15
ATOM     15  N   UNL     1      11.667  -0.669  -5.298  0.00  0.00    -0.187 NA
ATOM     16  H   UNL     1      11.556  -0.209  -6.144  0.00  0.00    +0.148 HD
BRANCH  15  17
ATOM     17  C   UNL     1      12.767  -0.299  -4.403  0.00  0.00    +0.137 C 
BRANCH  17  18
ATOM     18  C   UNL     1      13.788   0.543  -5.170  0.00  0.00    +0.134 C 
ATOM     19  C   UNL     1      14.978   0.915  -4.250  0.00  0.00    +0.035 C 
ATOM     20  C   UNL     1      16.100   1.147  -5.298  0.00  0.00    +0.031 C 
ATOM     21  C   UNL     1      15.750   0.109  -6.386  0.00  0.00    +0.160 C 
ATOM     22  O   UNL     1      14.364  -0.224  -6.239  0.00  0.00    -0.375 OA
ENDBRANCH  17  18
ENDBRANCH  15  17
ENDBRANCH  12  15
ENDBRANCH   9  12
ENDBRANCH   2   5
BRANCH   1  23
ATOM     23  C   UNL     1       4.126   0.260  -1.425  0.00  0.00    +0.097 C 
BRANCH  23  24
ATOM     24  C   UNL     1       3.602   0.617  -0.032  0.00  0.00    +0.016 C 
BRANCH  24  25
ATOM     25  N   UNL     1       3.975  -0.441   0.917  0.00  0.00    +0.387 N 
ATOM     26  C   UNL     1       3.460  -1.729   0.438  0.00  0.00    -0.078 C 
ATOM     27  C   UNL     1       3.914  -2.846   1.381  0.00  0.00    -0.019 C 
ATOM     28  C   UNL     1       3.374  -2.570   2.787  0.00  0.00    -0.004 C 
ATOM     29  C   UNL     1       3.857  -1.191   3.247  0.00  0.00    -0.019 C 
ATOM     30  C   UNL     1       3.405  -0.136   2.235  0.00  0.00    -0.078 C 
ATOM     31  H   UNL     1       4.980  -0.488   0.989  0.00  0.00    -0.081 HD
ENDBRANCH  24  25
BRANCH  24  34
ATOM     32  C   UNL     1       0.038   1.554  -0.081  0.00  0.00    +0.041 A 
ATOM     33  C   UNL     1       1.408   1.895   0.005  0.00  0.00    +0.043 A 
ATOM     34  C   UNL     1       2.102   0.746  -0.077  0.00  0.00    +0.093 A 
ATOM     35  O   UNL     1       1.230  -0.268  -0.207  0.00  0.00    -0.469 OA
ATOM     36  C   UNL     1      -0.023   0.217  -0.210  0.00  0.00    +0.195 A 
ENDBRANCH  24  34
ENDBRANCH  23  24
ENDBRANCH   1  23
TORSDOF 9
