REMARK  Name = ZINC09986159
REMARK  4 active torsions:
REMARK  status: ('A' for Active; 'I' for Inactive)
REMARK    1  A    between atoms: C_3  and  C_9
REMARK    2  A    between atoms: C_13  and  C_23
REMARK    3  A    between atoms: C_18  and  N_22
REMARK    4  A    between atoms: C_19  and  C_20
REMARK                            x       y       z     vdW  Elec       q    Type
REMARK                         _______ _______ _______ _____ _____    ______ ____
ROOT
ATOM      1  C   UNL     1       3.340   2.412   0.096  0.00  0.00    +0.084 C 
ATOM      2  C   UNL     1       3.664   3.190   1.377  0.00  0.00    +0.140 C 
ATOM      3  C   UNL     1       4.347   2.299   2.389  0.00  0.00    +0.084 C 
ATOM      4  N   UNL     1       5.544   2.794   2.557  0.00  0.00    -0.150 NA
ATOM      5  N   UNL     1       5.776   3.905   1.746  0.00  0.00    -0.115 NA
ATOM      6  C   UNL     1       4.755   4.186   0.994  0.00  0.00    +0.227 C 
ATOM      7  O   UNL     1       4.573   5.074  -0.008  0.00  0.00    -0.425 OA
ATOM      8  C   UNL     1       3.887   4.582  -1.072  0.00  0.00    +0.200 C 
ATOM      9  C   UNL     1       3.298   3.368  -1.065  0.00  0.00    +0.095 C 
ENDROOT
BRANCH   3  10
ATOM     10  C   UNL     1       3.779   1.115   3.051  0.00  0.00    +0.002 A 
ATOM     11  C   UNL     1       2.393   0.988   3.191  0.00  0.00    +0.013 A 
ATOM     12  C   UNL     1       1.863  -0.123   3.812  0.00  0.00    +0.050 A 
ATOM     13  C   UNL     1       2.700  -1.118   4.299  0.00  0.00    +0.166 A 
ATOM     14  C   UNL     1       4.083  -0.998   4.163  0.00  0.00    +0.167 A 
ATOM     15  C   UNL     1       4.622   0.110   3.537  0.00  0.00    +0.059 A 
ATOM     16  O   UNL     1       4.672  -2.097   4.718  0.00  0.00    -0.453 OA
ATOM     17  C   UNL     1       3.664  -2.691   5.557  0.00  0.00    +0.466 C 
ATOM     18  O   UNL     1       2.426  -2.292   4.939  0.00  0.00    -0.453 OA
ENDBRANCH   3  10
BRANCH   1  21
ATOM     19  C   UNL     1      -0.363   1.876   0.604  0.00  0.00    +0.002 A 
ATOM     20  C   UNL     1       0.867   2.494   0.471  0.00  0.00    +0.006 A 
ATOM     21  C   UNL     1       2.000   1.737   0.242  0.00  0.00    -0.018 A 
ATOM     22  C   UNL     1       1.905   0.360   0.146  0.00  0.00    +0.063 A 
ATOM     23  C   UNL     1       0.673  -0.258   0.280  0.00  0.00    +0.060 A 
ATOM     24  C   UNL     1      -0.460   0.501   0.508  0.00  0.00    +0.021 A 
ATOM     25 CL   UNL     1       0.552  -1.986   0.159  0.00  0.00    -0.082 Cl
ATOM     26 CL   UNL     1       3.328  -0.591  -0.142  0.00  0.00    -0.082 Cl
ENDBRANCH   1  21
BRANCH   8  27
ATOM     27  N   UNL     1       3.789   5.354  -2.203  0.00  0.00    -0.328 N 
ATOM     28  H   UNL     1       4.206   6.229  -2.231  0.00  0.00    +0.145 HD
ATOM     29  H   UNL     1       3.304   5.023  -2.975  0.00  0.00    +0.145 HD
ENDBRANCH   8  27
BRANCH   9  30
ATOM     30  C   UNL     1       2.585   2.963  -2.240  0.00  0.00    +0.100 C 
ATOM     31  N   UNL     1       2.020   2.642  -3.171  0.00  0.00    -0.191 NA
ENDBRANCH   9  30
TORSDOF 4
