REMARK  Name = ZINC07187292
REMARK  6 active torsions:
REMARK  status: ('A' for Active; 'I' for Inactive)
REMARK    1  A    between atoms: C_3  and  S_12
REMARK    2  A    between atoms: C_4  and  C_10
REMARK    3  A    between atoms: C_6  and  N_7
REMARK    4  A    between atoms: S_12  and  C_13
REMARK    5  A    between atoms: C_16  and  S_19
REMARK    6  A    between atoms: S_19  and  N_22
REMARK                            x       y       z     vdW  Elec       q    Type
REMARK                         _______ _______ _______ _____ _____    ______ ____
ROOT
ATOM      1  C   UNL     1       3.374   4.018  -0.159  0.00  0.00    +0.102 A 
ATOM      2  C   UNL     1       4.326   5.023  -0.306  0.00  0.00    +0.037 A 
ATOM      3  C   UNL     1       3.907   6.336  -0.412  0.00  0.00    +0.032 A 
ATOM      4  C   UNL     1       2.545   6.603  -0.366  0.00  0.00    +0.124 A 
ATOM      5  C   UNL     1       1.655   5.558  -0.218  0.00  0.00    +0.140 A 
ATOM      6  N   UNL     1       2.083   4.313  -0.124  0.00  0.00    -0.246 NA
ENDROOT
BRANCH   4   7
ATOM      7  S   UNL     1       1.958   8.259  -0.496  0.00  0.00    +0.062 S 
ATOM      8  O   UNL     1       0.679   8.287   0.123  0.00  0.00    -0.153 OA
ATOM      9  O   UNL     1       3.023   9.102  -0.080  0.00  0.00    -0.153 OA
BRANCH   7  10
ATOM     10  N   UNL     1       1.712   8.567  -2.104  0.00  0.00    -0.177 NA
ATOM     11  C   UNL     1       2.793   9.115  -2.936  0.00  0.00    +0.109 C 
ATOM     12  C   UNL     1       2.980   8.211  -4.158  0.00  0.00    +0.017 C 
ATOM     13  C   UNL     1       1.643   8.060  -4.886  0.00  0.00    +0.003 C 
ATOM     14  C   UNL     1       0.623   7.404  -3.953  0.00  0.00    +0.017 C 
ATOM     15  C   UNL     1       0.410   8.293  -2.729  0.00  0.00    +0.109 C 
ENDBRANCH   7  10
ENDBRANCH   4   7
BRANCH   1  16
ATOM     16  S   UNL     1       3.890   2.339  -0.023  0.00  0.00    -0.069 S 
BRANCH  16  19
ATOM     17  C   UNL     1       0.615   0.033  -0.387  0.00  0.00    +0.034 A 
ATOM     18  C   UNL     1       1.780   0.718  -0.665  0.00  0.00    +0.018 A 
ATOM     19  C   UNL     1       2.403   1.463   0.328  0.00  0.00    +0.032 A 
ATOM     20  C   UNL     1       1.841   1.514   1.615  0.00  0.00    +0.068 A 
ATOM     21  C   UNL     1       0.661   0.814   1.880  0.00  0.00    +0.052 A 
ATOM     22  C   UNL     1       0.058   0.080   0.881  0.00  0.00    +0.127 A 
BRANCH  22  23
ATOM     23  N   UNL     1      -1.192  -0.660   1.164  0.00  0.00    +0.056 N 
ATOM     24  O   UNL     1      -1.724  -1.305   0.290  0.00  0.00    -0.126 OA
ATOM     25  O   UNL     1      -1.681  -0.621   2.269  0.00  0.00    -0.126 OA
ENDBRANCH  22  23
BRANCH  20  26
ATOM     26  C   UNL     1       2.473   2.277   2.648  0.00  0.00    +0.100 C 
ATOM     27  N   UNL     1       2.975   2.883   3.467  0.00  0.00    -0.191 NA
ENDBRANCH  20  26
ENDBRANCH  16  19
ENDBRANCH   1  16
TORSDOF 6
