REMARK  Name = ZINC13591794
REMARK  4 active torsions:
REMARK  status: ('A' for Active; 'I' for Inactive)
REMARK    1  A    between atoms: C_8  and  C_27
REMARK    2  A    between atoms: C_10  and  C_18
REMARK    3  A    between atoms: C_22  and  N_24
REMARK    4  A    between atoms: C_27  and  C_29
REMARK                            x       y       z     vdW  Elec       q    Type
REMARK                         _______ _______ _______ _____ _____    ______ ____
ROOT
ATOM      1  C   UNL     1      -0.147   1.339   0.031  0.00  0.00    +0.000 A 
ATOM      2  C   UNL     1       1.025   2.071   0.060  0.00  0.00    +0.002 A 
ATOM      3  C   UNL     1       2.247   1.431   0.067  0.00  0.00    +0.023 A 
ATOM      4  C   UNL     1       2.308   0.039   0.043  0.00  0.00    +0.039 A 
ATOM      5  C   UNL     1       1.122  -0.687   0.015  0.00  0.00    +0.004 A 
ATOM      6  C   UNL     1      -0.096  -0.044   0.009  0.00  0.00    +0.008 A 
ATOM      7  C   UNL     1       1.522  -2.139  -0.003  0.00  0.00    +0.137 C 
ATOM      8  C   UNL     1       1.005  -2.833  -1.267  0.00  0.00    +0.103 C 
ATOM      9  C   UNL     1      -0.171  -3.705  -0.773  0.00  0.00    +0.049 C 
ATOM     10  C   UNL     1       0.179  -3.989   0.696  0.00  0.00    +0.066 C 
ATOM     11  N   UNL     1       0.993  -2.848   1.169  0.00  0.00    -0.281 NA
ATOM     12  C   UNL     1       0.061  -1.950   1.901  0.00  0.00    +0.086 C 
ATOM     13  C   UNL     1      -0.927  -2.919   2.594  0.00  0.00    +0.017 C 
ATOM     14  C   UNL     1      -1.097  -4.063   1.545  0.00  0.00    +0.021 C 
ATOM     15  C   UNL     1       3.030  -2.119   0.016  0.00  0.00    +0.243 C 
ATOM     16  O   UNL     1       3.766  -3.083   0.009  0.00  0.00    -0.273 OA
ATOM     17  N   UNL     1       3.404  -0.826   0.043  0.00  0.00    -0.283 N 
ATOM     18  H   UNL     1       4.327  -0.530   0.060  0.00  0.00    +0.155 HD
ENDROOT
BRANCH   9  19
ATOM     19  C   UNL     1      -0.246  -4.987  -1.561  0.00  0.00    -0.040 A 
ATOM     20  C   UNL     1       0.832  -5.853  -1.578  0.00  0.00    +0.004 A 
ATOM     21  C   UNL     1       0.762  -7.029  -2.301  0.00  0.00    +0.002 A 
ATOM     22  C   UNL     1      -0.385  -7.340  -3.006  0.00  0.00    +0.033 A 
ATOM     23  C   UNL     1      -1.463  -6.475  -2.989  0.00  0.00    +0.126 A 
ATOM     24  C   UNL     1      -1.395  -5.301  -2.262  0.00  0.00    +0.036 A 
BRANCH  23  25
ATOM     25  N   UNL     1      -2.692  -6.808  -3.744  0.00  0.00    +0.056 N 
ATOM     26  O   UNL     1      -2.752  -7.837  -4.377  0.00  0.00    -0.126 OA
ATOM     27  O   UNL     1      -3.635  -6.052  -3.729  0.00  0.00    -0.126 OA
ENDBRANCH  23  25
ENDBRANCH   9  19
BRANCH   8  28
ATOM     28  C   UNL     1       0.524  -1.813  -2.268  0.00  0.00    +0.170 C 
ATOM     29  O   UNL     1      -0.639  -1.488  -2.287  0.00  0.00    -0.292 OA
BRANCH  28  30
ATOM     30  C   UNL     1       1.474  -1.213  -3.224  0.00  0.00    +0.021 A 
ATOM     31  C   UNL     1       2.826  -1.580  -3.222  0.00  0.00    +0.031 A 
ATOM     32  C   UNL     1       3.680  -0.992  -4.135  0.00  0.00    +0.111 A 
ATOM     33  N   UNL     1       3.238  -0.098  -4.997  0.00  0.00    -0.263 NA
ATOM     34  C   UNL     1       1.975   0.276  -5.033  0.00  0.00    +0.111 A 
ATOM     35  C   UNL     1       1.049  -0.264  -4.162  0.00  0.00    +0.031 A 
ENDBRANCH  28  30
ENDBRANCH   8  28
TORSDOF 4
