REMARK  Name = ZINC34683862
REMARK  7 active torsions:
REMARK  status: ('A' for Active; 'I' for Inactive)
REMARK    1  A    between atoms: C_1  and  C_2
REMARK    2  A    between atoms: C_6  and  S_8
REMARK    3  A    between atoms: S_8  and  N_11
REMARK    4  A    between atoms: N_11  and  C_12
REMARK    5  A    between atoms: N_11  and  C_21
REMARK    6  A    between atoms: N_24  and  C_27
REMARK    7  A    between atoms: C_27  and  C_28
REMARK                            x       y       z     vdW  Elec       q    Type
REMARK                         _______ _______ _______ _____ _____    ______ ____
ROOT
ATOM      1  N   UNL     1       1.644  -3.200   3.123  0.00  0.00    -0.200 N 
ENDROOT
BRANCH   1   2
ATOM      2  C   UNL     1       2.281  -2.187   3.849  0.00  0.00    +0.055 A 
ATOM      3  C   UNL     1       3.428  -1.589   3.345  0.00  0.00    +0.028 A 
ATOM      4  C   UNL     1       4.059  -0.588   4.060  0.00  0.00    +0.051 A 
ATOM      5  C   UNL     1       3.548  -0.179   5.281  0.00  0.00    +0.166 A 
ATOM      6  C   UNL     1       2.397  -0.777   5.789  0.00  0.00    +0.168 A 
ATOM      7  C   UNL     1       1.763  -1.776   5.069  0.00  0.00    +0.074 A 
ATOM      8  O   UNL     1       2.102  -0.203   6.992  0.00  0.00    -0.453 OA
ATOM      9  C   UNL     1       3.309   0.463   7.407  0.00  0.00    +0.466 C 
ATOM     10  O   UNL     1       3.974   0.770   6.167  0.00  0.00    -0.453 OA
ENDBRANCH   1   2
BRANCH   1  11
ATOM     11  C   UNL     1       2.006  -4.601   3.349  0.00  0.00    +0.095 C 
ATOM     12  C   UNL     1       3.505  -4.790   3.098  0.00  0.00    +0.006 C 
ATOM     13  C   UNL     1       3.891  -6.237   3.413  0.00  0.00    -0.076 C 
ATOM     14  N   UNL     1       3.587  -6.534   4.818  0.00  0.00    +0.384 N 
ATOM     15  C   UNL     1       2.142  -6.425   5.049  0.00  0.00    -0.076 C 
ATOM     16  C   UNL     1       1.688  -4.985   4.797  0.00  0.00    +0.006 C 
ATOM     17  H   UNL     1       4.072  -5.878   5.411  0.00  0.00    -0.081 HD
BRANCH  14  18
ATOM     18  C   UNL     1       4.031  -7.898   5.135  0.00  0.00    -0.003 C 
BRANCH  18  19
ATOM     19  C   UNL     1       3.833  -8.161   6.606  0.00  0.00    +0.089 A 
ATOM     20  C   UNL     1       2.726  -8.677   7.170  0.00  0.00    +0.042 A 
ATOM     21  C   UNL     1       2.972  -8.752   8.560  0.00  0.00    +0.041 A 
ATOM     22  C   UNL     1       4.214  -8.276   8.762  0.00  0.00    +0.195 A 
ATOM     23  O   UNL     1       4.732  -7.925   7.574  0.00  0.00    -0.470 OA
ENDBRANCH  18  19
ENDBRANCH  14  18
ENDBRANCH   1  11
BRANCH   1  24
ATOM     24  S   UNL     1       0.480  -2.814   2.010  0.00  0.00    +0.075 S 
ATOM     25  O   UNL     1      -0.107  -1.595   2.442  0.00  0.00    -0.150 OA
ATOM     26  O   UNL     1      -0.283  -3.994   1.794  0.00  0.00    -0.150 OA
BRANCH  24  32
ATOM     27  C   UNL     1       2.805   0.505  -1.292  0.00  0.00    +0.044 C 
ATOM     28  C   UNL     1       2.361  -0.901  -0.982  0.00  0.00    -0.049 A 
ATOM     29  C   UNL     1       2.601  -1.918  -1.888  0.00  0.00    +0.003 A 
ATOM     30  C   UNL     1       2.194  -3.208  -1.603  0.00  0.00    +0.002 A 
ATOM     31  C   UNL     1       1.546  -3.481  -0.413  0.00  0.00    +0.029 A 
ATOM     32  C   UNL     1       1.306  -2.465   0.493  0.00  0.00    +0.109 A 
ATOM     33  C   UNL     1       1.718  -1.176   0.210  0.00  0.00    +0.032 A 
ENDBRANCH  24  32
ENDBRANCH   1  24
TORSDOF 6
