REMARK  Name = ZINC18097564
REMARK  7 active torsions:
REMARK  status: ('A' for Active; 'I' for Inactive)
REMARK    1  A    between atoms: C_1  and  C_2
REMARK    2  A    between atoms: C_5  and  C_33
REMARK    3  A    between atoms: N_8  and  S_10
REMARK    4  A    between atoms: S_10  and  C_13
REMARK    5  A    between atoms: C_16  and  C_19
REMARK    6  A    between atoms: N_21  and  N_22
REMARK    7  A    between atoms: C_23  and  C_25
REMARK                            x       y       z     vdW  Elec       q    Type
REMARK                         _______ _______ _______ _____ _____    ______ ____
ROOT
ATOM      1  C   UNL     1      -1.253   1.526   4.835  0.00  0.00    +0.106 A 
ATOM      2  C   UNL     1      -0.452   1.981   5.867  0.00  0.00    +0.029 A 
ATOM      3  C   UNL     1      -0.940   2.909   6.765  0.00  0.00    +0.015 A 
ATOM      4  C   UNL     1      -2.247   3.380   6.637  0.00  0.00    +0.038 A 
ATOM      5  C   UNL     1      -3.052   2.912   5.596  0.00  0.00    +0.015 A 
ATOM      6  C   UNL     1      -2.551   1.989   4.702  0.00  0.00    +0.029 A 
ENDROOT
BRANCH   4   7
ATOM      7  C   UNL     1      -2.778   4.369   7.599  0.00  0.00    +0.260 C 
ATOM      8  O   UNL     1      -3.917   4.777   7.485  0.00  0.00    -0.269 OA
ATOM      9  N   UNL     1      -1.998   4.818   8.603  0.00  0.00    -0.230 N 
ATOM     10  H   UNL     1      -1.089   4.492   8.694  0.00  0.00    +0.173 HD
BRANCH   9  11
ATOM     11  N   UNL     1      -2.501   5.755   9.514  0.00  0.00    -0.230 N 
ATOM     12  C   UNL     1      -1.722   6.204  10.518  0.00  0.00    +0.262 C 
ATOM     13  O   UNL     1      -0.582   5.796  10.632  0.00  0.00    -0.269 OA
ATOM     14  H   UNL     1      -3.411   6.081   9.424  0.00  0.00    +0.173 HD
BRANCH  12  15
ATOM     15  C   UNL     1      -2.252   7.193  11.480  0.00  0.00    +0.058 A 
ATOM     16  C   UNL     1      -3.559   7.668  11.348  0.00  0.00    +0.034 A 
ATOM     17  C   UNL     1      -4.050   8.587  12.253  0.00  0.00    +0.042 A 
ATOM     18  C   UNL     1      -3.246   9.047  13.284  0.00  0.00    +0.021 A 
ATOM     19  C   UNL     1      -1.950   8.585  13.417  0.00  0.00    +0.022 A 
ATOM     20  C   UNL     1      -1.447   7.661  12.521  0.00  0.00    +0.053 A 
ATOM     21 CL   UNL     1       0.181   7.082  12.690  0.00  0.00    -0.083 Cl
ATOM     22 CL   UNL     1      -5.676   9.174  12.096  0.00  0.00    -0.084 Cl
ENDBRANCH  12  15
ENDBRANCH   9  11
ENDBRANCH   4   7
BRANCH   1  23
ATOM     23  S   UNL     1      -0.621   0.347   3.688  0.00  0.00    +0.061 S 
ATOM     24  O   UNL     1      -1.744  -0.332   3.144  0.00  0.00    -0.153 OA
ATOM     25  O   UNL     1       0.435  -0.336   4.349  0.00  0.00    -0.153 OA
BRANCH  23  31
ATOM     26  C   UNL     1       3.619   1.586   1.189  0.00  0.00    +0.009 C 
ATOM     27  C   UNL     1       2.175   1.082   1.218  0.00  0.00    +0.002 C 
ATOM     28  C   UNL     1       1.423   1.616  -0.003  0.00  0.00    +0.009 C 
ATOM     29  C   UNL     1      -0.013   1.086   0.008  0.00  0.00    +0.002 C 
ATOM     30  C   UNL     1      -0.726   1.581   1.270  0.00  0.00    +0.112 C 
ATOM     31  N   UNL     1       0.069   1.195   2.444  0.00  0.00    -0.176 NA
ATOM     32  C   UNL     1       1.486   1.577   2.494  0.00  0.00    +0.112 C 
ATOM     33  C   UNL     1      -0.754   1.593  -1.230  0.00  0.00    +0.009 C 
ENDBRANCH  23  31
ENDBRANCH   1  23
TORSDOF 5
