REMARK  Name = ZINC22192206
REMARK  8 active torsions:
REMARK  status: ('A' for Active; 'I' for Inactive)
REMARK    1  A    between atoms: C_1  and  C_2
REMARK    2  A    between atoms: C_3  and  C_35
REMARK    3  A    between atoms: C_11  and  C_13
REMARK    4  A    between atoms: C_13  and  S_14
REMARK    5  A    between atoms: S_14  and  C_15
REMARK    6  A    between atoms: C_15  and  C_17
REMARK    7  A    between atoms: C_15  and  C_18
REMARK    8  A    between atoms: C_23  and  C_26
REMARK                            x       y       z     vdW  Elec       q    Type
REMARK                         _______ _______ _______ _____ _____    ______ ____
ROOT
ATOM      1  C   UNL     1       0.027  -7.604   5.076  0.00  0.00    +0.231 C 
ATOM      2  O   UNL     1       0.388  -7.982   3.981  0.00  0.00    -0.274 OA
ATOM      3  N   UNL     1      -0.469  -8.488   5.964  0.00  0.00    -0.264 N 
ATOM      4  C   UNL     1      -0.568  -9.832   5.625  0.00  0.00    +0.165 A 
ATOM      5  N   UNL     1      -1.025 -10.843   6.341  0.00  0.00    -0.225 NA
ATOM      6  C   UNL     1      -1.048 -12.075   5.856  0.00  0.00    +0.080 A 
ATOM      7  C   UNL     1      -0.589 -12.305   4.589  0.00  0.00    +0.076 A 
ATOM      8  S   UNL     1      -0.117 -10.651   4.102  0.00  0.00    -0.060 S 
ATOM      9  H   UNL     1      -0.757  -8.186   6.840  0.00  0.00    +0.157 HD
ENDROOT
BRANCH   6  10
ATOM     10  C   UNL     1      -1.565 -13.194   6.680  0.00  0.00    +0.001 A 
ATOM     11  C   UNL     1      -1.583 -14.492   6.170  0.00  0.00    +0.013 A 
ATOM     12  C   UNL     1      -2.060 -15.531   6.937  0.00  0.00    +0.046 A 
ATOM     13  C   UNL     1      -2.530 -15.298   8.228  0.00  0.00    +0.124 A 
ATOM     14  C   UNL     1      -2.517 -14.001   8.727  0.00  0.00    -0.002 A 
ATOM     15  C   UNL     1      -2.033 -12.958   7.972  0.00  0.00    +0.017 A 
ATOM     16  C   UNL     1      -3.104 -14.056  10.125  0.00  0.00    +0.080 C 
ATOM     17  C   UNL     1      -3.780 -15.448  10.133  0.00  0.00    +0.234 C 
ATOM     18  O   UNL     1      -3.027 -16.173   9.146  0.00  0.00    -0.491 OA
ENDBRANCH   6  10
BRANCH   1  19
ATOM     19  C   UNL     1       0.135  -6.147   5.443  0.00  0.00    +0.130 C 
ATOM     20  C   UNL     1       1.446  -5.905   6.194  0.00  0.00    +0.029 C 
BRANCH  19  21
ATOM     21  S   UNL     1       0.108  -5.139   3.935  0.00  0.00    -0.141 S 
BRANCH  21  22
ATOM     22  C   UNL     1       0.090  -3.432   4.547  0.00  0.00    +0.144 C 
BRANCH  22  33
ATOM     23  C   UNL     1      -0.018   1.503   0.010  0.00  0.00    +0.045 C 
ATOM     24  C   UNL     1       0.002  -0.004   0.002  0.00  0.00    -0.026 A 
ATOM     25  C   UNL     1       0.006  -0.677  -1.160  0.00  0.00    -0.008 A 
ATOM     26  S   UNL     1       0.032  -2.385  -0.648  0.00  0.00    -0.073 S 
ATOM     27  C   UNL     1       0.037  -2.144   1.110  0.00  0.00    +0.116 A 
ATOM     28  C   UNL     1       0.024  -0.745   1.250  0.00  0.00    +0.075 A 
ATOM     29  C   UNL     1       0.029  -0.257   2.597  0.00  0.00    +0.260 A 
ATOM     30  O   UNL     1       0.014   0.942   2.821  0.00  0.00    -0.267 OA
ATOM     31  N   UNL     1       0.051  -1.142   3.611  0.00  0.00    -0.310 N 
ATOM     32  H   UNL     1       0.054  -0.817   4.525  0.00  0.00    +0.170 HD
ATOM     33  C   UNL     1       0.067  -2.480   3.380  0.00  0.00    +0.121 A 
ATOM     34  N   UNL     1       0.053  -2.956   2.163  0.00  0.00    -0.226 NA
ATOM     35  C   UNL     1      -0.009  -0.122  -2.561  0.00  0.00    +0.052 C 
ENDBRANCH  22  33
ENDBRANCH  21  22
ENDBRANCH  19  21
ENDBRANCH   1  19
TORSDOF 5
