REMARK  Name = ZINC18935163
REMARK  12 active torsions:
REMARK  status: ('A' for Active; 'I' for Inactive)
REMARK    1  A    between atoms: C_1  and  C_2
REMARK    2  A    between atoms: C_2  and  O_3
REMARK    3  A    between atoms: O_3  and  C_4
REMARK    4  A    between atoms: C_4  and  C_6
REMARK    5  A    between atoms: C_7  and  C_31
REMARK    6  A    between atoms: C_8  and  C_27
REMARK    7  A    between atoms: C_10  and  N_11
REMARK    8  A    between atoms: C_12  and  C_14
REMARK    9  A    between atoms: C_14  and  N_60
REMARK   10  A    between atoms: C_15  and  N_60
REMARK   11  A    between atoms: C_16  and  N_60
REMARK   12  A    between atoms: N_29  and  C_30
REMARK                            x       y       z     vdW  Elec       q    Type
REMARK                         _______ _______ _______ _____ _____    ______ ____
ROOT
ATOM      1  N   UNL     1      -0.540   6.636   0.923  0.00  0.00    -0.281 N 
ATOM      2  C   UNL     1       0.255   5.587   1.213  0.00  0.00    +0.201 C 
ATOM      3  O   UNL     1       1.079   5.676   2.098  0.00  0.00    -0.278 OA
ATOM      4  H   UNL     1      -1.199   6.564   0.215  0.00  0.00    +0.155 HD
ENDROOT
BRANCH   1   9
ATOM      5  C   UNL     1      -1.139   9.002   1.486  0.00  0.00    +0.091 A 
ATOM      6  C   UNL     1      -0.826  10.057   2.330  0.00  0.00    -0.015 A 
ATOM      7  C   UNL     1       0.169   9.862   3.249  0.00  0.00    +0.079 A 
ATOM      8  S   UNL     1       0.669   8.180   2.935  0.00  0.00    -0.068 S 
ATOM      9  C   UNL     1      -0.416   7.813   1.634  0.00  0.00    +0.087 A 
ATOM     10  C   UNL     1      -1.556  11.372   2.238  0.00  0.00    +0.046 C 
BRANCH   7  11
ATOM     11  C   UNL     1       0.689  10.800   4.246  0.00  0.00    +0.251 C 
ATOM     12  O   UNL     1       0.223  11.921   4.328  0.00  0.00    -0.270 OA
ATOM     13  N   UNL     1       1.683  10.421   5.074  0.00  0.00    -0.314 N 
ATOM     14  C   UNL     1       2.204  11.360   6.071  0.00  0.00    +0.128 C 
ATOM     15  H   UNL     1       2.054   9.527   5.008  0.00  0.00    +0.149 HD
ENDBRANCH   7  11
BRANCH   5  16
ATOM     16  C   UNL     1      -2.193   9.127   0.473  0.00  0.00    +0.342 C 
ATOM     17  O   UNL     1      -3.340   8.833   0.750  0.00  0.00    -0.245 OA
BRANCH  16  18
ATOM     18  O   UNL     1      -1.890   9.569  -0.764  0.00  0.00    -0.461 OA
BRANCH  18  20
ATOM     19  C   UNL     1      -2.449  10.182  -3.053  0.00  0.00    +0.048 C 
ATOM     20  C   UNL     1      -2.982   9.668  -1.715  0.00  0.00    +0.229 C 
ENDBRANCH  18  20
ENDBRANCH  16  18
ENDBRANCH   5  16
ENDBRANCH   1   9
BRANCH   2  21
ATOM     21  C   UNL     1       0.119   4.302   0.437  0.00  0.00    +0.019 C 
BRANCH  21  23
ATOM     22  C   UNL     1       0.690   2.814   2.260  0.00  0.00    -0.095 C 
ATOM     23  N   UNL     1       1.115   3.334   0.943  0.00  0.00    +0.388 N 
ATOM     24  H   UNL     1       2.019   3.810   1.049  0.00  0.00    -0.081 HD
BRANCH  23  25
ATOM     25  C   UNL     1       1.269   2.219  -0.015  0.00  0.00    -0.037 C 
ATOM     26  C   UNL     1      -0.096   1.628  -0.362  0.00  0.00    -0.010 C 
ATOM     27  C   UNL     1       0.087   0.634  -1.516  0.00  0.00    +0.003 C 
ATOM     28  C   UNL     1       0.427   1.421  -2.780  0.00  0.00    +0.035 C 
ATOM     29  C   UNL     1       1.568   2.370  -2.522  0.00  0.00    -0.046 A 
ATOM     30  C   UNL     1       1.952   2.740  -1.252  0.00  0.00    -0.058 A 
ATOM     31  C   UNL     1       3.010   3.623  -1.084  0.00  0.00    +0.002 A 
ATOM     32  C   UNL     1       3.679   4.133  -2.177  0.00  0.00    +0.000 A 
ATOM     33  C   UNL     1       3.297   3.758  -3.452  0.00  0.00    +0.000 A 
ATOM     34  C   UNL     1       2.245   2.881  -3.621  0.00  0.00    +0.004 A 
ENDBRANCH  23  25
ENDBRANCH  21  23
ENDBRANCH   2  21
TORSDOF 8
