REMARK  Name = ZINC20848120
REMARK  7 active torsions:
REMARK  status: ('A' for Active; 'I' for Inactive)
REMARK    1  A    between atoms: C_1  and  N_2
REMARK    2  A    between atoms: N_11  and  C_28
REMARK    3  A    between atoms: C_12  and  C_14
REMARK    4  A    between atoms: C_14  and  N_15
REMARK    5  A    between atoms: N_18  and  C_21
REMARK    6  A    between atoms: C_21  and  C_22
REMARK    7  A    between atoms: C_28  and  C_29
REMARK                            x       y       z     vdW  Elec       q    Type
REMARK                         _______ _______ _______ _____ _____    ______ ____
ROOT
ATOM      1  C   UNL     1      -4.872   1.267  -5.866  0.00  0.00    +0.155 C 
ATOM      2  N   UNL     1      -4.806   0.423  -4.671  0.00  0.00    -0.280 N 
ATOM      3  C   UNL     1      -4.026   0.810  -3.593  0.00  0.00    +0.168 A 
ATOM      4  C   UNL     1      -3.980  -0.007  -2.471  0.00  0.00    +0.152 A 
ATOM      5  C   UNL     1      -4.726  -1.205  -2.461  0.00  0.00    +0.280 A 
ATOM      6  O   UNL     1      -4.702  -1.939  -1.489  0.00  0.00    -0.265 OA
ATOM      7  N   UNL     1      -5.467  -1.528  -3.542  0.00  0.00    -0.273 N 
ATOM      8  H   UNL     1      -6.054  -2.458  -3.548  0.00  0.00    +0.173 HD
ATOM      9  C   UNL     1      -5.503  -0.728  -4.621  0.00  0.00    +0.331 A 
ATOM     10  O   UNL     1      -6.181  -1.051  -5.577  0.00  0.00    -0.246 OA
ATOM     11  N   UNL     1      -3.140   0.619  -1.571  0.00  0.00    -0.319 N 
ATOM     12  C   UNL     1      -2.721   1.760  -2.152  0.00  0.00    +0.096 A 
ATOM     13  N   UNL     1      -3.243   1.864  -3.347  0.00  0.00    -0.216 NA
ENDROOT
BRANCH  12  14
ATOM     14  C   UNL     1      -1.788   2.762  -1.522  0.00  0.00    -0.003 C 
BRANCH  14  15
ATOM     15  N   UNL     1      -0.422   2.533  -2.009  0.00  0.00    +0.386 N 
ATOM     16  C   UNL     1       0.146   1.308  -1.428  0.00  0.00    -0.063 C 
ATOM     17  C   UNL     1       1.536   1.063  -2.019  0.00  0.00    +0.066 C 
ATOM     18  N   UNL     1       2.396   2.223  -1.741  0.00  0.00    -0.302 NA
ATOM     19  C   UNL     1       1.828   3.447  -2.321  0.00  0.00    +0.066 C 
ATOM     20  C   UNL     1       0.438   3.692  -1.730  0.00  0.00    -0.063 C 
ATOM     21  H   UNL     1      -0.470   2.401  -3.100  0.00  0.00    -0.081 HD
BRANCH  18  22
ATOM     22  C   UNL     1       3.763   1.994  -2.228  0.00  0.00    +0.119 C 
BRANCH  22  23
ATOM     23  C   UNL     1       4.277   0.685  -1.685  0.00  0.00    -0.033 A 
ATOM     24  C   UNL     1       4.814   0.628  -0.413  0.00  0.00    +0.005 A 
ATOM     25  C   UNL     1       5.281  -0.574   0.087  0.00  0.00    +0.000 A 
ATOM     26  C   UNL     1       5.220  -1.716  -0.690  0.00  0.00    +0.000 A 
ATOM     27  C   UNL     1       4.687  -1.657  -1.964  0.00  0.00    +0.000 A 
ATOM     28  C   UNL     1       4.216  -0.457  -2.462  0.00  0.00    +0.005 A 
ENDBRANCH  22  23
ENDBRANCH  18  22
ENDBRANCH  14  15
ENDBRANCH  12  14
BRANCH  11  29
ATOM     29  C   UNL     1      -2.779   0.137  -0.236  0.00  0.00    +0.159 C 
BRANCH  29  30
ATOM     30  C   UNL     1      -3.861   0.511   0.744  0.00  0.00    -0.020 A 
ATOM     31  C   UNL     1      -4.097   1.820   1.035  0.00  0.00    +0.006 A 
ATOM     32  C   UNL     1      -5.093   2.186   1.937  0.00  0.00    +0.001 A 
ATOM     33  C   UNL     1      -5.860   1.245   2.554  0.00  0.00    +0.008 A 
ATOM     34  C   UNL     1      -5.645  -0.116   2.279  0.00  0.00    -0.018 A 
ATOM     35  C   UNL     1      -4.632  -0.488   1.361  0.00  0.00    -0.013 A 
ATOM     36  C   UNL     1      -4.418  -1.849   1.086  0.00  0.00    +0.009 A 
ATOM     37  C   UNL     1      -5.184  -2.790   1.702  0.00  0.00    +0.001 A 
ATOM     38  C   UNL     1      -6.181  -2.424   2.605  0.00  0.00    +0.001 A 
ATOM     39  C   UNL     1      -6.417  -1.115   2.896  0.00  0.00    +0.008 A 
ENDBRANCH  29  30
ENDBRANCH  11  29
TORSDOF 6
