REMARK  Name = ZINC40360715
REMARK  13 active torsions:
REMARK  status: ('A' for Active; 'I' for Inactive)
REMARK    1  A    between atoms: C_1  and  C_2
REMARK    2  A    between atoms: C_2  and  C_3
REMARK    3  A    between atoms: C_3  and  C_5
REMARK    4  A    between atoms: C_3  and  N_23
REMARK    5  A    between atoms: N_15  and  C_16
REMARK    6  A    between atoms: N_23  and  C_24
REMARK    7  A    between atoms: N_27  and  C_28
REMARK    8  A    between atoms: C_29  and  C_37
REMARK    9  A    between atoms: C_33  and  C_34
REMARK   10  A    between atoms: C_34  and  C_35
REMARK   11  A    between atoms: C_34  and  C_36
REMARK   12  A    between atoms: C_37  and  C_38
REMARK   13  A    between atoms: C_37  and  C_39
REMARK                            x       y       z     vdW  Elec       q    Type
REMARK                         _______ _______ _______ _____ _____    ______ ____
ROOT
ATOM      1  C   UNL     1       2.635  -1.984   1.254  0.00  0.00    +0.143 C 
ENDROOT
BRANCH   1   2
ATOM      2  C   UNL     1       3.477  -3.111   0.712  0.00  0.00    +0.138 A 
ATOM      3  N   UNL     1       3.679  -3.169  -0.569  0.00  0.00    -0.231 NA
ATOM      4  C   UNL     1       4.426  -4.154  -1.127  0.00  0.00    +0.078 A 
ATOM      5  C   UNL     1       4.643  -4.216  -2.505  0.00  0.00    +0.028 A 
ATOM      6  C   UNL     1       5.409  -5.233  -3.029  0.00  0.00    +0.002 A 
ATOM      7  C   UNL     1       5.969  -6.200  -2.204  0.00  0.00    +0.001 A 
ATOM      8  C   UNL     1       5.769  -6.160  -0.842  0.00  0.00    +0.015 A 
ATOM      9  C   UNL     1       4.997  -5.139  -0.291  0.00  0.00    +0.065 A 
ATOM     10  C   UNL     1       4.750  -5.045   1.155  0.00  0.00    +0.266 A 
ATOM     11  O   UNL     1       5.213  -5.861   1.930  0.00  0.00    -0.267 OA
ATOM     12  N   UNL     1       3.992  -4.012   1.592  0.00  0.00    -0.263 N 
BRANCH  12  13
ATOM     13  C   UNL     1       3.731  -3.874   2.961  0.00  0.00    +0.053 A 
ATOM     14  C   UNL     1       4.749  -3.502   3.829  0.00  0.00    +0.026 A 
ATOM     15  C   UNL     1       4.489  -3.365   5.179  0.00  0.00    +0.003 A 
ATOM     16  C   UNL     1       3.216  -3.598   5.666  0.00  0.00    +0.020 A 
ATOM     17  C   UNL     1       2.199  -3.968   4.804  0.00  0.00    +0.043 A 
ATOM     18  C   UNL     1       2.452  -4.101   3.451  0.00  0.00    +0.046 A 
ATOM     19 CL   UNL     1       0.602  -4.260   5.420  0.00  0.00    -0.083 Cl
ENDBRANCH  12  13
ENDBRANCH   1   2
BRANCH   1  20
ATOM     20  N   UNL     1       3.329  -0.711   1.041  0.00  0.00    -0.278 N 
ATOM     21  C   UNL     1       3.561  -0.222  -0.320  0.00  0.00    +0.134 C 
ATOM     22  C   UNL     1       3.753   0.010   2.098  0.00  0.00    +0.307 C 
ATOM     23  O   UNL     1       3.560  -0.397   3.228  0.00  0.00    -0.252 OA
ATOM     24  N   UNL     1       4.390   1.181   1.903  0.00  0.00    -0.269 N 
ATOM     25  H   UNL     1       4.505   1.527   1.004  0.00  0.00    +0.156 HD
BRANCH  24  26
ATOM     26  C   UNL     1       4.887   1.898   2.997  0.00  0.00    +0.042 A 
ATOM     27  C   UNL     1       6.247   2.163   3.096  0.00  0.00    -0.023 A 
ATOM     28  C   UNL     1       6.734   2.871   4.177  0.00  0.00    +0.006 A 
ATOM     29  C   UNL     1       5.870   3.317   5.160  0.00  0.00    +0.001 A 
ATOM     30  C   UNL     1       4.516   3.054   5.065  0.00  0.00    +0.006 A 
ATOM     31  C   UNL     1       4.021   2.351   3.983  0.00  0.00    -0.023 A 
BRANCH  31  32
ATOM     32  C   UNL     1       2.544   2.072   3.877  0.00  0.00    +0.015 C 
ATOM     33  C   UNL     1       2.061   1.386   5.156  0.00  0.00    +0.012 C 
ATOM     34  C   UNL     1       1.788   3.388   3.688  0.00  0.00    +0.012 C 
ENDBRANCH  31  32
BRANCH  27  35
ATOM     35  C   UNL     1       7.190   1.677   2.025  0.00  0.00    +0.015 C 
ATOM     36  C   UNL     1       7.986   2.861   1.472  0.00  0.00    +0.012 C 
ATOM     37  C   UNL     1       8.153   0.649   2.622  0.00  0.00    +0.012 C 
ENDBRANCH  27  35
ENDBRANCH  24  26
ENDBRANCH   1  20
BRANCH   1  39
ATOM     38  C   UNL     1       0.388  -0.897   1.160  0.00  0.00    +0.006 C 
ATOM     39  C   UNL     1       1.289  -1.959   0.527  0.00  0.00    +0.027 C 
ENDBRANCH   1  39
TORSDOF 7
