REMARK  Name = ZINC06668766
REMARK  2 active torsions:
REMARK  status: ('A' for Active; 'I' for Inactive)
REMARK    1  A    between atoms: C_1  and  C_2
REMARK    2  A    between atoms: C_7  and  C_15
REMARK                            x       y       z     vdW  Elec       q    Type
REMARK                         _______ _______ _______ _____ _____    ______ ____
ROOT
ATOM      1  C   UNL     1      -0.019   1.526   0.010  0.00  0.00    +0.008 C 
ATOM      2  C   UNL     1       0.002  -0.004   0.002  0.00  0.00    -0.001 C 
ATOM      3  C   UNL     1       0.729  -0.503  -1.248  0.00  0.00    +0.055 C 
ATOM      4  C   UNL     1       0.783  -2.013  -1.235  0.00  0.00    +0.020 C 
ATOM      5  C   UNL     1       0.849  -2.693  -0.071  0.00  0.00    +0.041 C 
ATOM      6  C   UNL     1       0.921  -4.204  -0.026  0.00  0.00    +0.175 C 
ATOM      7  N   UNL     1       0.572  -4.758  -1.327  0.00  0.00    -0.221 N 
ATOM      8  C   UNL     1       0.503  -4.017  -2.460  0.00  0.00    +0.218 A 
ATOM      9  N   UNL     1       0.173  -4.810  -3.442  0.00  0.00    -0.201 NA
ATOM     10  C   UNL     1       0.020  -6.055  -2.979  0.00  0.00    +0.247 A 
ATOM     11  N   UNL     1       0.254  -6.066  -1.689  0.00  0.00    -0.156 NA
ATOM     12  N   UNL     1       0.756  -2.655  -2.450  0.00  0.00    -0.287 N 
ATOM     13  C   UNL     1       0.848  -2.016   1.162  0.00  0.00    +0.163 C 
ATOM     14  O   UNL     1       0.924  -2.656   2.192  0.00  0.00    -0.292 OA
ATOM     15  C   UNL     1       0.754  -0.517   1.235  0.00  0.00    +0.083 C 
ATOM     16  H   UNL     1       0.909  -2.169  -3.275  0.00  0.00    +0.155 HD
ENDROOT
BRANCH   6  17
ATOM     17  C   UNL     1       2.322  -4.627   0.336  0.00  0.00    -0.018 A 
ATOM     18  C   UNL     1       3.384  -4.259  -0.469  0.00  0.00    +0.007 A 
ATOM     19  C   UNL     1       4.669  -4.647  -0.138  0.00  0.00    +0.020 A 
ATOM     20  C   UNL     1       4.892  -5.403   0.999  0.00  0.00    +0.041 A 
ATOM     21  C   UNL     1       3.829  -5.770   1.804  0.00  0.00    +0.020 A 
ATOM     22  C   UNL     1       2.545  -5.377   1.475  0.00  0.00    +0.007 A 
ATOM     23 CL   UNL     1       6.505  -5.891   1.415  0.00  0.00    -0.084 Cl
ENDBRANCH   6  17
TORSDOF 1
