REMARK  Name = ZINC04033988
REMARK  6 active torsions:
REMARK  status: ('A' for Active; 'I' for Inactive)
REMARK    1  A    between atoms: C_1  and  C_2
REMARK    2  A    between atoms: C_2  and  N_3
REMARK    3  A    between atoms: N_8  and  N_9
REMARK    4  A    between atoms: C_10  and  C_11
REMARK    5  A    between atoms: N_18  and  C_25
REMARK    6  A    between atoms: N_21  and  C_24
REMARK                            x       y       z     vdW  Elec       q    Type
REMARK                         _______ _______ _______ _____ _____    ______ ____
ROOT
ATOM      1  N   UNL     1       2.364  -2.835  -0.036  0.00  0.00    -0.305 N 
ATOM      2  C   UNL     1       1.940  -4.156  -0.039  0.00  0.00    +0.153 A 
ATOM      3  C   UNL     1       0.549  -4.122  -0.025  0.00  0.00    +0.170 A 
ATOM      4  N   UNL     1       0.178  -2.841  -0.009  0.00  0.00    -0.195 NA
ATOM      5  C   UNL     1       1.243  -2.064  -0.021  0.00  0.00    +0.218 A 
ATOM      6  N   UNL     1       1.225  -0.688  -0.013  0.00  0.00    -0.206 N 
ATOM      7  N   UNL     1      -0.149  -5.319  -0.025  0.00  0.00    -0.280 N 
ATOM      8  C   UNL     1       0.518  -6.488  -0.039  0.00  0.00    +0.333 A 
ATOM      9  O   UNL     1      -0.110  -7.529  -0.039  0.00  0.00    -0.246 OA
ATOM     10  N   UNL     1       1.862  -6.533  -0.052  0.00  0.00    -0.262 N 
ATOM     11  C   UNL     1       2.595  -5.401  -0.052  0.00  0.00    +0.282 A 
ATOM     12  O   UNL     1       3.812  -5.455  -0.064  0.00  0.00    -0.265 OA
ATOM     13  C   UNL     1       2.540  -7.832  -0.066  0.00  0.00    +0.157 C 
ATOM     14  C   UNL     1      -1.614  -5.312  -0.010  0.00  0.00    +0.155 C 
ATOM     15  H   UNL     1       2.058  -0.192  -0.019  0.00  0.00    +0.177 HD
ENDROOT
BRANCH   1  17
ATOM     16  C   UNL     1       4.247  -2.205   1.392  0.00  0.00    +0.027 C 
ATOM     17  C   UNL     1       3.750  -2.362  -0.046  0.00  0.00    +0.122 C 
ENDBRANCH   1  17
BRANCH   6  18
ATOM     18  N   UNL     1       0.002  -0.004   0.002  0.00  0.00    -0.188 NA
ATOM     19  C   UNL     1      -0.015   1.294   0.009  0.00  0.00    +0.138 C 
BRANCH  19  20
ATOM     20  C   UNL     1      -1.302   2.014   0.019  0.00  0.00    -0.005 A 
ATOM     21  C   UNL     1      -2.505   1.302   0.015  0.00  0.00    +0.010 A 
ATOM     22  C   UNL     1      -3.705   1.981   0.031  0.00  0.00    +0.016 A 
ATOM     23  C   UNL     1      -3.720   3.366   0.038  0.00  0.00    +0.018 A 
ATOM     24  C   UNL     1      -2.532   4.077   0.036  0.00  0.00    +0.016 A 
ATOM     25  C   UNL     1      -1.325   3.410   0.027  0.00  0.00    +0.010 A 
ATOM     26 BR   UNL     1      -5.370   4.289   0.051  0.00  0.00    -0.050 Br
ENDBRANCH  19  20
ENDBRANCH   6  18
TORSDOF 3
