REMARK  Name = ZINC36503565
REMARK  10 active torsions:
REMARK  status: ('A' for Active; 'I' for Inactive)
REMARK    1  A    between atoms: C_4  and  C_7
REMARK    2  A    between atoms: C_7  and  C_8
REMARK    3  A    between atoms: C_7  and  C_14
REMARK    4  A    between atoms: N_16  and  C_17
REMARK    5  A    between atoms: N_16  and  C_23
REMARK    6  A    between atoms: C_17  and  C_18
REMARK    7  A    between atoms: C_23  and  C_25
REMARK    8  A    between atoms: C_23  and  C_32
REMARK    9  A    between atoms: C_30  and  O_31
REMARK   10  A    between atoms: N_34  and  C_35
REMARK                            x       y       z     vdW  Elec       q    Type
REMARK                         _______ _______ _______ _____ _____    ______ ____
ROOT
ATOM      1  C   UNL     1       3.761  -1.640  -0.558  0.00  0.00    +0.229 C 
ATOM      2  O   UNL     1       2.830  -1.270  -1.241  0.00  0.00    -0.275 OA
ATOM      3  N   UNL     1       4.423  -2.770  -0.875  0.00  0.00    -0.278 N 
ENDROOT
BRANCH   1   4
ATOM      4  C   UNL     1       4.178  -0.836   0.646  0.00  0.00    +0.135 C 
BRANCH   4   8
ATOM      5  C   UNL     1       2.951   3.225   0.140  0.00  0.00    +0.000 A 
ATOM      6  C   UNL     1       4.284   2.927   0.355  0.00  0.00    +0.000 A 
ATOM      7  C   UNL     1       4.681   1.613   0.519  0.00  0.00    +0.005 A 
ATOM      8  C   UNL     1       3.745   0.597   0.469  0.00  0.00    -0.031 A 
ATOM      9  C   UNL     1       2.412   0.894   0.255  0.00  0.00    +0.005 A 
ATOM     10  C   UNL     1       2.015   2.208   0.089  0.00  0.00    +0.000 A 
ENDBRANCH   4   8
BRANCH   4  11
ATOM     11  C   UNL     1       3.530  -1.407   1.881  0.00  0.00    -0.031 A 
ATOM     12  C   UNL     1       4.278  -1.603   3.027  0.00  0.00    +0.005 A 
ATOM     13  C   UNL     1       3.683  -2.127   4.159  0.00  0.00    +0.000 A 
ATOM     14  C   UNL     1       2.340  -2.454   4.146  0.00  0.00    +0.000 A 
ATOM     15  C   UNL     1       1.592  -2.257   3.001  0.00  0.00    +0.000 A 
ATOM     16  C   UNL     1       2.186  -1.729   1.870  0.00  0.00    +0.005 A 
ENDBRANCH   4  11
ENDBRANCH   1   4
BRANCH   3  17
ATOM     17  C   UNL     1       5.603  -3.170  -0.104  0.00  0.00    +0.183 C 
BRANCH  17  18
ATOM     18  C   UNL     1       6.828  -2.510  -0.683  0.00  0.00    +0.122 A 
ATOM     19  C   UNL     1       7.261  -1.269  -0.400  0.00  0.00    +0.046 A 
ATOM     20  C   UNL     1       8.435  -1.062  -1.159  0.00  0.00    +0.041 A 
ATOM     21  C   UNL     1       8.650  -2.189  -1.861  0.00  0.00    +0.195 A 
ATOM     22  O   UNL     1       7.676  -3.065  -1.563  0.00  0.00    -0.466 OA
ENDBRANCH  17  18
ENDBRANCH   3  17
BRANCH   3  23
ATOM     23  C   UNL     1       3.963  -3.599  -1.992  0.00  0.00    +0.196 C 
BRANCH  23  24
ATOM     24  C   UNL     1       3.840  -2.750  -3.231  0.00  0.00    +0.023 A 
ATOM     25  C   UNL     1       2.595  -2.339  -3.667  0.00  0.00    +0.009 A 
ATOM     26  C   UNL     1       2.482  -1.561  -4.804  0.00  0.00    +0.001 A 
ATOM     27  C   UNL     1       3.613  -1.190  -5.507  0.00  0.00    +0.004 A 
ATOM     28  C   UNL     1       4.860  -1.598  -5.075  0.00  0.00    +0.046 A 
ATOM     29  C   UNL     1       4.977  -2.375  -3.931  0.00  0.00    +0.122 A 
BRANCH  29  30
ATOM     30  O   UNL     1       6.203  -2.772  -3.501  0.00  0.00    -0.506 OA
ATOM     31  H   UNL     1       6.528  -3.577  -3.927  0.00  0.00    +0.292 HD
ENDBRANCH  29  30
ENDBRANCH  23  24
BRANCH  23  32
ATOM     32  C   UNL     1       2.619  -4.194  -1.656  0.00  0.00    +0.238 C 
ATOM     33  O   UNL     1       1.997  -3.784  -0.699  0.00  0.00    -0.273 OA
ATOM     34  N   UNL     1       2.110  -5.182  -2.418  0.00  0.00    -0.311 N 
ATOM     35  H   UNL     1       2.638  -5.560  -3.138  0.00  0.00    +0.149 HD
BRANCH  34  36
ATOM     36  C   UNL     1       0.759  -5.684  -2.159  0.00  0.00    +0.073 C 
ATOM     37  C   UNL     1       0.813  -6.755  -1.067  0.00  0.00    +0.022 C 
ATOM     38  C   UNL     1      -0.598  -7.279  -0.796  0.00  0.00    +0.002 C 
ATOM     39  C   UNL     1      -1.171  -7.888  -2.078  0.00  0.00    +0.000 C 
ATOM     40  C   UNL     1      -1.226  -6.817  -3.170  0.00  0.00    +0.002 C 
ATOM     41  C   UNL     1       0.186  -6.293  -3.441  0.00  0.00    +0.022 C 
ENDBRANCH  34  36
ENDBRANCH  23  32
ENDBRANCH   3  23
TORSDOF 10
