REMARK  Name = ZINC64871151
REMARK  5 active torsions:
REMARK  status: ('A' for Active; 'I' for Inactive)
REMARK    1  A    between atoms: C_1  and  C_2
REMARK    2  A    between atoms: C_6  and  C_8
REMARK    3  A    between atoms: C_11  and  C_15
REMARK    4  A    between atoms: N_25  and  C_28
REMARK    5  A    between atoms: C_28  and  C_29
REMARK                            x       y       z     vdW  Elec       q    Type
REMARK                         _______ _______ _______ _____ _____    ______ ____
ROOT
ATOM      1  C   UNL     1       1.166  -5.576   4.264  0.00  0.00    -0.000 A 
ATOM      2  C   UNL     1      -0.121  -6.063   4.095  0.00  0.00    +0.008 A 
ATOM      3  C   UNL     1      -0.508  -7.240   4.701  0.00  0.00    +0.016 A 
ATOM      4  C   UNL     1       0.405  -7.939   5.487  0.00  0.00    +0.063 A 
ATOM      5  C   UNL     1       1.710  -7.445   5.657  0.00  0.00    +0.056 A 
ATOM      6  C   UNL     1       2.082  -6.262   5.036  0.00  0.00    +0.034 A 
ATOM      7  N   UNL     1       2.598  -8.162   6.445  0.00  0.00    -0.307 N 
ATOM      8  H   UNL     1       3.502  -7.833   6.572  0.00  0.00    +0.170 HD
ATOM      9  C   UNL     1       2.219  -9.309   7.034  0.00  0.00    +0.330 A 
ATOM     10  O   UNL     1       3.027  -9.908   7.717  0.00  0.00    -0.246 OA
ATOM     11  N   UNL     1       0.986  -9.822   6.902  0.00  0.00    -0.256 N 
ATOM     12  C   UNL     1       0.045  -9.202   6.156  0.00  0.00    +0.265 A 
ATOM     13  O   UNL     1      -1.070  -9.673   6.041  0.00  0.00    -0.267 OA
ENDROOT
BRANCH   1  16
ATOM     14  C   UNL     1       0.054  -2.845   2.489  0.00  0.00    +0.180 C 
ATOM     15  N   UNL     1       0.807  -4.112   2.342  0.00  0.00    -0.265 NA
ATOM     16  C   UNL     1       1.570  -4.288   3.594  0.00  0.00    +0.242 C 
ATOM     17  O   UNL     1       1.256  -3.170   4.445  0.00  0.00    -0.274 OA
ATOM     18  N   UNL     1       0.819  -2.097   3.522  0.00  0.00    -0.177 NA
ATOM     19  H   UNL     1       0.182  -4.889   2.187  0.00  0.00    +0.127 HD
ATOM     20  H   UNL     1       1.613  -1.626   3.115  0.00  0.00    +0.156 HD
BRANCH  14  26
ATOM     21  C   UNL     1      -0.018   1.503   0.010  0.00  0.00    +0.044 C 
ATOM     22  C   UNL     1       0.002  -0.004   0.002  0.00  0.00    -0.050 A 
ATOM     23  C   UNL     1       0.006  -0.689  -1.199  0.00  0.00    +0.003 A 
ATOM     24  C   UNL     1       0.025  -2.071  -1.207  0.00  0.00    +0.001 A 
ATOM     25  C   UNL     1       0.040  -2.768  -0.013  0.00  0.00    +0.006 A 
ATOM     26  C   UNL     1       0.037  -2.084   1.188  0.00  0.00    -0.014 A 
ATOM     27  C   UNL     1       0.023  -0.702   1.195  0.00  0.00    +0.010 A 
ENDBRANCH  14  26
ENDBRANCH   1  16
BRANCH  11  28
ATOM     28  C   UNL     1       0.653 -11.078   7.578  0.00  0.00    +0.165 C 
BRANCH  28  29
ATOM     29  C   UNL     1       0.113 -10.781   8.953  0.00  0.00    -0.027 A 
ATOM     30  C   UNL     1       0.977 -10.692  10.029  0.00  0.00    +0.008 A 
ATOM     31  C   UNL     1       0.483 -10.419  11.291  0.00  0.00    +0.038 A 
ATOM     32  C   UNL     1      -0.877 -10.235  11.477  0.00  0.00    +0.123 A 
ATOM     33  C   UNL     1      -1.740 -10.324  10.398  0.00  0.00    +0.038 A 
ATOM     34  C   UNL     1      -1.244 -10.592   9.136  0.00  0.00    +0.008 A 
ATOM     35  F   UNL     1      -1.361  -9.969  12.710  0.00  0.00    -0.205 F 
ENDBRANCH  28  29
ENDBRANCH  11  28
TORSDOF 4
