REMARK  Name = ZINC36595283
REMARK  12 active torsions:
REMARK  status: ('A' for Active; 'I' for Inactive)
REMARK    1  A    between atoms: C_1  and  C_2
REMARK    2  A    between atoms: C_2  and  C_3
REMARK    3  A    between atoms: C_3  and  C_4
REMARK    4  A    between atoms: C_4  and  N_5
REMARK    5  A    between atoms: C_6  and  C_8
REMARK    6  A    between atoms: C_8  and  C_10
REMARK    7  A    between atoms: C_8  and  N_24
REMARK    8  A    between atoms: N_24  and  C_25
REMARK    9  A    between atoms: C_25  and  C_26
REMARK   10  A    between atoms: C_29  and  C_31
REMARK   11  A    between atoms: C_32  and  C_34
REMARK   12  A    between atoms: C_39  and  O_40
REMARK                            x       y       z     vdW  Elec       q    Type
REMARK                         _______ _______ _______ _____ _____    ______ ____
ROOT
ATOM      1  C   UNL     1      -3.657  -4.463  -0.074  0.00  0.00    +0.193 C 
ENDROOT
BRANCH   1   2
ATOM      2  C   UNL     1      -3.377  -4.593  -1.549  0.00  0.00    -0.010 A 
ATOM      3  C   UNL     1      -2.101  -4.685  -1.973  0.00  0.00    +0.015 A 
ATOM      4  C   UNL     1      -1.787  -4.809  -3.346  0.00  0.00    -0.017 A 
ATOM      5  C   UNL     1      -0.456  -4.904  -3.777  0.00  0.00    +0.008 A 
ATOM      6  C   UNL     1      -0.182  -5.023  -5.108  0.00  0.00    +0.001 A 
ATOM      7  C   UNL     1      -1.206  -5.052  -6.048  0.00  0.00    +0.001 A 
ATOM      8  C   UNL     1      -2.512  -4.961  -5.661  0.00  0.00    +0.009 A 
ATOM      9  C   UNL     1      -2.825  -4.839  -4.306  0.00  0.00    -0.010 A 
ATOM     10  C   UNL     1      -4.212  -4.739  -3.845  0.00  0.00    -0.010 A 
ATOM     11  C   UNL     1      -4.460  -4.623  -2.458  0.00  0.00    -0.012 A 
ATOM     12  C   UNL     1      -5.785  -4.532  -2.007  0.00  0.00    +0.009 A 
ATOM     13  C   UNL     1      -6.810  -4.563  -2.906  0.00  0.00    +0.001 A 
ATOM     14  C   UNL     1      -6.562  -4.683  -4.268  0.00  0.00    +0.001 A 
ATOM     15  C   UNL     1      -5.283  -4.762  -4.740  0.00  0.00    +0.009 A 
ENDBRANCH   1   2
BRANCH   1  17
ATOM     16  N   UNL     1      -2.032  -2.716   0.578  0.00  0.00    -0.313 N 
ATOM     17  C   UNL     1      -2.407  -4.009   0.635  0.00  0.00    +0.238 C 
ATOM     18  O   UNL     1      -1.739  -4.807   1.258  0.00  0.00    -0.273 OA
ATOM     19  H   UNL     1      -2.529  -2.090   0.028  0.00  0.00    +0.149 HD
BRANCH  16  20
ATOM     20  C   UNL     1      -0.873  -2.255   1.347  0.00  0.00    +0.104 C 
BRANCH  20  21
ATOM     21  C   UNL     1      -0.664  -0.758   1.107  0.00  0.00    +0.018 C 
BRANCH  21  23
ATOM     22  C   UNL     1       0.755   1.220   1.670  0.00  0.00    +0.004 C 
ATOM     23  C   UNL     1       0.546  -0.277   1.910  0.00  0.00    -0.002 C 
ENDBRANCH  21  23
ENDBRANCH  20  21
ENDBRANCH  16  20
ENDBRANCH   1  17
BRANCH   1  24
ATOM     24  N   UNL     1      -4.078  -5.760   0.460  0.00  0.00    -0.274 N 
ATOM     25  C   UNL     1      -3.919  -6.033   1.770  0.00  0.00    +0.251 C 
ATOM     26  O   UNL     1      -4.128  -7.156   2.187  0.00  0.00    -0.270 OA
BRANCH  25  27
ATOM     27  C   UNL     1      -3.493  -4.969   2.699  0.00  0.00    +0.078 A 
ATOM     28  C   UNL     1      -3.682  -3.626   2.364  0.00  0.00    +0.017 A 
ATOM     29  C   UNL     1      -3.282  -2.637   3.235  0.00  0.00    +0.001 A 
ATOM     30  C   UNL     1      -2.692  -2.968   4.445  0.00  0.00    +0.004 A 
ATOM     31  C   UNL     1      -2.499  -4.291   4.789  0.00  0.00    +0.046 A 
ATOM     32  C   UNL     1      -2.901  -5.299   3.925  0.00  0.00    +0.129 A 
BRANCH  32  33
ATOM     33  O   UNL     1      -2.716  -6.600   4.264  0.00  0.00    -0.506 OA
ATOM     34  H   UNL     1      -1.866  -6.963   3.982  0.00  0.00    +0.292 HD
ENDBRANCH  32  33
ENDBRANCH  25  27
BRANCH  24  35
ATOM     35  C   UNL     1      -4.671  -6.761  -0.430  0.00  0.00    +0.183 C 
BRANCH  35  36
ATOM     36  C   UNL     1      -3.582  -7.633  -1.001  0.00  0.00    +0.122 A 
ATOM     37  C   UNL     1      -3.125  -8.776  -0.460  0.00  0.00    +0.046 A 
ATOM     38  C   UNL     1      -2.112  -9.260  -1.320  0.00  0.00    +0.045 A 
ATOM     39  C   UNL     1      -2.012  -8.384  -2.336  0.00  0.00    +0.102 A 
ATOM     40  O   UNL     1      -2.909  -7.403  -2.140  0.00  0.00    -0.463 OA
ATOM     41  C   UNL     1      -1.059  -8.488  -3.498  0.00  0.00    +0.086 C 
ENDBRANCH  35  36
ENDBRANCH  24  35
ENDBRANCH   1  24
TORSDOF 10
