REMARK  Name = ZINC09209790
REMARK  5 active torsions:
REMARK  status: ('A' for Active; 'I' for Inactive)
REMARK    1  A    between atoms: C_1  and  C_2
REMARK    2  A    between atoms: C_4  and  N_36
REMARK    3  A    between atoms: C_7  and  N_8
REMARK    4  A    between atoms: C_23  and  C_29
REMARK    5  A    between atoms: C_29  and  C_31
REMARK                            x       y       z     vdW  Elec       q    Type
REMARK                         _______ _______ _______ _____ _____    ______ ____
ROOT
ATOM      1  N   UNL     1       1.274   3.747   1.008  0.00  0.00    -0.210 N 
ATOM      2  C   UNL     1       0.773   4.053  -0.199  0.00  0.00    +0.232 C 
ATOM      3  O   UNL     1       0.142   5.050  -0.475  0.00  0.00    -0.274 OA
ATOM      4  C   UNL     1       1.133   2.938  -1.158  0.00  0.00    +0.113 C 
ATOM      5  C   UNL     1      -0.097   2.470  -1.933  0.00  0.00    +0.100 C 
ATOM      6  C   UNL     1      -1.084   3.590  -2.139  0.00  0.00    -0.021 A 
ATOM      7  C   UNL     1      -0.663   4.884  -2.336  0.00  0.00    +0.006 A 
ATOM      8  C   UNL     1      -1.594   5.894  -2.517  0.00  0.00    +0.000 A 
ATOM      9  C   UNL     1      -2.947   5.606  -2.500  0.00  0.00    +0.001 A 
ATOM     10  C   UNL     1      -3.382   4.311  -2.307  0.00  0.00    +0.008 A 
ATOM     11  C   UNL     1      -2.451   3.286  -2.128  0.00  0.00    -0.019 A 
ATOM     12  C   UNL     1      -2.905   1.895  -1.927  0.00  0.00    +0.022 C 
ATOM     13  C   UNL     1      -2.052   0.989  -1.410  0.00  0.00    +0.054 C 
ATOM     14  C   UNL     1       0.071   1.083   0.015  0.00  0.00    +0.144 C 
ATOM     15  C   UNL     1       1.442   1.760  -0.184  0.00  0.00    +0.116 C 
ATOM     16  C   UNL     1       1.787   2.510   1.093  0.00  0.00    +0.232 C 
ATOM     17  O   UNL     1       2.417   2.066   2.029  0.00  0.00    -0.274 OA
ATOM     18  N   UNL     1      -0.565   1.248  -1.326  0.00  0.00    -0.384 NA
ATOM     19  H   UNL     1      -0.158   0.502  -1.902  0.00  0.00    +0.127 HD
ENDROOT
BRANCH   1  26
ATOM     20  C   UNL     1       3.529   5.447   1.368  0.00  0.00    +0.046 C 
ATOM     21  C   UNL     1       2.343   5.490   2.298  0.00  0.00    -0.026 A 
ATOM     22  C   UNL     1       2.328   6.375   3.359  0.00  0.00    +0.038 A 
ATOM     23  C   UNL     1       1.243   6.411   4.215  0.00  0.00    +0.127 A 
ATOM     24  C   UNL     1       0.168   5.565   4.010  0.00  0.00    +0.034 A 
ATOM     25  C   UNL     1       0.176   4.682   2.948  0.00  0.00    +0.026 A 
ATOM     26  C   UNL     1       1.264   4.644   2.087  0.00  0.00    +0.047 A 
BRANCH  23  27
ATOM     27  N   UNL     1       1.232   7.356   5.354  0.00  0.00    +0.056 N 
ATOM     28  O   UNL     1       0.277   7.388   6.110  0.00  0.00    -0.126 OA
ATOM     29  O   UNL     1       2.178   8.101   5.536  0.00  0.00    -0.126 OA
ENDBRANCH  23  27
ENDBRANCH   1  26
BRANCH  14  30
ATOM     30  C   UNL     1      -0.557   1.569   1.297  0.00  0.00    +0.217 C 
ATOM     31  O   UNL     1      -1.357   2.483   1.273  0.00  0.00    -0.287 OA
BRANCH  30  32
ATOM     32  C   UNL     1      -0.215   0.961   2.526  0.00  0.00    +0.172 A 
ATOM     33  C   UNL     1      -0.656   1.348   3.776  0.00  0.00    +0.053 A 
ATOM     34  C   UNL     1      -0.069   0.469   4.695  0.00  0.00    +0.042 A 
ATOM     35  C   UNL     1       0.696  -0.396   3.990  0.00  0.00    +0.196 A 
ATOM     36  O   UNL     1       0.607  -0.098   2.688  0.00  0.00    -0.460 OA
ENDBRANCH  30  32
ENDBRANCH  14  30
TORSDOF 4
