REMARK  Name = ZINC09556565
REMARK  9 active torsions:
REMARK  status: ('A' for Active; 'I' for Inactive)
REMARK    1  A    between atoms: C_1  and  C_2
REMARK    2  A    between atoms: C_2  and  C_3
REMARK    3  A    between atoms: C_3  and  C_4
REMARK    4  A    between atoms: C_4  and  C_5
REMARK    5  A    between atoms: C_5  and  O_6
REMARK    6  A    between atoms: O_6  and  C_7
REMARK    7  A    between atoms: C_10  and  C_13
REMARK    8  A    between atoms: C_31  and  C_35
REMARK    9  A    between atoms: C_32  and  C_34
REMARK                            x       y       z     vdW  Elec       q    Type
REMARK                         _______ _______ _______ _____ _____    ______ ____
ROOT
ATOM      1  C   UNL     1       1.755  -2.086  -0.026  0.00  0.00    +0.151 C 
ATOM      2  C   UNL     1       1.320  -0.644  -0.014  0.00  0.00    +0.072 A 
ATOM      3  C   UNL     1       0.002  -0.004   0.002  0.00  0.00    +0.199 A 
ATOM      4  O   UNL     1      -1.026  -0.658   0.008  0.00  0.00    -0.287 OA
ATOM      5  C   UNL     1      -0.018   1.472   0.010  0.00  0.00    +0.064 A 
ATOM      6  C   UNL     1      -1.216   2.184   0.020  0.00  0.00    +0.015 A 
ATOM      7  C   UNL     1      -1.191   3.551   0.033  0.00  0.00    +0.001 A 
ATOM      8  C   UNL     1       0.020   4.230   0.025  0.00  0.00    +0.004 A 
ATOM      9  C   UNL     1       1.214   3.543   0.009  0.00  0.00    +0.047 A 
ATOM     10  C   UNL     1       1.213   2.151   0.002  0.00  0.00    +0.139 A 
ATOM     11  O   UNL     1       2.370   1.465  -0.013  0.00  0.00    -0.450 OA
ATOM     12  C   UNL     1       2.441   0.119  -0.021  0.00  0.00    +0.199 A 
ATOM     13  C   UNL     1       3.619  -0.781  -0.037  0.00  0.00    +0.289 C 
ATOM     14  O   UNL     1       4.777  -0.411  -0.046  0.00  0.00    -0.266 OA
ATOM     15  N   UNL     1       3.223  -2.066  -0.040  0.00  0.00    -0.232 N 
ATOM     16  C   UNL     1       4.055  -3.177  -0.053  0.00  0.00    +0.169 A 
ATOM     17  N   UNL     1       3.730  -4.455  -0.051  0.00  0.00    -0.229 NA
ATOM     18  C   UNL     1       4.654  -5.395  -0.070  0.00  0.00    +0.050 A 
ATOM     19  C   UNL     1       5.957  -5.019  -0.080  0.00  0.00    +0.011 A 
ATOM     20  S   UNL     1       5.790  -3.240  -0.070  0.00  0.00    -0.057 S 
ATOM     21  C   UNL     1       7.202  -5.868  -0.096  0.00  0.00    +0.053 C 
ATOM     22  C   UNL     1       4.272  -6.853  -0.073  0.00  0.00    +0.066 C 
ENDROOT
BRANCH   1  26
ATOM     23  C   UNL     1       0.344  -4.078   3.482  0.00  0.00    +0.121 A 
ATOM     24  C   UNL     1      -0.332  -4.226   2.279  0.00  0.00    +0.046 A 
ATOM     25  C   UNL     1       0.126  -3.581   1.147  0.00  0.00    +0.009 A 
ATOM     26  C   UNL     1       1.257  -2.789   1.211  0.00  0.00    -0.022 A 
ATOM     27  C   UNL     1       1.936  -2.644   2.407  0.00  0.00    +0.009 A 
ATOM     28  C   UNL     1       1.478  -3.282   3.543  0.00  0.00    +0.046 A 
BRANCH  23  29
ATOM     29  O   UNL     1      -0.105  -4.711   4.597  0.00  0.00    -0.492 OA
BRANCH  29  30
ATOM     30  C   UNL     1       0.640  -4.513   5.800  0.00  0.00    +0.229 C 
BRANCH  30  31
ATOM     31  C   UNL     1      -0.012  -5.299   6.939  0.00  0.00    +0.041 C 
BRANCH  31  32
ATOM     32  C   UNL     1       0.786  -5.087   8.227  0.00  0.00    +0.003 C 
BRANCH  32  34
ATOM     33  C   UNL     1       0.932  -5.660  10.655  0.00  0.00    +0.004 C 
ATOM     34  C   UNL     1       0.134  -5.872   9.367  0.00  0.00    -0.003 C 
ENDBRANCH  32  34
ENDBRANCH  31  32
ENDBRANCH  30  31
ENDBRANCH  29  30
ENDBRANCH  23  29
ENDBRANCH   1  26
TORSDOF 6
