REMARK  Name = ZINC10049103
REMARK  8 active torsions:
REMARK  status: ('A' for Active; 'I' for Inactive)
REMARK    1  A    between atoms: C_1  and  C_2
REMARK    2  A    between atoms: C_3  and  N_9
REMARK    3  A    between atoms: C_10  and  C_29
REMARK    4  A    between atoms: C_11  and  C_28
REMARK    5  A    between atoms: N_19  and  C_24
REMARK    6  A    between atoms: N_22  and  C_23
REMARK    7  A    between atoms: C_24  and  C_25
REMARK    8  A    between atoms: C_25  and  C_26
REMARK                            x       y       z     vdW  Elec       q    Type
REMARK                         _______ _______ _______ _____ _____    ______ ____
ROOT
ATOM      1  N   UNL     1       1.091   2.329   0.004  0.00  0.00    -0.282 N 
ATOM      2  C   UNL     1      -0.018   1.503   0.010  0.00  0.00    +0.043 A 
ATOM      3  C   UNL     1      -1.106   2.268   0.019  0.00  0.00    +0.044 A 
ATOM      4  N   UNL     1      -0.707   3.593   0.028  0.00  0.00    -0.274 N 
ATOM      5  C   UNL     1       0.646   3.627   0.015  0.00  0.00    +0.223 A 
ATOM      6  N   UNL     1       1.052   4.889   0.018  0.00  0.00    -0.193 NA
ATOM      7  C   UNL     1       0.001   5.704   0.032  0.00  0.00    +0.170 A 
ATOM      8  C   UNL     1      -1.145   4.909   0.039  0.00  0.00    +0.157 A 
ATOM      9  C   UNL     1      -2.406   5.527   0.054  0.00  0.00    +0.283 A 
ATOM     10  O   UNL     1      -3.422   4.853   0.060  0.00  0.00    -0.265 OA
ATOM     11  N   UNL     1      -2.483   6.874   0.062  0.00  0.00    -0.259 N 
ATOM     12  C   UNL     1      -1.373   7.631   0.055  0.00  0.00    +0.333 A 
ATOM     13  O   UNL     1      -1.482   8.843   0.063  0.00  0.00    -0.246 OA
ATOM     14  N   UNL     1      -0.143   7.083   0.040  0.00  0.00    -0.279 N 
ATOM     15  C   UNL     1       1.042   7.943   0.033  0.00  0.00    +0.155 C 
ATOM     16  C   UNL     1      -2.530   1.776   0.022  0.00  0.00    +0.066 C 
ATOM     17  C   UNL     1       0.002  -0.004   0.002  0.00  0.00    +0.066 C 
ENDROOT
BRANCH   1  20
ATOM     18  C   UNL     1       2.399   1.920   2.498  0.00  0.00    +0.047 C 
ATOM     19  C   UNL     1       3.104   1.704   1.184  0.00  0.00    -0.008 A 
ATOM     20  C   UNL     1       2.428   1.915  -0.010  0.00  0.00    +0.054 A 
ATOM     21  C   UNL     1       3.080   1.710  -1.219  0.00  0.00    +0.026 A 
ATOM     22  C   UNL     1       4.401   1.306  -1.231  0.00  0.00    +0.003 A 
ATOM     23  C   UNL     1       5.072   1.096  -0.041  0.00  0.00    +0.020 A 
ATOM     24  C   UNL     1       4.424   1.295   1.166  0.00  0.00    +0.046 A 
ATOM     25 CL   UNL     1       5.271   1.030   2.659  0.00  0.00    -0.083 Cl
ENDBRANCH   1  20
BRANCH  11  26
ATOM     26  C   UNL     1      -3.797   7.521   0.077  0.00  0.00    +0.131 C 
BRANCH  26  27
ATOM     27  C   UNL     1      -4.241   7.739   1.525  0.00  0.00    +0.038 C 
BRANCH  27  28
ATOM     28  C   UNL     1      -5.613   8.415   1.542  0.00  0.00    +0.110 C 
ATOM     29 CL   UNL     1      -6.136   8.672   3.248  0.00  0.00    -0.125 Cl
ENDBRANCH  27  28
ENDBRANCH  26  27
ENDBRANCH  11  26
TORSDOF 4
