REMARK  Name = ZINC02311559
REMARK  4 active torsions:
REMARK  status: ('A' for Active; 'I' for Inactive)
REMARK    1  A    between atoms: C_1  and  C_2
REMARK    2  A    between atoms: C_2  and  O_3
REMARK    3  A    between atoms: C_8  and  C_22
REMARK    4  A    between atoms: C_11  and  C_15
REMARK                            x       y       z     vdW  Elec       q    Type
REMARK                         _______ _______ _______ _____ _____    ______ ____
ROOT
ATOM      1  C   UNL     1       0.034   1.372  -2.536  0.00  0.00    +0.107 C 
ATOM      2  C   UNL     1       0.166  -0.080  -2.153  0.00  0.00    +0.164 C 
ATOM      3  N   UNL     1      -0.128  -0.463  -0.947  0.00  0.00    -0.298 N 
ATOM      4  C   UNL     1      -0.170  -1.800  -0.643  0.00  0.00    +0.251 A 
ATOM      5  N   UNL     1      -0.029  -2.788  -1.506  0.00  0.00    -0.129 NA
ATOM      6  N   UNL     1      -0.141  -3.973  -0.780  0.00  0.00    -0.219 N 
ATOM      7  C   UNL     1      -0.071  -5.357  -1.241  0.00  0.00    +0.165 C 
ATOM      8  C   UNL     1       0.043  -6.281  -0.059  0.00  0.00    +0.028 C 
ATOM      9  C   UNL     1      -0.157  -5.892   1.193  0.00  0.00    +0.039 C 
ATOM     10  N   UNL     1      -0.489  -4.570   1.515  0.00  0.00    -0.283 N 
ATOM     11  C   UNL     1      -0.344  -3.620   0.515  0.00  0.00    +0.220 A 
ATOM     12  N   UNL     1      -0.357  -2.318   0.585  0.00  0.00    -0.178 NA
ATOM     13  H   UNL     1      -0.318   0.197  -0.261  0.00  0.00    +0.171 HD
ATOM     14  H   UNL     1      -0.807  -4.329   2.399  0.00  0.00    +0.155 HD
ENDROOT
BRANCH   9  15
ATOM     15  C   UNL     1      -0.027  -6.886   2.283  0.00  0.00    -0.004 A 
ATOM     16  C   UNL     1       0.309  -8.207   1.989  0.00  0.00    +0.011 A 
ATOM     17  C   UNL     1       0.429  -9.129   3.009  0.00  0.00    +0.020 A 
ATOM     18  C   UNL     1       0.217  -8.744   4.322  0.00  0.00    +0.041 A 
ATOM     19  C   UNL     1      -0.116  -7.433   4.619  0.00  0.00    +0.020 A 
ATOM     20  C   UNL     1      -0.233  -6.502   3.608  0.00  0.00    +0.011 A 
ATOM     21 CL   UNL     1       0.370  -9.909   5.600  0.00  0.00    -0.084 Cl
ENDBRANCH   9  15
BRANCH   7  22
ATOM     22  C   UNL     1      -1.320  -5.690  -2.017  0.00  0.00    -0.019 A 
ATOM     23  C   UNL     1      -2.557  -5.597  -1.408  0.00  0.00    +0.006 A 
ATOM     24  C   UNL     1      -3.702  -5.903  -2.120  0.00  0.00    +0.000 A 
ATOM     25  C   UNL     1      -3.610  -6.301  -3.440  0.00  0.00    +0.000 A 
ATOM     26  C   UNL     1      -2.372  -6.394  -4.049  0.00  0.00    +0.000 A 
ATOM     27  C   UNL     1      -1.227  -6.084  -3.339  0.00  0.00    +0.006 A 
ENDBRANCH   7  22
BRANCH   2  28
ATOM     28  O   UNL     1       0.590  -0.981  -3.062  0.00  0.00    -0.497 OA
ATOM     29  H   UNL     1       0.744  -1.864  -2.699  0.00  0.00    +0.293 HD
ENDBRANCH   2  28
TORSDOF 3
