REMARK  Name = ZINC38650665
REMARK  16 active torsions:
REMARK  status: ('A' for Active; 'I' for Inactive)
REMARK    1  A    between atoms: C_1  and  C_2
REMARK    2  A    between atoms: C_2  and  C_3
REMARK    3  A    between atoms: C_3  and  C_4
REMARK    4  A    between atoms: C_4  and  C_5
REMARK    5  A    between atoms: C_5  and  O_6
REMARK    6  A    between atoms: O_6  and  C_7
REMARK    7  A    between atoms: C_10  and  C_13
REMARK    8  A    between atoms: C_13  and  O_15
REMARK    9  A    between atoms: O_15  and  C_16
REMARK   10  A    between atoms: C_23  and  N_39
REMARK   11  A    between atoms: C_24  and  C_37
REMARK   12  A    between atoms: C_25  and  C_27
REMARK   13  A    between atoms: C_30  and  O_33
REMARK   14  A    between atoms: O_33  and  C_34
REMARK   15  A    between atoms: C_34  and  C_35
REMARK   16  A    between atoms: C_35  and  C_36
REMARK                            x       y       z     vdW  Elec       q    Type
REMARK                         _______ _______ _______ _____ _____    ______ ____
ROOT
ATOM      1  C   UNL     1      -9.101  -8.480   0.015  0.00  0.00    +0.135 A 
ATOM      2  C   UNL     1     -10.188  -7.619  -0.053  0.00  0.00    +0.047 A 
ATOM      3  C   UNL     1     -11.471  -8.129  -0.078  0.00  0.00    +0.012 A 
ATOM      4  C   UNL     1     -11.679  -9.496  -0.035  0.00  0.00    +0.008 A 
ATOM      5  C   UNL     1     -10.597 -10.360   0.033  0.00  0.00    +0.138 A 
ATOM      6  C   UNL     1      -9.306  -9.849   0.053  0.00  0.00    +0.093 A 
ATOM      7  O   UNL     1     -10.781 -11.703   0.075  0.00  0.00    -0.441 OA
ATOM      8  C   UNL     1     -11.974 -12.205   0.435  0.00  0.00    +0.199 C 
ATOM      9  C   UNL     1     -13.106 -11.464   0.393  0.00  0.00    +0.098 C 
ATOM     10  C   UNL     1     -13.086 -10.032  -0.064  0.00  0.00    +0.098 C 
ENDROOT
BRANCH  10  11
ATOM     11  C   UNL     1     -13.623  -9.949  -1.470  0.00  0.00    -0.034 A 
ATOM     12  C   UNL     1     -12.988 -10.629  -2.493  0.00  0.00    +0.008 A 
ATOM     13  C   UNL     1     -13.478 -10.554  -3.782  0.00  0.00    +0.046 A 
ATOM     14  C   UNL     1     -14.609  -9.796  -4.050  0.00  0.00    +0.121 A 
ATOM     15  C   UNL     1     -15.245  -9.115  -3.022  0.00  0.00    +0.046 A 
ATOM     16  C   UNL     1     -14.754  -9.198  -1.733  0.00  0.00    +0.008 A 
BRANCH  14  17
ATOM     17  O   UNL     1     -15.093  -9.720  -5.318  0.00  0.00    -0.492 OA
BRANCH  17  18
ATOM     18  C   UNL     1     -16.261  -8.922  -5.520  0.00  0.00    +0.229 C 
BRANCH  18  19
ATOM     19  C   UNL     1     -16.653  -8.957  -6.998  0.00  0.00    +0.038 C 
ATOM     20  C   UNL     1     -17.903  -8.102  -7.215  0.00  0.00    +0.007 C 
ENDBRANCH  18  19
ENDBRANCH  17  18
ENDBRANCH  14  17
ENDBRANCH  10  11
BRANCH   8  21
ATOM     21  N   UNL     1     -12.047 -13.509   0.859  0.00  0.00    -0.328 N 
ATOM     22  H   UNL     1     -11.244 -14.053   0.895  0.00  0.00    +0.145 HD
ATOM     23  H   UNL     1     -12.901 -13.886   1.123  0.00  0.00    +0.145 HD
ENDBRANCH   8  21
BRANCH   9  24
ATOM     24  C   UNL     1     -14.347 -12.056   0.791  0.00  0.00    +0.101 C 
ATOM     25  N   UNL     1     -15.332 -12.525   1.107  0.00  0.00    -0.191 NA
ENDBRANCH   9  24
BRANCH   1  26
ATOM     26  O   UNL     1      -7.837  -7.980   0.040  0.00  0.00    -0.422 OA
BRANCH  26  27
ATOM     27  C   UNL     1      -7.113  -8.034  -1.095  0.00  0.00    +0.344 C 
ATOM     28  O   UNL     1      -7.560  -8.598  -2.074  0.00  0.00    -0.245 OA
BRANCH  27  32
ATOM     29  C   UNL     1      -3.273  -6.230  -1.252  0.00  0.00    +0.121 A 
ATOM     30  C   UNL     1      -3.782  -6.876  -2.373  0.00  0.00    +0.046 A 
ATOM     31  C   UNL     1      -5.027  -7.463  -2.326  0.00  0.00    +0.018 A 
ATOM     32  C   UNL     1      -5.779  -7.408  -1.149  0.00  0.00    +0.060 A 
ATOM     33  C   UNL     1      -5.264  -6.757  -0.025  0.00  0.00    +0.018 A 
ATOM     34  C   UNL     1      -4.016  -6.178  -0.078  0.00  0.00    +0.046 A 
BRANCH  29  35
ATOM     35  O   UNL     1      -2.046  -5.654  -1.302  0.00  0.00    -0.492 OA
BRANCH  35  36
ATOM     36  C   UNL     1      -1.337  -5.744  -2.539  0.00  0.00    +0.229 C 
BRANCH  36  37
ATOM     37  C   UNL     1       0.016  -5.042  -2.404  0.00  0.00    +0.041 C 
BRANCH  37  38
ATOM     38  C   UNL     1       0.776  -5.139  -3.729  0.00  0.00    +0.003 C 
BRANCH  38  40
ATOM     39  C   UNL     1       2.888  -4.534  -4.918  0.00  0.00    +0.004 C 
ATOM     40  C   UNL     1       2.128  -4.437  -3.594  0.00  0.00    -0.003 C 
ENDBRANCH  38  40
ENDBRANCH  37  38
ENDBRANCH  36  37
ENDBRANCH  35  36
ENDBRANCH  29  35
ENDBRANCH  27  32
ENDBRANCH  26  27
ENDBRANCH   1  26
TORSDOF 14
