REMARK  Name = ZINC36354680
REMARK  8 active torsions:
REMARK  status: ('A' for Active; 'I' for Inactive)
REMARK    1  A    between atoms: C_4  and  C_7
REMARK    2  A    between atoms: C_7  and  C_9
REMARK    3  A    between atoms: C_7  and  N_16
REMARK    4  A    between atoms: N_19  and  C_22
REMARK    5  A    between atoms: C_22  and  C_24
REMARK    6  A    between atoms: C_22  and  C_36
REMARK    7  A    between atoms: C_32  and  C_34
REMARK    8  A    between atoms: C_34  and  O_35
REMARK                            x       y       z     vdW  Elec       q    Type
REMARK                         _______ _______ _______ _____ _____    ______ ____
ROOT
ATOM      1  N   UNL     1       3.747  -1.922   0.787  0.00  0.00    -0.295 NA
ATOM      2  C   UNL     1       2.893  -2.973   0.214  0.00  0.00    +0.067 C 
ATOM      3  C   UNL     1       2.910  -4.197   1.132  0.00  0.00    -0.062 C 
ATOM      4  N   UNL     1       4.289  -4.685   1.272  0.00  0.00    +0.393 N 
ATOM      5  C   UNL     1       5.124  -3.633   1.868  0.00  0.00    -0.062 C 
ATOM      6  C   UNL     1       5.125  -2.404   0.956  0.00  0.00    +0.067 C 
ATOM      7  H   UNL     1       4.653  -4.928   0.363  0.00  0.00    -0.080 HD
ENDROOT
BRANCH   1   8
ATOM      8  C   UNL     1       3.711  -0.707  -0.038  0.00  0.00    +0.117 C 
BRANCH   8   9
ATOM      9  C   UNL     1       2.292  -0.211  -0.140  0.00  0.00    -0.026 A 
ATOM     10  C   UNL     1       1.497  -0.154   0.989  0.00  0.00    +0.007 A 
ATOM     11  C   UNL     1       0.195   0.302   0.895  0.00  0.00    +0.020 A 
ATOM     12  C   UNL     1      -0.312   0.700  -0.329  0.00  0.00    +0.041 A 
ATOM     13  C   UNL     1       0.484   0.642  -1.458  0.00  0.00    +0.020 A 
ATOM     14  C   UNL     1       1.788   0.193  -1.363  0.00  0.00    +0.007 A 
ATOM     15 CL   UNL     1      -1.947   1.271  -0.447  0.00  0.00    -0.084 Cl
ENDBRANCH   8   9
BRANCH   8  19
ATOM     16  C   UNL     1       6.145   2.308   1.761  0.00  0.00    +0.000 A 
ATOM     17  C   UNL     1       6.242   2.060   0.405  0.00  0.00    +0.000 A 
ATOM     18  C   UNL     1       5.454   1.084  -0.177  0.00  0.00    +0.005 A 
ATOM     19  C   UNL     1       4.570   0.356   0.597  0.00  0.00    -0.026 A 
ATOM     20  C   UNL     1       4.475   0.603   1.954  0.00  0.00    +0.005 A 
ATOM     21  C   UNL     1       5.261   1.580   2.535  0.00  0.00    +0.000 A 
ENDBRANCH   8  19
ENDBRANCH   1   8
BRANCH   4  22
ATOM     22  C   UNL     1       4.303  -5.871   2.138  0.00  0.00    +0.080 C 
BRANCH  22  23
ATOM     23  C   UNL     1       3.447  -6.950   1.526  0.00  0.00    -0.025 A 
ATOM     24  C   UNL     1       3.156  -7.096   0.224  0.00  0.00    +0.086 A 
ATOM     25  N   UNL     1       2.353  -8.189   0.045  0.00  0.00    -0.360 N 
ATOM     26  H   UNL     1       2.012  -8.496  -0.810  0.00  0.00    +0.165 HD
ATOM     27  C   UNL     1       2.102  -8.789   1.258  0.00  0.00    +0.047 A 
ATOM     28  C   UNL     1       2.782  -8.043   2.239  0.00  0.00    +0.002 A 
ATOM     29  C   UNL     1       2.712  -8.427   3.579  0.00  0.00    +0.010 A 
ATOM     30  C   UNL     1       1.985  -9.529   3.932  0.00  0.00    +0.006 A 
ATOM     31  C   UNL     1       1.316 -10.271   2.968  0.00  0.00    -0.020 A 
ATOM     32  C   UNL     1       1.364  -9.905   1.641  0.00  0.00    +0.032 A 
BRANCH  31  33
ATOM     33  C   UNL     1       0.521 -11.484   3.379  0.00  0.00    +0.191 C 
BRANCH  33  34
ATOM     34  O   UNL     1      -0.822 -11.095   3.673  0.00  0.00    -0.390 OA
ATOM     35  H   UNL     1      -1.393 -11.828   3.945  0.00  0.00    +0.210 HD
ENDBRANCH  33  34
ENDBRANCH  31  33
ENDBRANCH  22  23
BRANCH  22  36
ATOM     36  C   UNL     1       5.717  -6.371   2.282  0.00  0.00    +0.347 C 
ATOM     37  O   UNL     1       6.061  -6.940   3.304  0.00  0.00    -0.248 OA
ATOM     38  O   UNL     1       6.516  -6.207   1.376  0.00  0.00    -0.248 OA
ENDBRANCH  22  36
ENDBRANCH   4  22
TORSDOF 8
