REMARK  Name = ZINC15969575
REMARK  5 active torsions:
REMARK  status: ('A' for Active; 'I' for Inactive)
REMARK    1  A    between atoms: C_4  and  C_7
REMARK    2  A    between atoms: C_7  and  C_8
REMARK    3  A    between atoms: C_8  and  N_9
REMARK    4  A    between atoms: C_14  and  C_31
REMARK    5  A    between atoms: C_31  and  C_32
REMARK                            x       y       z     vdW  Elec       q    Type
REMARK                         _______ _______ _______ _____ _____    ______ ____
ROOT
ATOM      1  N   UNL     1       5.450  -1.678   1.382  0.00  0.00    -0.241 N 
ATOM      2  C   UNL     1       5.532  -3.014   1.369  0.00  0.00    +0.227 C 
ATOM      3  O   UNL     1       4.587  -3.773   1.368  0.00  0.00    -0.275 OA
ATOM      4  C   UNL     1       6.986  -3.428   1.355  0.00  0.00    +0.107 C 
ATOM      5  C   UNL     1       7.335  -4.095   2.702  0.00  0.00    +0.072 C 
ATOM      6  N   UNL     1       8.627  -3.480   3.108  0.00  0.00    -0.295 NA
ATOM      7  C   UNL     1       8.495  -2.066   2.710  0.00  0.00    +0.136 C 
ATOM      8  C   UNL     1       7.744  -2.072   1.356  0.00  0.00    +0.122 C 
ATOM      9  C   UNL     1       6.631  -1.049   1.373  0.00  0.00    +0.228 C 
ATOM     10  O   UNL     1       6.784   0.153   1.380  0.00  0.00    -0.275 OA
ATOM     11  C   UNL     1       7.765  -1.266   3.752  0.00  0.00    +0.003 A 
ATOM     12  C   UNL     1       6.511  -1.359   4.312  0.00  0.00    +0.008 A 
ATOM     13  C   UNL     1       6.114  -0.451   5.278  0.00  0.00    +0.000 A 
ATOM     14  C   UNL     1       6.981   0.550   5.678  0.00  0.00    +0.002 A 
ATOM     15  C   UNL     1       8.238   0.647   5.120  0.00  0.00    +0.023 A 
ATOM     16  C   UNL     1       8.645  -0.263   4.147  0.00  0.00    +0.039 A 
ATOM     17  N   UNL     1       9.847  -0.371   3.445  0.00  0.00    -0.283 N 
ATOM     18  C   UNL     1       9.840  -1.405   2.582  0.00  0.00    +0.243 C 
ATOM     19  O   UNL     1      10.743  -1.738   1.843  0.00  0.00    -0.273 OA
ATOM     20  H   UNL     1       8.771  -3.564   4.103  0.00  0.00    +0.124 HD
ATOM     21  H   UNL     1      10.600   0.229   3.565  0.00  0.00    +0.155 HD
ENDROOT
BRANCH   1  22
ATOM     22  C   UNL     1       4.171  -0.963   1.399  0.00  0.00    +0.121 C 
BRANCH  22  23
ATOM     23  C   UNL     1       3.711  -0.707  -0.038  0.00  0.00    +0.054 C 
BRANCH  23  27
ATOM     24  C   UNL     1      -0.017   1.378   0.010  0.00  0.00    +0.000 A 
ATOM     25  C   UNL     1       1.171   2.086   0.002  0.00  0.00    +0.000 A 
ATOM     26  C   UNL     1       2.377   1.411  -0.013  0.00  0.00    +0.004 A 
ATOM     27  C   UNL     1       2.396   0.029  -0.020  0.00  0.00    -0.046 A 
ATOM     28  C   UNL     1       1.208  -0.679  -0.012  0.00  0.00    +0.004 A 
ATOM     29  C   UNL     1       0.002  -0.004   0.002  0.00  0.00    +0.000 A 
ENDBRANCH  23  27
ENDBRANCH  22  23
ENDBRANCH   1  22
BRANCH   5  30
ATOM     30  C   UNL     1       7.495  -5.606   2.523  0.00  0.00    +0.056 C 
BRANCH  30  31
ATOM     31  C   UNL     1       7.714  -6.250   3.868  0.00  0.00    -0.021 A 
ATOM     32  C   UNL     1       8.897  -6.545   4.429  0.00  0.00    +0.087 A 
ATOM     33  N   UNL     1       8.702  -7.123   5.654  0.00  0.00    -0.360 N 
ATOM     34  H   UNL     1       9.408  -7.423   6.248  0.00  0.00    +0.165 HD
ATOM     35  C   UNL     1       7.354  -7.217   5.918  0.00  0.00    +0.047 A 
ATOM     36  C   UNL     1       6.676  -6.668   4.813  0.00  0.00    +0.003 A 
ATOM     37  C   UNL     1       5.281  -6.623   4.805  0.00  0.00    +0.010 A 
ATOM     38  C   UNL     1       4.580  -7.109   5.872  0.00  0.00    +0.001 A 
ATOM     39  C   UNL     1       5.244  -7.648   6.966  0.00  0.00    +0.002 A 
ATOM     40  C   UNL     1       6.620  -7.710   6.991  0.00  0.00    +0.026 A 
ENDBRANCH  30  31
ENDBRANCH   5  30
TORSDOF 5
