REMARK  Name = ZINC09087437
REMARK  5 active torsions:
REMARK  status: ('A' for Active; 'I' for Inactive)
REMARK    1  A    between atoms: C_1  and  C_2
REMARK    2  A    between atoms: C_9  and  C_27
REMARK    3  A    between atoms: C_11  and  C_18
REMARK    4  A    between atoms: C_22  and  N_24
REMARK    5  A    between atoms: C_27  and  C_29
REMARK                            x       y       z     vdW  Elec       q    Type
REMARK                         _______ _______ _______ _____ _____    ______ ____
ROOT
ATOM      1  C   UNL     1      -9.459  -2.712  -0.495  0.00  0.00    +0.044 C 
ATOM      2  C   UNL     1      -9.386  -1.278  -0.951  0.00  0.00    -0.050 A 
ATOM      3  C   UNL     1     -10.356  -0.769  -1.795  0.00  0.00    +0.005 A 
ATOM      4  C   UNL     1     -10.294   0.543  -2.216  0.00  0.00    +0.024 A 
ATOM      5  C   UNL     1      -9.254   1.367  -1.792  0.00  0.00    +0.036 A 
ATOM      6  C   UNL     1      -8.284   0.844  -0.943  0.00  0.00    -0.027 A 
ATOM      7  C   UNL     1      -8.349  -0.467  -0.526  0.00  0.00    +0.008 A 
ATOM      8  C   UNL     1      -7.320   1.966  -0.678  0.00  0.00    +0.052 C 
ATOM      9  C   UNL     1      -5.899   1.602  -1.129  0.00  0.00    +0.070 C 
ATOM     10  C   UNL     1      -5.238   1.026   0.142  0.00  0.00    +0.016 C 
ATOM     11  C   UNL     1      -6.146   1.451   1.301  0.00  0.00    -0.047 C 
ATOM     12  C   UNL     1      -6.986   3.731   0.892  0.00  0.00    -0.005 C 
ATOM     13  S   UNL     1      -6.142   3.772   2.533  0.00  0.00    -0.181 S 
ATOM     14  C   UNL     1      -5.332   2.119   2.420  0.00  0.00    +0.052 C 
ATOM     15  C   UNL     1      -7.860   3.135  -1.458  0.00  0.00    +0.212 C 
ATOM     16  O   UNL     1      -7.381   4.248  -1.519  0.00  0.00    -0.277 OA
ATOM     17  N   UNL     1      -8.978   2.706  -2.074  0.00  0.00    -0.286 N 
ATOM     18  H   UNL     1      -9.527   3.263  -2.647  0.00  0.00    +0.155 HD
ATOM     19  N   UNL     1      -7.239   2.266   0.734  0.00  0.00    +0.401 N 
ATOM     20  H   UNL     1      -8.122   2.023   1.198  0.00  0.00    -0.078 HD
ENDROOT
BRANCH  10  21
ATOM     21  C   UNL     1      -3.858   1.605   0.321  0.00  0.00    -0.043 A 
ATOM     22  C   UNL     1      -3.654   2.964   0.173  0.00  0.00    +0.004 A 
ATOM     23  C   UNL     1      -2.388   3.495   0.337  0.00  0.00    +0.002 A 
ATOM     24  C   UNL     1      -1.327   2.667   0.653  0.00  0.00    +0.033 A 
ATOM     25  C   UNL     1      -1.530   1.307   0.796  0.00  0.00    +0.126 A 
ATOM     26  C   UNL     1      -2.796   0.776   0.633  0.00  0.00    +0.036 A 
BRANCH  25  27
ATOM     27  N   UNL     1      -0.393   0.420   1.131  0.00  0.00    +0.056 N 
ATOM     28  O   UNL     1      -0.573  -0.777   1.262  0.00  0.00    -0.126 OA
ATOM     29  O   UNL     1       0.723   0.887   1.270  0.00  0.00    -0.126 OA
ENDBRANCH  25  27
ENDBRANCH  10  21
BRANCH   9  30
ATOM     30  C   UNL     1      -5.940   0.563  -2.220  0.00  0.00    +0.184 C 
ATOM     31  O   UNL     1      -5.902  -0.615  -1.937  0.00  0.00    -0.290 OA
BRANCH  30  32
ATOM     32  C   UNL     1      -6.025   0.980  -3.633  0.00  0.00    +0.106 A 
ATOM     33  C   UNL     1      -6.063   0.014  -4.639  0.00  0.00    +0.031 A 
ATOM     34  C   UNL     1      -6.144   0.421  -5.961  0.00  0.00    +0.004 A 
ATOM     35  C   UNL     1      -6.185   1.780  -6.233  0.00  0.00    +0.020 A 
ATOM     36  C   UNL     1      -6.144   2.686  -5.183  0.00  0.00    +0.111 A 
ATOM     37  N   UNL     1      -6.072   2.273  -3.937  0.00  0.00    -0.252 NA
ENDBRANCH  30  32
ENDBRANCH   9  30
TORSDOF 4
