REMARK  Name = ZINC32969728
REMARK  5 active torsions:
REMARK  status: ('A' for Active; 'I' for Inactive)
REMARK    1  A    between atoms: C_1  and  C_2
REMARK    2  A    between atoms: C_5  and  N_31
REMARK    3  A    between atoms: C_7  and  C_8
REMARK    4  A    between atoms: C_11  and  C_13
REMARK    5  A    between atoms: C_18  and  C_25
REMARK                            x       y       z     vdW  Elec       q    Type
REMARK                         _______ _______ _______ _____ _____    ______ ____
ROOT
ATOM      1  C   UNL     1       1.753   2.151   4.947  0.00  0.00    +0.062 C 
ATOM      2  C   UNL     1       2.744   2.904   4.317  0.00  0.00    +0.082 C 
ATOM      3  C   UNL     1       3.428   4.037   5.005  0.00  0.00    +0.136 C 
ATOM      4  N   UNL     1       3.660   4.063   6.288  0.00  0.00    -0.284 NA
ATOM      5  N   UNL     1       3.799   5.080   4.126  0.00  0.00    -0.233 N 
ATOM      6  C   UNL     1       4.027   6.362   4.467  0.00  0.00    +0.056 C 
ATOM      7  C   UNL     1       4.459   7.258   3.465  0.00  0.00    +0.072 C 
ATOM      8  S   UNL     1       4.513   6.301   2.081  0.00  0.00    -0.062 S 
ATOM      9  C   UNL     1       3.954   4.775   2.786  0.00  0.00    +0.163 C 
ATOM     10  N   UNL     1       3.710   3.631   2.209  0.00  0.00    -0.154 NA
ATOM     11  C   UNL     1       3.180   2.618   2.935  0.00  0.00    +0.273 C 
ATOM     12  O   UNL     1       3.062   1.500   2.460  0.00  0.00    -0.268 OA
ATOM     13  H   UNL     1       3.454   3.288   6.834  0.00  0.00    +0.188 HD
ENDROOT
BRANCH   6  14
ATOM     14  C   UNL     1       3.830   6.817   5.846  0.00  0.00    -0.003 A 
ATOM     15  C   UNL     1       4.859   7.498   6.519  0.00  0.00    +0.010 A 
ATOM     16  C   UNL     1       4.664   7.922   7.814  0.00  0.00    +0.001 A 
ATOM     17  C   UNL     1       3.459   7.679   8.454  0.00  0.00    +0.000 A 
ATOM     18  C   UNL     1       2.438   7.007   7.799  0.00  0.00    +0.001 A 
ATOM     19  C   UNL     1       2.610   6.580   6.502  0.00  0.00    +0.010 A 
ENDBRANCH   6  14
BRANCH   1  23
ATOM     20  C   UNL     1      -0.252   0.614   2.452  0.00  0.00    +0.136 A 
ATOM     21  C   UNL     1      -0.789   0.007   3.584  0.00  0.00    +0.050 A 
ATOM     22  C   UNL     1      -0.102   0.508   4.678  0.00  0.00    +0.050 A 
ATOM     23  C   UNL     1       0.844   1.415   4.182  0.00  0.00    +0.129 A 
ATOM     24  O   UNL     1       0.729   1.448   2.837  0.00  0.00    -0.455 OA
BRANCH  20  31
ATOM     25  C   UNL     1      -0.836   2.868   0.732  0.00  0.00    +0.044 C 
ATOM     26  C   UNL     1      -0.968   1.456   0.222  0.00  0.00    -0.040 A 
ATOM     27  C   UNL     1      -1.364   1.224  -1.077  0.00  0.00    +0.006 A 
ATOM     28  C   UNL     1      -1.486  -0.072  -1.547  0.00  0.00    +0.033 A 
ATOM     29  C   UNL     1      -1.211  -1.147  -0.718  0.00  0.00    +0.127 A 
ATOM     30  C   UNL     1      -0.813  -0.933   0.584  0.00  0.00    +0.044 A 
ATOM     31  C   UNL     1      -0.681   0.376   1.066  0.00  0.00    +0.022 A 
BRANCH  29  32
ATOM     32  N   UNL     1      -1.345  -2.529  -1.230  0.00  0.00    +0.056 N 
ATOM     33  O   UNL     1      -1.726  -2.735  -2.474  0.00  0.00    -0.126 OA
ATOM     34  O   UNL     1      -1.084  -3.552  -0.443  0.00  0.00    -0.126 OA
ENDBRANCH  29  32
ENDBRANCH  20  31
ENDBRANCH   1  23
TORSDOF 4
