REMARK  Name = ZINC52397303
REMARK  4 active torsions:
REMARK  status: ('A' for Active; 'I' for Inactive)
REMARK    1  A    between atoms: C_1  and  C_2
REMARK    2  A    between atoms: C_2  and  C_3
REMARK    3  A    between atoms: N_11  and  C_15
REMARK    4  A    between atoms: C_15  and  C_16
REMARK                            x       y       z     vdW  Elec       q    Type
REMARK                         _______ _______ _______ _____ _____    ______ ____
ROOT
ATOM      1  C   UNL     1      -1.433  -0.534   0.013  0.00  0.00    -0.011 C 
ATOM      2  C   UNL     1      -2.110  -0.145   1.329  0.00  0.00    +0.006 C 
ATOM      3  C   UNL     1      -3.550  -0.664   1.333  0.00  0.00    +0.035 C 
ATOM      4  C   UNL     1      -3.547  -2.181   1.173  0.00  0.00    +0.113 C 
ATOM      5  C   UNL     1      -2.853  -2.585  -0.123  0.00  0.00    +0.035 C 
ATOM      6  C   UNL     1      -1.415  -2.058  -0.121  0.00  0.00    +0.006 C 
ATOM      7  C   UNL     1      -2.876  -2.835   2.358  0.00  0.00    +0.247 C 
ATOM      8  O   UNL     1      -1.728  -2.694   2.722  0.00  0.00    -0.273 OA
ATOM      9  N   UNL     1      -3.824  -3.610   2.926  0.00  0.00    -0.215 N 
ATOM     10  C   UNL     1      -4.986  -3.531   2.266  0.00  0.00    +0.310 C 
ATOM     11  O   UNL     1      -5.988  -4.139   2.587  0.00  0.00    -0.252 OA
ATOM     12  N   UNL     1      -4.919  -2.704   1.206  0.00  0.00    -0.285 N 
ATOM     13  H   UNL     1      -5.636  -2.494   0.586  0.00  0.00    +0.151 HD
ENDROOT
BRANCH   1  15
ATOM     14  C   UNL     1      -0.019   1.526   0.010  0.00  0.00    +0.004 C 
ATOM     15  C   UNL     1       0.002  -0.004   0.002  0.00  0.00    -0.000 C 
ENDBRANCH   1  15
BRANCH   9  16
ATOM     16  C   UNL     1      -3.608  -4.435   4.117  0.00  0.00    +0.214 C 
BRANCH  16  17
ATOM     17  C   UNL     1      -3.928  -3.631   5.351  0.00  0.00    +0.237 C 
ATOM     18  O   UNL     1      -4.301  -2.481   5.245  0.00  0.00    -0.274 OA
ATOM     19  N   UNL     1      -3.801  -4.189   6.571  0.00  0.00    -0.263 N 
ATOM     20  C   UNL     1      -4.097  -3.447   7.708  0.00  0.00    +0.165 A 
ATOM     21  N   UNL     1      -4.513  -2.207   7.787  0.00  0.00    -0.229 NA
ATOM     22  C   UNL     1      -4.762  -1.613   8.963  0.00  0.00    +0.054 A 
ATOM     23  C   UNL     1      -4.547  -2.393  10.048  0.00  0.00    +0.014 A 
ATOM     24  S   UNL     1      -4.014  -3.924   9.320  0.00  0.00    -0.057 S 
ATOM     25  C   UNL     1      -4.837  -1.672  11.329  0.00  0.00    +0.045 C 
ATOM     26  C   UNL     1      -4.865  -0.177  10.938  0.00  0.00    +0.011 C 
ATOM     27  C   UNL     1      -5.244  -0.247   9.444  0.00  0.00    +0.056 C 
ATOM     28  H   UNL     1      -3.504  -5.108   6.655  0.00  0.00    +0.157 HD
ENDBRANCH  16  17
ENDBRANCH   9  16
TORSDOF 3
