REMARK  Name = ZINC02179318
REMARK  13 active torsions:
REMARK  status: ('A' for Active; 'I' for Inactive)
REMARK    1  A    between atoms: C_1  and  C_2
REMARK    2  A    between atoms: C_2  and  O_3
REMARK    3  A    between atoms: O_3  and  C_4
REMARK    4  A    between atoms: C_4  and  C_6
REMARK    5  A    between atoms: C_7  and  C_29
REMARK    6  A    between atoms: C_9  and  N_28
REMARK    7  A    between atoms: C_10  and  C_26
REMARK    8  A    between atoms: C_11  and  C_13
REMARK    9  A    between atoms: C_15  and  O_24
REMARK   10  A    between atoms: C_16  and  O_20
REMARK   11  A    between atoms: O_20  and  C_21
REMARK   12  A    between atoms: C_21  and  C_22
REMARK   13  A    between atoms: O_24  and  C_25
REMARK                            x       y       z     vdW  Elec       q    Type
REMARK                         _______ _______ _______ _____ _____    ______ ____
ROOT
ATOM      1  C   UNL     1      -0.055   4.023  -0.544  0.00  0.00    +0.087 C 
ATOM      2  C   UNL     1      -1.198   3.329  -0.470  0.00  0.00    +0.115 C 
ATOM      3  O   UNL     1      -1.255   2.098   0.055  0.00  0.00    -0.445 OA
ATOM      4  C   UNL     1      -0.125   1.381   0.185  0.00  0.00    +0.198 C 
ATOM      5  C   UNL     1       1.098   1.963   0.152  0.00  0.00    +0.098 C 
ATOM      6  C   UNL     1       1.237   3.450  -0.030  0.00  0.00    +0.105 C 
ATOM      7  C   UNL     1      -2.463   3.950  -1.003  0.00  0.00    +0.087 C 
ENDROOT
BRANCH   6   8
ATOM      8  C   UNL     1       1.575   4.088   1.293  0.00  0.00    -0.030 A 
ATOM      9  C   UNL     1       2.755   4.794   1.438  0.00  0.00    +0.054 A 
ATOM     10  C   UNL     1       3.064   5.385   2.652  0.00  0.00    +0.163 A 
ATOM     11  C   UNL     1       2.191   5.257   3.728  0.00  0.00    +0.175 A 
ATOM     12  C   UNL     1       1.013   4.543   3.578  0.00  0.00    +0.059 A 
ATOM     13  C   UNL     1       0.707   3.960   2.361  0.00  0.00    +0.022 A 
ATOM     14  I   UNL     1      -0.306   4.347   5.195  0.00  0.00    -0.040 I 
BRANCH  10  15
ATOM     15  O   UNL     1       4.222   6.085   2.794  0.00  0.00    -0.491 OA
ATOM     16  C   UNL     1       5.070   6.175   1.647  0.00  0.00    +0.277 C 
ENDBRANCH  10  15
BRANCH  11  17
ATOM     17  O   UNL     1       2.493   5.830   4.923  0.00  0.00    -0.483 OA
BRANCH  17  18
ATOM     18  C   UNL     1       3.237   5.040   5.853  0.00  0.00    +0.256 C 
BRANCH  18  19
ATOM     19  C   UNL     1       3.476   5.835   7.111  0.00  0.00    +0.006 C 
ATOM     20  C   UNL     1       3.292   5.279   8.282  0.00  0.00    +0.007 C 
ENDBRANCH  18  19
ENDBRANCH  17  18
ENDBRANCH  11  17
ENDBRANCH   6   8
BRANCH   4  21
ATOM     21  N   UNL     1      -0.213   0.021   0.350  0.00  0.00    -0.328 N 
ATOM     22  H   UNL     1       0.594  -0.510   0.441  0.00  0.00    +0.145 HD
ATOM     23  H   UNL     1      -1.081  -0.409   0.375  0.00  0.00    +0.145 HD
ENDBRANCH   4  21
BRANCH   1  24
ATOM     24  C   UNL     1      -0.064   5.319  -1.117  0.00  0.00    +0.339 C 
ATOM     25  O   UNL     1       0.289   5.476  -2.271  0.00  0.00    -0.245 OA
BRANCH  24  26
ATOM     26  O   UNL     1      -0.464   6.378  -0.383  0.00  0.00    -0.462 OA
BRANCH  26  28
ATOM     27  C   UNL     1      -0.930   8.725  -0.043  0.00  0.00    +0.048 C 
ATOM     28  C   UNL     1      -0.447   7.655  -1.025  0.00  0.00    +0.229 C 
ENDBRANCH  26  28
ENDBRANCH  24  26
ENDBRANCH   1  24
BRANCH   5  29
ATOM     29  C   UNL     1       2.271   1.154   0.292  0.00  0.00    +0.101 C 
ATOM     30  N   UNL     1       3.202   0.512   0.403  0.00  0.00    -0.191 NA
ENDBRANCH   5  29
TORSDOF 10
