REMARK  Name = ZINC64538720
REMARK  8 active torsions:
REMARK  status: ('A' for Active; 'I' for Inactive)
REMARK    1  A    between atoms: C_1  and  N_2
REMARK    2  A    between atoms: N_2  and  C_3
REMARK    3  A    between atoms: C_3  and  C_4
REMARK    4  A    between atoms: C_4  and  C_5
REMARK    5  A    between atoms: C_7  and  C_10
REMARK    6  A    between atoms: C_17  and  C_19
REMARK    7  A    between atoms: C_25  and  O_29
REMARK    8  A    between atoms: O_29  and  C_30
REMARK                            x       y       z     vdW  Elec       q    Type
REMARK                         _______ _______ _______ _____ _____    ______ ____
ROOT
ATOM      1  C   UNL     1      -0.018   1.461   0.010  0.00  0.00    +0.132 C 
ATOM      2  N   UNL     1       0.002  -0.004   0.002  0.00  0.00    -0.302 N 
ATOM      3  C   UNL     1       0.000  -0.672  -1.169  0.00  0.00    +0.242 C 
ATOM      4  O   UNL     1       0.017  -1.884  -1.175  0.00  0.00    -0.273 OA
ENDROOT
BRANCH   3   5
ATOM      5  C   UNL     1      -0.023   0.089  -2.470  0.00  0.00    +0.190 C 
ATOM      6  C   UNL     1       1.223   0.936  -2.600  0.00  0.00    +0.016 C 
ATOM      7  C   UNL     1       1.864   0.496  -3.705  0.00  0.00    -0.003 A 
ATOM      8  C   UNL     1       3.114   0.907  -4.358  0.00  0.00    +0.013 A 
ATOM      9  C   UNL     1       3.510   0.268  -5.479  0.00  0.00    +0.046 A 
ATOM     10  C   UNL     1       2.755  -0.782  -6.035  0.00  0.00    +0.122 A 
ATOM     11  C   UNL     1       1.591  -1.215  -5.487  0.00  0.00    +0.071 A 
ATOM     12  C   UNL     1       1.087  -0.610  -4.309  0.00  0.00    +0.047 A 
ATOM     13  N   UNL     1       0.004  -0.845  -3.601  0.00  0.00    -0.370 N 
ATOM     14  H   UNL     1      -0.665  -1.520  -3.794  0.00  0.00    +0.161 HD
BRANCH  10  15
ATOM     15  O   UNL     1       3.208  -1.384  -7.163  0.00  0.00    -0.495 OA
ATOM     16  C   UNL     1       4.437  -0.899  -7.709  0.00  0.00    +0.277 C 
ENDBRANCH  10  15
ENDBRANCH   3   5
BRANCH   2  17
ATOM     17  C   UNL     1       0.024  -0.743   1.267  0.00  0.00    +0.115 C 
BRANCH  17  18
ATOM     18  C   UNL     1      -1.411  -1.020   1.720  0.00  0.00    +0.098 C 
BRANCH  18  19
ATOM     19  C   UNL     1      -1.388  -1.781   3.021  0.00  0.00    +0.174 A 
ATOM     20  N   UNL     1      -1.363  -3.110   3.141  0.00  0.00    -0.192 NA
ATOM     21  C   UNL     1      -1.348  -3.447   4.411  0.00  0.00    +0.258 A 
ATOM     22  O   UNL     1      -1.363  -2.317   5.140  0.00  0.00    -0.333 OA
ATOM     23  N   UNL     1      -1.383  -1.246   4.210  0.00  0.00    -0.061 NA
BRANCH  21  24
ATOM     24  C   UNL     1      -1.321  -4.825   4.944  0.00  0.00    +0.040 A 
ATOM     25  C   UNL     1      -1.302  -5.914   4.071  0.00  0.00    +0.015 A 
ATOM     26  C   UNL     1      -1.276  -7.197   4.574  0.00  0.00    +0.021 A 
ATOM     27  C   UNL     1      -1.269  -7.407   5.943  0.00  0.00    +0.041 A 
ATOM     28  C   UNL     1      -1.287  -6.331   6.814  0.00  0.00    +0.021 A 
ATOM     29  C   UNL     1      -1.307  -5.043   6.323  0.00  0.00    +0.015 A 
ATOM     30 CL   UNL     1      -1.237  -9.026   6.569  0.00  0.00    -0.084 Cl
ENDBRANCH  21  24
ENDBRANCH  18  19
ENDBRANCH  17  18
ENDBRANCH   2  17
TORSDOF 6
