REMARK  Name = ZINC14013400
REMARK  6 active torsions:
REMARK  status: ('A' for Active; 'I' for Inactive)
REMARK    1  A    between atoms: C_1  and  C_2
REMARK    2  A    between atoms: C_5  and  N_9
REMARK    3  A    between atoms: C_7  and  C_8
REMARK    4  A    between atoms: C_21  and  C_23
REMARK    5  A    between atoms: C_23  and  C_24
REMARK    6  A    between atoms: N_26  and  C_27
REMARK                            x       y       z     vdW  Elec       q    Type
REMARK                         _______ _______ _______ _____ _____    ______ ____
ROOT
ATOM      1  N   UNL     1       0.189   3.354   0.343  0.00  0.00    -0.214 N 
ATOM      2  C   UNL     1       0.616   2.062   0.280  0.00  0.00    +0.171 A 
ATOM      3  C   UNL     1      -0.534   1.258   0.207  0.00  0.00    +0.103 A 
ATOM      4  C   UNL     1      -1.646   2.128   0.223  0.00  0.00    +0.150 A 
ATOM      5  N   UNL     1      -1.211   3.354   0.308  0.00  0.00    -0.172 NA
ATOM      6  C   UNL     1      -0.381  -0.143   0.132  0.00  0.00    +0.266 A 
ATOM      7  O   UNL     1      -1.363  -0.861   0.068  0.00  0.00    -0.267 OA
ATOM      8  N   UNL     1       0.876  -0.694   0.132  0.00  0.00    -0.283 N 
ATOM      9  C   UNL     1       1.936   0.163   0.206  0.00  0.00    +0.174 A 
ATOM     10  N   UNL     1       1.813   1.469   0.276  0.00  0.00    -0.203 NA
ATOM     11  S   UNL     1       3.408  -0.839   0.185  0.00  0.00    -0.085 S 
ATOM     12  C   UNL     1       2.638  -2.496   0.073  0.00  0.00    +0.103 C 
ATOM     13  C   UNL     1       1.148  -2.129   0.057  0.00  0.00    +0.112 C 
ENDROOT
BRANCH   1  18
ATOM     14  C   UNL     1       3.509   7.943   0.684  0.00  0.00    +0.044 C 
ATOM     15  C   UNL     1       2.627   6.724   0.593  0.00  0.00    -0.047 A 
ATOM     16  C   UNL     1       3.003   5.552   1.225  0.00  0.00    +0.006 A 
ATOM     17  C   UNL     1       2.194   4.436   1.149  0.00  0.00    +0.028 A 
ATOM     18  C   UNL     1       1.008   4.487   0.427  0.00  0.00    +0.068 A 
ATOM     19  C   UNL     1       0.635   5.664  -0.207  0.00  0.00    +0.031 A 
ATOM     20  C   UNL     1       1.445   6.780  -0.121  0.00  0.00    -0.046 A 
ATOM     21  C   UNL     1       1.041   8.058  -0.809  0.00  0.00    +0.044 C 
ENDBRANCH   1  18
BRANCH  13  22
ATOM     22  C   UNL     1       0.527  -2.674  -1.231  0.00  0.00    +0.122 C 
BRANCH  22  23
ATOM     23  C   UNL     1       0.660  -4.175  -1.256  0.00  0.00    +0.219 C 
ATOM     24  O   UNL     1       1.116  -4.760  -0.297  0.00  0.00    -0.275 OA
ATOM     25  N   UNL     1       0.272  -4.868  -2.346  0.00  0.00    -0.284 N 
ATOM     26  H   UNL     1      -0.021  -4.396  -3.141  0.00  0.00    +0.155 HD
BRANCH  25  27
ATOM     27  C   UNL     1       0.294  -6.268  -2.330  0.00  0.00    +0.052 A 
ATOM     28  C   UNL     1       0.291  -6.949  -1.120  0.00  0.00    +0.026 A 
ATOM     29  C   UNL     1       0.306  -8.331  -1.107  0.00  0.00    +0.022 A 
ATOM     30  C   UNL     1       0.336  -9.035  -2.298  0.00  0.00    +0.042 A 
ATOM     31  C   UNL     1       0.344  -8.359  -3.505  0.00  0.00    +0.041 A 
ATOM     32  C   UNL     1       0.323  -6.977  -3.524  0.00  0.00    +0.064 A 
ATOM     33 CL   UNL     1       0.335  -6.129  -5.039  0.00  0.00    -0.082 Cl
ATOM     34 CL   UNL     1       0.362 -10.771  -2.277  0.00  0.00    -0.083 Cl
ENDBRANCH  25  27
ENDBRANCH  22  23
ENDBRANCH  13  22
TORSDOF 4
