REMARK  Name = ZINC12497676
REMARK  12 active torsions:
REMARK  status: ('A' for Active; 'I' for Inactive)
REMARK    1  A    between atoms: C_1  and  C_2
REMARK    2  A    between atoms: C_2  and  C_3
REMARK    3  A    between atoms: C_3  and  C_4
REMARK    4  A    between atoms: C_4  and  C_32
REMARK    5  A    between atoms: C_9  and  C_11
REMARK    6  A    between atoms: N_20  and  C_23
REMARK    7  A    between atoms: C_26  and  O_29
REMARK    8  A    between atoms: O_29  and  C_30
REMARK    9  A    between atoms: C_30  and  C_31
REMARK   10  A    between atoms: C_32  and  O_34
REMARK   11  A    between atoms: O_34  and  C_35
REMARK   12  A    between atoms: C_35  and  C_36
REMARK                            x       y       z     vdW  Elec       q    Type
REMARK                         _______ _______ _______ _____ _____    ______ ____
ROOT
ATOM      1  C   UNL     1      -8.523  -3.203  -0.156  0.00  0.00    +0.044 C 
ATOM      2  C   UNL     1      -7.081  -2.933  -0.240  0.00  0.00    +0.086 C 
ATOM      3  C   UNL     1      -6.450  -4.218   0.411  0.00  0.00    +0.077 C 
ATOM      4  C   UNL     1      -7.273  -5.272  -0.308  0.00  0.00    -0.024 C 
ATOM      5  C   UNL     1      -5.031  -3.942   0.029  0.00  0.00    +0.229 C 
ATOM      6  O   UNL     1      -4.175  -4.759  -0.232  0.00  0.00    -0.275 OA
ATOM      7  N   UNL     1      -4.892  -2.582   0.034  0.00  0.00    -0.210 N 
ATOM      8  C   UNL     1      -6.097  -1.925   0.055  0.00  0.00    +0.229 C 
ATOM      9  O   UNL     1      -6.290  -0.748   0.272  0.00  0.00    -0.275 OA
ATOM     10  N   UNL     1      -8.600  -4.645  -0.548  0.00  0.00    +0.395 N 
ATOM     11  H   UNL     1      -8.843  -4.720  -1.543  0.00  0.00    -0.083 HD
ATOM     12  H   UNL     1      -9.314  -5.120   0.016  0.00  0.00    -0.083 HD
ENDROOT
BRANCH   4  13
ATOM     13  C   UNL     1      -6.622  -5.637  -1.617  0.00  0.00    -0.025 A 
ATOM     14  C   UNL     1      -7.025  -5.018  -2.786  0.00  0.00    +0.005 A 
ATOM     15  C   UNL     1      -6.424  -5.347  -3.986  0.00  0.00    +0.000 A 
ATOM     16  C   UNL     1      -5.427  -6.305  -4.021  0.00  0.00    +0.003 A 
ATOM     17  C   UNL     1      -5.027  -6.929  -2.855  0.00  0.00    +0.038 A 
ATOM     18  C   UNL     1      -5.624  -6.596  -1.651  0.00  0.00    +0.125 A 
ATOM     19  F   UNL     1      -5.233  -7.205  -0.511  0.00  0.00    -0.205 F 
ENDBRANCH   4  13
BRANCH   7  20
ATOM     20  C   UNL     1      -3.650  -1.928   0.026  0.00  0.00    +0.044 A 
ATOM     21  C   UNL     1      -2.476  -2.668   0.011  0.00  0.00    +0.027 A 
ATOM     22  C   UNL     1      -1.254  -2.024   0.003  0.00  0.00    +0.047 A 
ATOM     23  C   UNL     1      -1.201  -0.638   0.010  0.00  0.00    +0.121 A 
ATOM     24  C   UNL     1      -2.374   0.102   0.031  0.00  0.00    +0.047 A 
ATOM     25  C   UNL     1      -3.596  -0.541   0.034  0.00  0.00    +0.027 A 
BRANCH  23  26
ATOM     26  O   UNL     1       0.002  -0.004   0.002  0.00  0.00    -0.492 OA
BRANCH  26  27
ATOM     27  C   UNL     1      -0.017   1.425   0.010  0.00  0.00    +0.225 C 
ATOM     28  C   UNL     1       1.418   1.954  -0.001  0.00  0.00    +0.048 C 
ENDBRANCH  26  27
ENDBRANCH  23  26
ENDBRANCH   7  20
BRANCH   1  29
ATOM     29  C   UNL     1      -9.290  -2.337  -1.121  0.00  0.00    +0.297 C 
ATOM     30  O   UNL     1      -8.873  -1.242  -1.414  0.00  0.00    -0.252 OA
BRANCH  29  31
ATOM     31  O   UNL     1     -10.438  -2.783  -1.656  0.00  0.00    -0.466 OA
BRANCH  31  32
ATOM     32  C   UNL     1     -11.124  -1.896  -2.578  0.00  0.00    +0.228 C 
ATOM     33  C   UNL     1     -12.402  -2.571  -3.080  0.00  0.00    +0.048 C 
ENDBRANCH  31  32
ENDBRANCH  29  31
ENDBRANCH   1  29
BRANCH   1  34
ATOM     34  C   UNL     1      -9.031  -3.001   1.273  0.00  0.00    -0.001 C 
BRANCH  34  36
ATOM     35  C   UNL     1     -10.969  -3.330   2.816  0.00  0.00    +0.004 C 
ATOM     36  C   UNL     1     -10.461  -3.533   1.387  0.00  0.00    -0.004 C 
ENDBRANCH  34  36
ENDBRANCH   1  34
TORSDOF 9
