REMARK  Name = ZINC63708232
REMARK  11 active torsions:
REMARK  status: ('A' for Active; 'I' for Inactive)
REMARK    1  A    between atoms: C_1  and  C_2
REMARK    2  A    between atoms: C_2  and  C_3
REMARK    3  A    between atoms: C_3  and  C_5
REMARK    4  A    between atoms: C_3  and  S_14
REMARK    5  A    between atoms: N_7  and  C_8
REMARK    6  A    between atoms: S_14  and  C_15
REMARK    7  A    between atoms: C_27  and  C_29
REMARK    8  A    between atoms: C_29  and  C_30
REMARK    9  A    between atoms: C_30  and  C_31
REMARK   10  A    between atoms: C_32  and  C_38
REMARK   11  A    between atoms: C_35  and  C_37
REMARK                            x       y       z     vdW  Elec       q    Type
REMARK                         _______ _______ _______ _____ _____    ______ ____
ROOT
ATOM      1  C   UNL     1      -2.300   2.017   0.178  0.00  0.00    +0.249 C 
ATOM      2  N   UNL     1      -0.931   2.544   0.102  0.00  0.00    -0.356 N 
ATOM      3  C   UNL     1      -0.229   2.707   1.215  0.00  0.00    +0.048 A 
ATOM      4  C   UNL     1       1.089   3.212   1.165  0.00  0.00    +0.026 A 
ATOM      5  C   UNL     1       1.791   3.372   2.319  0.00  0.00    +0.002 A 
ATOM      6  C   UNL     1       1.242   3.049   3.557  0.00  0.00    +0.001 A 
ATOM      7  C   UNL     1      -0.022   2.558   3.673  0.00  0.00    +0.013 A 
ATOM      8  C   UNL     1      -0.804   2.368   2.520  0.00  0.00    +0.038 A 
ATOM      9  C   UNL     1      -2.115   1.862   2.620  0.00  0.00    +0.128 C 
ATOM     10  N   UNL     1      -2.862   1.682   1.486  0.00  0.00    -0.204 N 
ATOM     11  N   UNL     1      -4.098   1.174   1.904  0.00  0.00    -0.249 N 
ATOM     12  C   UNL     1      -4.037   1.072   3.250  0.00  0.00    +0.090 C 
ATOM     13  N   UNL     1      -2.864   1.482   3.662  0.00  0.00    -0.332 N 
ATOM     14  H   UNL     1      -4.851   0.941   1.338  0.00  0.00    +0.171 HD
ATOM     15  H   UNL     1      -0.543   2.771  -0.758  0.00  0.00    +0.162 HD
ATOM     16  H   UNL     1      -2.579   1.504   4.588  0.00  0.00    +0.168 HD
ENDROOT
BRANCH   1  17
ATOM     17  S   UNL     1      -2.365   0.520  -0.844  0.00  0.00    -0.103 S 
BRANCH  17  18
ATOM     18  C   UNL     1      -1.200  -0.613  -0.038  0.00  0.00    +0.135 C 
BRANCH  18  19
ATOM     19  C   UNL     1       0.201  -0.077  -0.180  0.00  0.00    +0.226 C 
ATOM     20  O   UNL     1       0.401   0.936  -0.817  0.00  0.00    -0.275 OA
ATOM     21  N   UNL     1       1.232  -0.722   0.402  0.00  0.00    -0.312 N 
ATOM     22  H   UNL     1       1.072  -1.532   0.911  0.00  0.00    +0.149 HD
BRANCH  21  23
ATOM     23  C   UNL     1       2.594  -0.201   0.264  0.00  0.00    +0.073 C 
ATOM     24  C   UNL     1       3.204  -0.708  -1.044  0.00  0.00    +0.022 C 
ATOM     25  C   UNL     1       4.627  -0.164  -1.188  0.00  0.00    +0.002 C 
ATOM     26  C   UNL     1       5.477  -0.641  -0.009  0.00  0.00    +0.000 C 
ATOM     27  C   UNL     1       4.867  -0.133   1.299  0.00  0.00    +0.002 C 
ATOM     28  C   UNL     1       3.444  -0.678   1.443  0.00  0.00    +0.022 C 
ENDBRANCH  21  23
ENDBRANCH  18  19
BRANCH  18  30
ATOM     29  C   UNL     1      -2.965  -1.304   1.590  0.00  0.00    +0.005 C 
ATOM     30  C   UNL     1      -1.552  -0.736   1.446  0.00  0.00    +0.020 C 
ENDBRANCH  18  30
ENDBRANCH  17  18
ENDBRANCH   1  17
BRANCH  12  31
ATOM     31  C   UNL     1      -5.145   0.569   4.138  0.00  0.00    +0.075 C 
BRANCH  31  32
ATOM     32  C   UNL     1      -5.011  -0.945   4.313  0.00  0.00    +0.042 C 
BRANCH  32  33
ATOM     33  C   UNL     1      -6.120  -1.448   5.201  0.00  0.00    -0.021 C 
ATOM     34  C   UNL     1      -7.295  -1.965   4.836  0.00  0.00    +0.061 C 
ATOM     35  N   UNL     1      -8.028  -2.304   5.920  0.00  0.00    -0.159 NA
ATOM     36  N   UNL     1      -7.480  -2.074   7.001  0.00  0.00    -0.180 NA
ATOM     37  C   UNL     1      -6.157  -1.491   6.719  0.00  0.00    +0.153 C 
ATOM     38  C   UNL     1      -6.054  -0.081   7.303  0.00  0.00    +0.039 C 
ATOM     39  C   UNL     1      -7.745  -2.146   3.409  0.00  0.00    +0.067 C 
ENDBRANCH  32  33
ENDBRANCH  31  32
ENDBRANCH  12  31
TORSDOF 8
