REMARK  Name = ZINC44577215
REMARK  9 active torsions:
REMARK  status: ('A' for Active; 'I' for Inactive)
REMARK    1  A    between atoms: C_1  and  C_2
REMARK    2  A    between atoms: C_2  and  C_3
REMARK    3  A    between atoms: C_2  and  C_4
REMARK    4  A    between atoms: C_4  and  C_5
REMARK    5  A    between atoms: C_5  and  C_7
REMARK    6  A    between atoms: C_5  and  N_11
REMARK    7  A    between atoms: C_7  and  O_9
REMARK    8  A    between atoms: O_9  and  C_10
REMARK    9  A    between atoms: C_23  and  C_25
REMARK                            x       y       z     vdW  Elec       q    Type
REMARK                         _______ _______ _______ _____ _____    ______ ____
ROOT
ATOM      1  N   UNL     1       1.436  -2.315  -0.514  0.00  0.00    -0.286 N 
ATOM      2  C   UNL     1       0.542  -2.504  -1.505  0.00  0.00    +0.304 C 
ATOM      3  O   UNL     1      -0.649  -2.471  -1.264  0.00  0.00    -0.253 OA
ATOM      4  N   UNL     1       0.969  -2.731  -2.763  0.00  0.00    -0.273 N 
ATOM      5  C   UNL     1       0.013  -2.832  -3.876  0.00  0.00    +0.116 C 
ATOM      6  C   UNL     1       0.067  -4.251  -4.456  0.00  0.00    +0.074 C 
ATOM      7  C   UNL     1       1.509  -4.657  -4.612  0.00  0.00    +0.040 A 
ATOM      8  C   UNL     1       2.550  -4.059  -3.993  0.00  0.00    +0.062 A 
ATOM      9  N   UNL     1       3.669  -4.685  -4.363  0.00  0.00    -0.348 N 
ATOM     10  C   UNL     1       3.365  -5.650  -5.192  0.00  0.00    +0.171 A 
ATOM     11  N   UNL     1       2.024  -5.662  -5.373  0.00  0.00    -0.349 N 
ATOM     12  H   UNL     1       1.524  -6.272  -5.938  0.00  0.00    +0.166 HD
ATOM     13  C   UNL     1       2.406  -2.876  -3.059  0.00  0.00    +0.159 C 
ATOM     14  H   UNL     1       2.386  -2.397  -0.695  0.00  0.00    +0.151 HD
ATOM     15  H   UNL     1       4.564  -4.461  -4.065  0.00  0.00    +0.167 HD
ENDROOT
BRANCH  13  16
ATOM     16  C   UNL     1       2.922  -1.626  -3.724  0.00  0.00    +0.014 A 
ATOM     17  C   UNL     1       3.154  -1.614  -5.086  0.00  0.00    +0.010 A 
ATOM     18  C   UNL     1       3.627  -0.468  -5.697  0.00  0.00    +0.016 A 
ATOM     19  C   UNL     1       3.869   0.668  -4.945  0.00  0.00    +0.021 A 
ATOM     20  C   UNL     1       3.637   0.658  -3.582  0.00  0.00    +0.054 A 
ATOM     21  C   UNL     1       3.158  -0.488  -2.971  0.00  0.00    +0.130 A 
ATOM     22  F   UNL     1       2.926  -0.498  -1.640  0.00  0.00    -0.205 F 
ATOM     23 BR   UNL     1       4.516   2.236  -5.782  0.00  0.00    -0.050 Br
ENDBRANCH  13  16
BRANCH   1  24
ATOM     24  C   UNL     1       0.974  -1.985   0.836  0.00  0.00    +0.183 C 
BRANCH  24  25
ATOM     25  C   UNL     1       2.062  -1.245   1.572  0.00  0.00    +0.327 C 
ATOM     26  O   UNL     1       3.115  -1.018   1.025  0.00  0.00    -0.249 OA
BRANCH  25  27
ATOM     27  O   UNL     1       1.860  -0.840   2.836  0.00  0.00    -0.467 OA
ATOM     28  C   UNL     1       2.934  -0.144   3.473  0.00  0.00    +0.280 C 
ENDBRANCH  25  27
ENDBRANCH  24  25
BRANCH  24  29
ATOM     29  C   UNL     1       0.634  -3.273   1.588  0.00  0.00    +0.036 C 
BRANCH  29  31
ATOM     30  C   UNL     1      -0.815  -5.309   1.585  0.00  0.00    +0.007 C 
ATOM     31  C   UNL     1      -0.553  -3.960   0.911  0.00  0.00    -0.015 C 
ATOM     32  C   UNL     1      -1.796  -3.077   1.039  0.00  0.00    +0.007 C 
ENDBRANCH  29  31
ENDBRANCH  24  29
ENDBRANCH   1  24
TORSDOF 6
