REMARK  Name = ZINC12636630
REMARK  6 active torsions:
REMARK  status: ('A' for Active; 'I' for Inactive)
REMARK    1  A    between atoms: C_1  and  C_2
REMARK    2  A    between atoms: C_8  and  C_10
REMARK    3  A    between atoms: C_10  and  S_11
REMARK    4  A    between atoms: S_11  and  C_12
REMARK    5  A    between atoms: C_19  and  C_21
REMARK    6  A    between atoms: C_32  and  C_36
REMARK                            x       y       z     vdW  Elec       q    Type
REMARK                         _______ _______ _______ _____ _____    ______ ____
ROOT
ATOM      1  C   UNL     1      -0.017   1.419   0.010  0.00  0.00    +0.109 A 
ATOM      2  C   UNL     1       0.002  -0.004   0.002  0.00  0.00    +0.043 A 
ATOM      3  C   UNL     1      -1.127  -0.936   0.009  0.00  0.00    -0.025 A 
ATOM      4  C   UNL     1      -0.833  -2.252  -0.002  0.00  0.00    -0.004 A 
ATOM      5  S   UNL     1       0.938  -2.331  -0.021  0.00  0.00    -0.073 S 
ATOM      6  C   UNL     1       1.283  -0.591  -0.014  0.00  0.00    +0.113 A 
ATOM      7  N   UNL     1       2.378   0.143  -0.020  0.00  0.00    -0.224 NA
ATOM      8  C   UNL     1       2.298   1.460  -0.012  0.00  0.00    +0.138 A 
ATOM      9  N   UNL     1       1.131   2.079   0.002  0.00  0.00    -0.225 NA
ATOM     10  C   UNL     1      -1.798  -3.398   0.002  0.00  0.00    +0.046 C 
ATOM     11  C   UNL     1      -3.183  -2.863   0.396  0.00  0.00    -0.009 C 
ATOM     12  C   UNL     1      -3.478  -1.609  -0.431  0.00  0.00    +0.008 C 
ATOM     13  C   UNL     1      -2.577  -0.461   0.026  0.00  0.00    +0.037 C 
ATOM     14  C   UNL     1      -4.244  -3.929   0.115  0.00  0.00    +0.008 C 
ENDROOT
BRANCH   8  15
ATOM     15  C   UNL     1       3.564   2.276  -0.019  0.00  0.00    +0.031 C 
ATOM     16  C   UNL     1       4.372   1.953  -1.278  0.00  0.00    +0.018 C 
ATOM     17  C   UNL     1       5.659   2.782  -1.285  0.00  0.00    -0.010 C 
ATOM     18  C   UNL     1       5.306   4.271  -1.273  0.00  0.00    +0.007 C 
ATOM     19  C   UNL     1       4.498   4.594  -0.015  0.00  0.00    -0.010 C 
ATOM     20  C   UNL     1       3.212   3.765  -0.008  0.00  0.00    +0.018 C 
ATOM     21  C   UNL     1       5.329   4.257   1.225  0.00  0.00    +0.007 C 
ATOM     22  C   UNL     1       5.681   2.768   1.214  0.00  0.00    -0.010 C 
ATOM     23  C   UNL     1       6.489   2.445  -0.045  0.00  0.00    +0.007 C 
ATOM     24  C   UNL     1       4.395   1.939   1.221  0.00  0.00    +0.018 C 
ENDBRANCH   8  15
BRANCH   1  25
ATOM     25  S   UNL     1      -1.548   2.291   0.022  0.00  0.00    -0.096 S 
BRANCH  25  26
ATOM     26  C   UNL     1      -0.939   3.996   0.028  0.00  0.00    +0.172 C 
BRANCH  26  34
ATOM     27  C   UNL     1      -5.604  10.335   0.085  0.00  0.00    +0.075 C 
ATOM     28  C   UNL     1      -4.765   9.084   0.074  0.00  0.00    +0.101 A 
ATOM     29  N   UNL     1      -5.132   7.818   0.069  0.00  0.00    -0.145 NA
ATOM     30  N   UNL     1      -4.269   6.897   0.060  0.00  0.00    -0.126 NA
ATOM     31  C   UNL     1      -2.972   7.155   0.055  0.00  0.00    +0.188 A 
ATOM     32  S   UNL     1      -2.986   8.895   0.072  0.00  0.00    -0.036 S 
ATOM     33  N   UNL     1      -1.893   6.278   0.045  0.00  0.00    -0.263 N 
ATOM     34  C   UNL     1      -2.108   4.947   0.039  0.00  0.00    +0.229 C 
ATOM     35  O   UNL     1      -3.241   4.515   0.042  0.00  0.00    -0.275 OA
ATOM     36  H   UNL     1      -0.987   6.623   0.043  0.00  0.00    +0.157 HD
ENDBRANCH  26  34
ENDBRANCH  25  26
ENDBRANCH   1  25
TORSDOF 4
