REMARK  Name = ZINC13084576
REMARK  8 active torsions:
REMARK  status: ('A' for Active; 'I' for Inactive)
REMARK    1  A    between atoms: C_1  and  C_2
REMARK    2  A    between atoms: C_8  and  N_10
REMARK    3  A    between atoms: N_10  and  S_11
REMARK    4  A    between atoms: S_11  and  C_14
REMARK    5  A    between atoms: C_17  and  S_20
REMARK    6  A    between atoms: S_20  and  N_23
REMARK    7  A    between atoms: C_28  and  C_29
REMARK    8  A    between atoms: C_28  and  N_66
REMARK                            x       y       z     vdW  Elec       q    Type
REMARK                         _______ _______ _______ _____ _____    ______ ____
ROOT
ATOM      1  C   UNL     1       0.516   6.455   4.165  0.00  0.00    +0.105 A 
ATOM      2  C   UNL     1      -0.606   6.002   4.834  0.00  0.00    +0.030 A 
ATOM      3  C   UNL     1      -0.778   4.649   5.057  0.00  0.00    +0.030 A 
ATOM      4  C   UNL     1       0.171   3.749   4.610  0.00  0.00    +0.106 A 
ATOM      5  C   UNL     1       1.295   4.202   3.946  0.00  0.00    +0.030 A 
ATOM      6  C   UNL     1       1.465   5.555   3.719  0.00  0.00    +0.030 A 
ENDROOT
BRANCH   1   7
ATOM      7  S   UNL     1       0.735   8.180   3.880  0.00  0.00    +0.059 S 
ATOM      8  O   UNL     1       1.595   8.300   2.755  0.00  0.00    -0.153 OA
ATOM      9  O   UNL     1      -0.560   8.765   3.915  0.00  0.00    -0.153 OA
BRANCH   7  10
ATOM     10  N   UNL     1       1.564   8.789   5.177  0.00  0.00    -0.187 NA
ATOM     11  H   UNL     1       1.140   9.433   5.766  0.00  0.00    +0.148 HD
BRANCH  10  18
ATOM     12  C   UNL     1       3.755  10.675   4.994  0.00  0.00    +0.009 C 
ATOM     13  C   UNL     1       3.745   9.526   6.004  0.00  0.00    +0.005 C 
ATOM     14  C   UNL     1       3.105  10.001   7.310  0.00  0.00    +0.005 C 
ATOM     15  C   UNL     1       3.095   8.852   8.320  0.00  0.00    +0.000 C 
ATOM     16  C   UNL     1       2.290   7.681   7.753  0.00  0.00    +0.002 C 
ATOM     17  C   UNL     1       2.930   7.207   6.447  0.00  0.00    +0.020 C 
ATOM     18  C   UNL     1       2.939   8.356   5.437  0.00  0.00    +0.079 C 
ENDBRANCH  10  18
ENDBRANCH   7  10
ENDBRANCH   1   7
BRANCH   4  19
ATOM     19  S   UNL     1      -0.049   2.023   4.894  0.00  0.00    +0.059 S 
ATOM     20  O   UNL     1      -0.908   1.903   6.019  0.00  0.00    -0.153 OA
ATOM     21  O   UNL     1       1.246   1.438   4.858  0.00  0.00    -0.153 OA
BRANCH  19  22
ATOM     22  N   UNL     1      -0.879   1.416   3.597  0.00  0.00    -0.193 NA
ATOM     23  C   UNL     1      -2.349   1.375   3.596  0.00  0.00    +0.105 C 
ATOM     24  C   UNL     1      -2.850   2.022   2.300  0.00  0.00    -0.002 C 
ATOM     25  C   UNL     1      -2.152   1.361   1.109  0.00  0.00    -0.075 C 
ATOM     26  C   UNL     1      -0.165   0.904   2.419  0.00  0.00    +0.034 C 
ATOM     27  N   UNL     1      -0.695   1.588   1.219  0.00  0.00    +0.392 N 
ATOM     28  H   UNL     1      -0.521   2.596   1.306  0.00  0.00    -0.079 HD
BRANCH  27  29
ATOM     29  C   UNL     1      -0.013   1.086   0.008  0.00  0.00    -0.041 C 
BRANCH  29  30
ATOM     30  C   UNL     1      -0.742   1.585  -1.213  0.00  0.00    -0.064 A 
ATOM     31  C   UNL     1      -1.750   0.825  -1.775  0.00  0.00    +0.002 A 
ATOM     32  C   UNL     1      -2.422   1.285  -2.892  0.00  0.00    +0.000 A 
ATOM     33  C   UNL     1      -2.078   2.501  -3.453  0.00  0.00    +0.000 A 
ATOM     34  C   UNL     1      -1.066   3.259  -2.894  0.00  0.00    +0.000 A 
ATOM     35  C   UNL     1      -0.398   2.801  -1.774  0.00  0.00    +0.002 A 
ENDBRANCH  29  30
ENDBRANCH  27  29
ENDBRANCH  19  22
ENDBRANCH   4  19
TORSDOF 7
