REMARK  Name = ZINC16479043
REMARK  10 active torsions:
REMARK  status: ('A' for Active; 'I' for Inactive)
REMARK    1  A    between atoms: C_4  and  C_7
REMARK    2  A    between atoms: C_7  and  C_8
REMARK    3  A    between atoms: C_8  and  N_9
REMARK    4  A    between atoms: N_9  and  C_10
REMARK    5  A    between atoms: N_9  and  S_23
REMARK    6  A    between atoms: C_10  and  C_11
REMARK    7  A    between atoms: N_13  and  N_14
REMARK    8  A    between atoms: C_15  and  C_16
REMARK    9  A    between atoms: C_21  and  O_22
REMARK   10  A    between atoms: S_23  and  C_26
REMARK                            x       y       z     vdW  Elec       q    Type
REMARK                         _______ _______ _______ _____ _____    ______ ____
ROOT
ATOM      1  N   UNL     1      -8.431   1.775   0.052  0.00  0.00    -0.167 NA
ENDROOT
BRANCH   1   2
ATOM      2  S   UNL     1      -9.139   2.204   1.486  0.00  0.00    +0.061 S 
ATOM      3  O   UNL     1     -10.501   2.488   1.198  0.00  0.00    -0.153 OA
ATOM      4  O   UNL     1      -8.751   1.224   2.439  0.00  0.00    -0.153 OA
BRANCH   2   5
ATOM      5  C   UNL     1      -8.404   3.722   1.996  0.00  0.00    +0.106 A 
ATOM      6  C   UNL     1      -7.278   3.709   2.798  0.00  0.00    +0.029 A 
ATOM      7  C   UNL     1      -6.699   4.900   3.195  0.00  0.00    +0.017 A 
ATOM      8  C   UNL     1      -7.252   6.104   2.798  0.00  0.00    +0.018 A 
ATOM      9  C   UNL     1      -8.382   6.116   2.000  0.00  0.00    +0.017 A 
ATOM     10  C   UNL     1      -8.957   4.925   1.600  0.00  0.00    +0.029 A 
ATOM     11 BR   UNL     1      -6.463   7.733   3.346  0.00  0.00    -0.050 Br
ENDBRANCH   2   5
ENDBRANCH   1   2
BRANCH   1  12
ATOM     12  C   UNL     1      -8.927   2.337  -1.207  0.00  0.00    +0.114 C 
BRANCH  12  13
ATOM     13  C   UNL     1      -9.934   1.371  -1.835  0.00  0.00    +0.052 C 
BRANCH  13  17
ATOM     14  C   UNL     1     -11.380   3.011  -5.505  0.00  0.00    +0.000 A 
ATOM     15  C   UNL     1     -10.258   2.204  -5.503  0.00  0.00    +0.000 A 
ATOM     16  C   UNL     1      -9.789   1.674  -4.316  0.00  0.00    +0.003 A 
ATOM     17  C   UNL     1     -10.444   1.950  -3.130  0.00  0.00    -0.046 A 
ATOM     18  C   UNL     1     -11.570   2.752  -3.132  0.00  0.00    +0.003 A 
ATOM     19  C   UNL     1     -12.035   3.286  -4.319  0.00  0.00    +0.000 A 
ENDBRANCH  13  17
ENDBRANCH  12  13
ENDBRANCH   1  12
BRANCH   1  20
ATOM     20  C   UNL     1      -7.308   0.834   0.041  0.00  0.00    +0.206 C 
BRANCH  20  21
ATOM     21  C   UNL     1      -6.011   1.599   0.039  0.00  0.00    +0.248 C 
ATOM     22  O   UNL     1      -6.022   2.812   0.046  0.00  0.00    -0.273 OA
ATOM     23  N   UNL     1      -4.837   0.936   0.030  0.00  0.00    -0.206 N 
ATOM     24  H   UNL     1      -4.828  -0.034   0.025  0.00  0.00    +0.177 HD
BRANCH  23  25
ATOM     25  N   UNL     1      -3.630   1.648   0.028  0.00  0.00    -0.188 NA
ATOM     26  C   UNL     1      -2.500   1.010   0.019  0.00  0.00    +0.142 C 
BRANCH  26  27
ATOM     27  C   UNL     1      -1.231   1.759   0.017  0.00  0.00    +0.036 A 
ATOM     28  C   UNL     1      -0.013   1.076   0.008  0.00  0.00    +0.013 A 
ATOM     29  C   UNL     1       1.171   1.783   0.000  0.00  0.00    +0.001 A 
ATOM     30  C   UNL     1       1.158   3.167   0.007  0.00  0.00    +0.004 A 
ATOM     31  C   UNL     1      -0.041   3.854   0.023  0.00  0.00    +0.046 A 
ATOM     32  C   UNL     1      -1.240   3.160   0.030  0.00  0.00    +0.125 A 
BRANCH  32  33
ATOM     33  O   UNL     1      -2.418   3.835   0.045  0.00  0.00    -0.506 OA
ATOM     34  H   UNL     1      -2.768   4.035  -0.834  0.00  0.00    +0.292 HD
ENDBRANCH  32  33
ENDBRANCH  26  27
ENDBRANCH  23  25
ENDBRANCH  20  21
ENDBRANCH   1  20
TORSDOF 10
