REMARK  Name = ZINC37060213
REMARK  3 active torsions:
REMARK  status: ('A' for Active; 'I' for Inactive)
REMARK    1  A    between atoms: C_4  and  N_10
REMARK    2  A    between atoms: C_6  and  N_7
REMARK    3  A    between atoms: N_10  and  C_11
REMARK                            x       y       z     vdW  Elec       q    Type
REMARK                         _______ _______ _______ _____ _____    ______ ____
ROOT
ATOM      1  C   UNL     1      -0.017   1.378   0.010  0.00  0.00    +0.034 A 
ATOM      2  C   UNL     1       1.170   2.089   0.002  0.00  0.00    +0.024 A 
ATOM      3  C   UNL     1       2.378   1.419  -0.013  0.00  0.00    +0.062 A 
ATOM      4  C   UNL     1       2.400   0.029  -0.021  0.00  0.00    +0.048 A 
ATOM      5  C   UNL     1       1.207  -0.680  -0.013  0.00  0.00    +0.057 A 
ATOM      6  C   UNL     1       0.002  -0.004   0.002  0.00  0.00    +0.128 A 
ATOM      7 CL   UNL     1       3.867   2.312  -0.024  0.00  0.00    -0.082 Cl
ENDROOT
BRANCH   6   8
ATOM      8  N   UNL     1      -1.270  -0.760   0.011  0.00  0.00    +0.056 N 
ATOM      9  O   UNL     1      -2.325  -0.169   0.024  0.00  0.00    -0.126 OA
ATOM     10  O   UNL     1      -1.255  -1.969   0.004  0.00  0.00    -0.126 OA
ENDBRANCH   6   8
BRANCH   4  11
ATOM     11  N   UNL     1       3.620  -0.652  -0.037  0.00  0.00    -0.340 N 
ATOM     12  H   UNL     1       4.453  -0.155  -0.043  0.00  0.00    +0.146 HD
BRANCH  11  13
ATOM     13  C   UNL     1       3.641  -2.117  -0.045  0.00  0.00    +0.073 C 
ATOM     14  C   UNL     1       3.507  -2.629   1.386  0.00  0.00    +0.045 C 
ATOM     15  C   UNL     1       3.256  -4.139   1.379  0.00  0.00    +0.167 C 
ATOM     16  S   UNL     1       4.700  -4.971   0.652  0.00  0.00    -0.031 S 
ATOM     17  O   UNL     1       4.356  -6.325   0.391  0.00  0.00    -0.174 OA
ATOM     18  O   UNL     1       5.837  -4.687   1.455  0.00  0.00    -0.174 OA
ATOM     19  C   UNL     1       4.878  -4.103  -0.935  0.00  0.00    +0.167 C 
ATOM     20  C   UNL     1       4.947  -2.597  -0.670  0.00  0.00    +0.045 C 
ENDBRANCH  11  13
ENDBRANCH   4  11
TORSDOF 3
