REMARK  Name = ZINC38657832
REMARK  9 active torsions:
REMARK  status: ('A' for Active; 'I' for Inactive)
REMARK    1  A    between atoms: C_1  and  C_2
REMARK    2  A    between atoms: C_2  and  C_4
REMARK    3  A    between atoms: C_2  and  O_31
REMARK    4  A    between atoms: C_4  and  O_6
REMARK    5  A    between atoms: O_6  and  C_7
REMARK    6  A    between atoms: C_14  and  N_30
REMARK    7  A    between atoms: C_15  and  C_28
REMARK    8  A    between atoms: C_16  and  C_18
REMARK    9  A    between atoms: O_31  and  C_32
REMARK                            x       y       z     vdW  Elec       q    Type
REMARK                         _______ _______ _______ _____ _____    ______ ____
ROOT
ATOM      1  C   UNL     1       2.547  -0.610  -2.630  0.00  0.00    +0.135 A 
ATOM      2  C   UNL     1       1.684  -1.117  -3.591  0.00  0.00    +0.047 A 
ATOM      3  C   UNL     1       2.183  -1.568  -4.797  0.00  0.00    +0.012 A 
ATOM      4  C   UNL     1       3.542  -1.517  -5.052  0.00  0.00    +0.008 A 
ATOM      5  C   UNL     1       4.408  -1.012  -4.095  0.00  0.00    +0.138 A 
ATOM      6  C   UNL     1       3.907  -0.552  -2.884  0.00  0.00    +0.093 A 
ATOM      7  O   UNL     1       5.743  -0.954  -4.326  0.00  0.00    -0.441 OA
ATOM      8  C   UNL     1       6.290  -1.715  -5.289  0.00  0.00    +0.199 C 
ATOM      9  C   UNL     1       5.549  -2.248  -6.289  0.00  0.00    +0.098 C 
ATOM     10  C   UNL     1       4.067  -2.014  -6.373  0.00  0.00    +0.098 C 
ENDROOT
BRANCH  10  11
ATOM     11  C   UNL     1       3.783  -0.989  -7.440  0.00  0.00    -0.027 A 
ATOM     12  C   UNL     1       4.208   0.295  -7.286  0.00  0.00    +0.005 A 
ATOM     13  C   UNL     1       3.955   1.257  -8.262  0.00  0.00    +0.001 A 
ATOM     14  C   UNL     1       3.275   0.941  -9.398  0.00  0.00    +0.008 A 
ATOM     15  C   UNL     1       2.820  -0.374  -9.592  0.00  0.00    -0.018 A 
ATOM     16  C   UNL     1       3.083  -1.354  -8.602  0.00  0.00    -0.014 A 
ATOM     17  C   UNL     1       2.633  -2.671  -8.800  0.00  0.00    +0.009 A 
ATOM     18  C   UNL     1       1.958  -2.988  -9.938  0.00  0.00    +0.001 A 
ATOM     19  C   UNL     1       1.705  -2.026 -10.915  0.00  0.00    +0.001 A 
ATOM     20  C   UNL     1       2.114  -0.738 -10.752  0.00  0.00    +0.008 A 
ENDBRANCH  10  11
BRANCH   8  21
ATOM     21  N   UNL     1       7.641  -1.958  -5.259  0.00  0.00    -0.328 N 
ATOM     22  H   UNL     1       8.185  -1.582  -4.550  0.00  0.00    +0.145 HD
ATOM     23  H   UNL     1       8.050  -2.505  -5.947  0.00  0.00    +0.145 HD
ENDBRANCH   8  21
BRANCH   9  24
ATOM     24  C   UNL     1       6.190  -3.051  -7.286  0.00  0.00    +0.101 C 
ATOM     25  N   UNL     1       6.699  -3.688  -8.078  0.00  0.00    -0.191 NA
ENDBRANCH   9  24
BRANCH   1  26
ATOM     26  O   UNL     1       2.057  -0.165  -1.442  0.00  0.00    -0.423 OA
BRANCH  26  27
ATOM     27  C   UNL     1       1.676  -1.079  -0.536  0.00  0.00    +0.353 C 
ATOM     28  O   UNL     1       1.858  -2.255  -0.749  0.00  0.00    -0.246 OA
BRANCH  27  30
ATOM     29  C   UNL     1      -0.327   0.013   0.436  0.00  0.00    +0.064 C 
ATOM     30  C   UNL     1       1.021  -0.640   0.749  0.00  0.00    +0.279 C 
BRANCH  30  31
ATOM     31  O   UNL     1       0.816  -1.775   1.592  0.00  0.00    -0.478 OA
BRANCH  31  32
ATOM     32  C   UNL     1       0.923  -1.575   2.932  0.00  0.00    +0.122 A 
ATOM     33  C   UNL     1       0.868  -2.655   3.802  0.00  0.00    +0.048 A 
ATOM     34  C   UNL     1       0.976  -2.450   5.164  0.00  0.00    +0.042 A 
ATOM     35  C   UNL     1       1.138  -1.168   5.661  0.00  0.00    +0.124 A 
ATOM     36  C   UNL     1       1.192  -0.090   4.795  0.00  0.00    +0.042 A 
ATOM     37  C   UNL     1       1.091  -0.292   3.432  0.00  0.00    +0.048 A 
ATOM     38  F   UNL     1       1.244  -0.970   6.993  0.00  0.00    -0.205 F 
ENDBRANCH  31  32
ENDBRANCH  30  31
ENDBRANCH  27  30
ENDBRANCH  26  27
ENDBRANCH   1  26
TORSDOF 8
