REMARK  Name = ZINC65251401
REMARK  7 active torsions:
REMARK  status: ('A' for Active; 'I' for Inactive)
REMARK    1  A    between atoms: C_1  and  C_2
REMARK    2  A    between atoms: C_4  and  C_7
REMARK    3  A    between atoms: C_14  and  C_33
REMARK    4  A    between atoms: C_16  and  C_19
REMARK    5  A    between atoms: N_21  and  C_22
REMARK    6  A    between atoms: C_22  and  C_23
REMARK    7  A    between atoms: C_23  and  C_24
REMARK                            x       y       z     vdW  Elec       q    Type
REMARK                         _______ _______ _______ _____ _____    ______ ____
ROOT
ATOM      1  C   UNL     1       0.037  -3.191  -1.672  0.00  0.00    +0.058 A 
ATOM      2  C   UNL     1       0.051  -4.503  -1.176  0.00  0.00    +0.018 A 
ATOM      3  C   UNL     1       0.061  -5.539  -2.071  0.00  0.00    +0.046 A 
ATOM      4  C   UNL     1       0.056  -5.263  -3.437  0.00  0.00    +0.138 A 
ATOM      5  N   UNL     1       0.042  -4.013  -3.879  0.00  0.00    -0.238 NA
ATOM      6  C   UNL     1       0.028  -2.988  -3.052  0.00  0.00    +0.126 A 
ATOM      7  N   UNL     1       0.066  -6.310  -4.346  0.00  0.00    -0.230 N 
ATOM      8  C   UNL     1       0.069  -6.206  -5.815  0.00  0.00    +0.129 C 
ATOM      9  C   UNL     1       0.080  -7.642  -6.291  0.00  0.00    +0.051 C 
ATOM     10  C   UNL     1       0.083  -8.420  -5.192  0.00  0.00    +0.098 C 
ATOM     11  N   UNL     1       0.081  -7.679  -4.053  0.00  0.00    -0.269 N 
ATOM     12  C   UNL     1      -1.191  -5.488  -6.303  0.00  0.00    +0.035 C 
ATOM     13  H   UNL     1       0.087  -8.050  -3.157  0.00  0.00    +0.170 HD
ENDROOT
BRANCH   1  17
ATOM     14  C   UNL     1      -0.018   1.503   0.010  0.00  0.00    +0.091 C 
ATOM     15  C   UNL     1       0.002  -0.004   0.002  0.00  0.00    +0.169 A 
ATOM     16  N   UNL     1       0.007  -0.772  -1.090  0.00  0.00    -0.192 NA
ATOM     17  C   UNL     1       0.026  -2.041  -0.746  0.00  0.00    +0.260 A 
ATOM     18  O   UNL     1       0.033  -2.107   0.597  0.00  0.00    -0.333 OA
ATOM     19  N   UNL     1       0.023  -0.765   1.059  0.00  0.00    -0.061 NA
ENDBRANCH   1  17
BRANCH   9  20
ATOM     20  C   UNL     1       0.086  -8.084  -7.635  0.00  0.00    +0.243 C 
ATOM     21  O   UNL     1       0.096  -9.276  -7.884  0.00  0.00    -0.270 OA
ATOM     22  N   UNL     1       0.082  -7.186  -8.640  0.00  0.00    -0.311 N 
ATOM     23  H   UNL     1       0.074  -6.236  -8.441  0.00  0.00    +0.149 HD
BRANCH  22  24
ATOM     24  C   UNL     1       0.088  -7.643 -10.031  0.00  0.00    +0.109 C 
BRANCH  24  25
ATOM     25  C   UNL     1       0.081  -6.432 -10.966  0.00  0.00    +0.052 C 
BRANCH  25  26
ATOM     26  C   UNL     1       0.087  -6.903 -12.398  0.00  0.00    -0.040 C 
ATOM     27  C   UNL     1      -0.986  -7.070 -13.204  0.00  0.00    -0.001 A 
ATOM     28  C   UNL     1      -2.426  -6.873 -12.996  0.00  0.00    +0.010 A 
ATOM     29  C   UNL     1      -3.277  -7.130 -14.015  0.00  0.00    +0.001 A 
ATOM     30  C   UNL     1      -2.820  -7.581 -15.261  0.00  0.00    +0.002 A 
ATOM     31  C   UNL     1      -1.513  -7.786 -15.528  0.00  0.00    +0.026 A 
ATOM     32  C   UNL     1      -0.529  -7.546 -14.529  0.00  0.00    +0.043 A 
ATOM     33  N   UNL     1       0.776  -7.668 -14.542  0.00  0.00    -0.380 N 
ATOM     34  C   UNL     1       1.296  -7.277 -13.227  0.00  0.00    +0.144 C 
ATOM     35  H   UNL     1       1.310  -7.964 -15.296  0.00  0.00    +0.160 HD
ENDBRANCH  25  26
ENDBRANCH  24  25
ENDBRANCH  22  24
ENDBRANCH   9  20
TORSDOF 5
