REMARK  Name = ZINC08841246
REMARK  9 active torsions:
REMARK  status: ('A' for Active; 'I' for Inactive)
REMARK    1  A    between atoms: C_1  and  C_2
REMARK    2  A    between atoms: C_5  and  S_8
REMARK    3  A    between atoms: S_8  and  N_11
REMARK    4  A    between atoms: C_15  and  C_17
REMARK    5  A    between atoms: C_17  and  N_19
REMARK    6  A    between atoms: N_21  and  C_33
REMARK    7  A    between atoms: C_25  and  S_29
REMARK    8  A    between atoms: S_29  and  N_32
REMARK    9  A    between atoms: C_33  and  C_34
REMARK                            x       y       z     vdW  Elec       q    Type
REMARK                         _______ _______ _______ _____ _____    ______ ____
ROOT
ATOM      1  N   UNL     1       1.228   3.791   2.763  0.00  0.00    -0.155 NA
ATOM      2  C   UNL     1       1.514   2.820   3.628  0.00  0.00    +0.167 A 
ATOM      3  N   UNL     1       0.675   1.895   4.165  0.00  0.00    -0.317 N 
ATOM      4  C   UNL     1       1.159   0.952   5.052  0.00  0.00    +0.058 A 
ATOM      5  C   UNL     1       0.456  -0.076   5.700  0.00  0.00    +0.029 A 
ATOM      6  C   UNL     1       1.100  -0.934   6.559  0.00  0.00    +0.030 A 
ATOM      7  C   UNL     1       2.456  -0.814   6.813  0.00  0.00    +0.106 A 
ATOM      8  C   UNL     1       3.174   0.191   6.187  0.00  0.00    +0.045 A 
ATOM      9  C   UNL     1       2.531   1.050   5.327  0.00  0.00    +0.041 A 
ATOM     10  S   UNL     1       3.046   2.434   4.343  0.00  0.00    -0.052 S 
ENDROOT
BRANCH   7  11
ATOM     11  S   UNL     1       3.258  -1.926   7.918  0.00  0.00    +0.056 S 
ATOM     12  O   UNL     1       4.416  -1.257   8.399  0.00  0.00    -0.153 OA
ATOM     13  O   UNL     1       2.254  -2.430   8.787  0.00  0.00    -0.153 OA
BRANCH  11  14
ATOM     14  N   UNL     1       3.793  -3.210   7.019  0.00  0.00    -0.204 NA
ATOM     15  H   UNL     1       3.633  -3.232   6.062  0.00  0.00    +0.144 HD
ATOM     16  H   UNL     1       4.266  -3.939   7.448  0.00  0.00    +0.144 HD
ENDBRANCH  11  14
ENDBRANCH   7  11
BRANCH   1  17
ATOM     17  C   UNL     1       0.056   3.800   2.138  0.00  0.00    +0.257 C 
ATOM     18  O   UNL     1      -0.315   2.816   1.526  0.00  0.00    -0.272 OA
BRANCH  17  23
ATOM     19  N   UNL     1      -1.360   5.325   0.850  0.00  0.00    -0.165 NA
ATOM     20  C   UNL     1      -2.737   5.823   1.004  0.00  0.00    +0.110 C 
ATOM     21  C   UNL     1      -3.063   5.811   2.512  0.00  0.00    +0.019 C 
ATOM     22  C   UNL     1      -2.057   4.774   3.077  0.00  0.00    +0.031 C 
ATOM     23  C   UNL     1      -0.815   5.029   2.187  0.00  0.00    +0.167 C 
BRANCH  19  24
ATOM     24  S   UNL     1      -0.557   5.130  -0.585  0.00  0.00    +0.062 S 
ATOM     25  O   UNL     1      -1.046   6.133  -1.464  0.00  0.00    -0.153 OA
ATOM     26  O   UNL     1       0.822   5.005  -0.264  0.00  0.00    -0.153 OA
BRANCH  24  31
ATOM     27  C   UNL     1      -2.280  -0.174  -2.888  0.00  0.00    +0.044 C 
ATOM     28  C   UNL     1      -1.850   1.151  -2.312  0.00  0.00    -0.050 A 
ATOM     29  C   UNL     1      -2.640   2.271  -2.490  0.00  0.00    +0.005 A 
ATOM     30  C   UNL     1      -2.245   3.486  -1.963  0.00  0.00    +0.029 A 
ATOM     31  C   UNL     1      -1.060   3.581  -1.257  0.00  0.00    +0.106 A 
ATOM     32  C   UNL     1      -0.268   2.462  -1.083  0.00  0.00    +0.029 A 
ATOM     33  C   UNL     1      -0.664   1.246  -1.607  0.00  0.00    +0.005 A 
ENDBRANCH  24  31
ENDBRANCH  19  24
ENDBRANCH  17  23
ENDBRANCH   1  17
BRANCH   3  34
ATOM     34  C   UNL     1      -0.743   1.895   3.798  0.00  0.00    +0.151 C 
BRANCH  34  35
ATOM     35  C   UNL     1      -0.977   0.890   2.700  0.00  0.00    -0.013 C 
ATOM     36  C   UNL     1      -1.911  -0.020   2.833  0.00  0.00    +0.005 C 
ENDBRANCH  34  35
ENDBRANCH   3  34
TORSDOF 8
