REMARK  Name = ZINC13028992
REMARK  12 active torsions:
REMARK  status: ('A' for Active; 'I' for Inactive)
REMARK    1  A    between atoms: C_1  and  C_2
REMARK    2  A    between atoms: C_2  and  C_3
REMARK    3  A    between atoms: C_6  and  C_9
REMARK    4  A    between atoms: C_9  and  C_11
REMARK    5  A    between atoms: C_9  and  N_18
REMARK    6  A    between atoms: N_13  and  C_14
REMARK    7  A    between atoms: C_14  and  C_15
REMARK    8  A    between atoms: C_14  and  C_16
REMARK    9  A    between atoms: C_14  and  C_17
REMARK   10  A    between atoms: N_18  and  C_19
REMARK   11  A    between atoms: C_28  and  C_30
REMARK   12  A    between atoms: C_30  and  N_31
REMARK                            x       y       z     vdW  Elec       q    Type
REMARK                         _______ _______ _______ _____ _____    ______ ____
ROOT
ATOM      1  N   UNL     1      -5.170   3.272  -1.842  0.00  0.00    -0.254 N 
ATOM      2  C   UNL     1      -4.162   4.095  -1.492  0.00  0.00    +0.242 C 
ATOM      3  O   UNL     1      -4.015   5.153  -2.068  0.00  0.00    -0.273 OA
ENDROOT
BRANCH   1   4
ATOM      4  C   UNL     1      -5.407   2.103  -1.107  0.00  0.00    +0.041 A 
ATOM      5  C   UNL     1      -5.153   0.862  -1.676  0.00  0.00    +0.027 A 
ATOM      6  C   UNL     1      -5.385  -0.292  -0.953  0.00  0.00    +0.051 A 
ATOM      7  C   UNL     1      -5.873  -0.215   0.341  0.00  0.00    +0.166 A 
ATOM      8  C   UNL     1      -6.129   1.028   0.915  0.00  0.00    +0.168 A 
ATOM      9  C   UNL     1      -5.890   2.185   0.191  0.00  0.00    +0.073 A 
ATOM     10  O   UNL     1      -6.598   0.836   2.182  0.00  0.00    -0.453 OA
ATOM     11  C   UNL     1      -6.240  -0.516   2.524  0.00  0.00    +0.466 C 
ATOM     12  O   UNL     1      -6.182  -1.187   1.251  0.00  0.00    -0.453 OA
ENDBRANCH   1   4
BRANCH   1  13
ATOM     13  C   UNL     1      -6.019   3.600  -2.990  0.00  0.00    +0.197 C 
BRANCH  13  17
ATOM     14  C   UNL     1      -8.714   0.371  -3.736  0.00  0.00    -0.048 A 
ATOM     15  C   UNL     1      -7.806   0.751  -4.706  0.00  0.00    +0.004 A 
ATOM     16  C   UNL     1      -6.934   1.796  -4.465  0.00  0.00    +0.006 A 
ATOM     17  C   UNL     1      -6.970   2.461  -3.253  0.00  0.00    -0.018 A 
ATOM     18  C   UNL     1      -7.875   2.077  -2.281  0.00  0.00    +0.006 A 
ATOM     19  C   UNL     1      -8.751   1.036  -2.525  0.00  0.00    +0.004 A 
BRANCH  14  21
ATOM     20  C   UNL     1      -9.022  -2.083  -3.549  0.00  0.00    +0.009 C 
ATOM     21  C   UNL     1      -9.665  -0.769  -3.999  0.00  0.00    +0.032 C 
ENDBRANCH  14  21
ENDBRANCH  13  17
BRANCH  13  22
ATOM     22  C   UNL     1      -6.804   4.851  -2.693  0.00  0.00    +0.239 C 
ATOM     23  O   UNL     1      -6.668   5.414  -1.628  0.00  0.00    -0.273 OA
ATOM     24  N   UNL     1      -7.657   5.346  -3.612  0.00  0.00    -0.309 N 
ATOM     25  H   UNL     1      -7.766   4.896  -4.465  0.00  0.00    +0.149 HD
BRANCH  24  26
ATOM     26  C   UNL     1      -8.421   6.562  -3.324  0.00  0.00    +0.026 C 
ATOM     27  C   UNL     1      -7.455   7.719  -3.057  0.00  0.00    +0.031 C 
ATOM     28  C   UNL     1      -9.307   6.905  -4.523  0.00  0.00    +0.031 C 
ATOM     29  C   UNL     1      -9.297   6.334  -2.091  0.00  0.00    +0.031 C 
ENDBRANCH  24  26
ENDBRANCH  13  22
ENDBRANCH   1  13
BRANCH   2  30
ATOM     30  C   UNL     1      -3.218   3.702  -0.385  0.00  0.00    +0.242 C 
BRANCH  30  31
ATOM     31  N   UNL     1      -2.141   4.690  -0.289  0.00  0.00    -0.235 N 
ATOM     32  C   UNL     1      -0.937   4.663  -0.952  0.00  0.00    +0.090 A 
ATOM     33  C   UNL     1      -0.357   3.789  -1.866  0.00  0.00    +0.029 A 
ATOM     34  C   UNL     1       0.893   4.047  -2.353  0.00  0.00    +0.002 A 
ATOM     35  C   UNL     1       1.588   5.181  -1.952  0.00  0.00    +0.002 A 
ATOM     36  C   UNL     1       1.039   6.056  -1.061  0.00  0.00    +0.032 A 
ATOM     37  C   UNL     1      -0.239   5.812  -0.542  0.00  0.00    +0.113 A 
ATOM     38  N   UNL     1      -1.023   6.476   0.331  0.00  0.00    -0.129 NA
ATOM     39  N   UNL     1      -2.134   5.851   0.499  0.00  0.00    -0.064 NA
ENDBRANCH  30  31
ENDBRANCH   2  30
TORSDOF 8
