REMARK  Name = ZINC15016595
REMARK  5 active torsions:
REMARK  status: ('A' for Active; 'I' for Inactive)
REMARK    1  A    between atoms: C_4  and  C_7
REMARK    2  A    between atoms: C_7  and  S_8
REMARK    3  A    between atoms: S_8  and  C_9
REMARK    4  A    between atoms: C_22  and  C_25
REMARK    5  A    between atoms: C_30  and  C_31
REMARK                            x       y       z     vdW  Elec       q    Type
REMARK                         _______ _______ _______ _____ _____    ______ ____
ROOT
ATOM      1  C   UNL     1       3.972  -0.537   1.224  0.00  0.00    +0.213 A 
ATOM      2  N   UNL     1       3.228  -0.746   0.141  0.00  0.00    -0.184 NA
ATOM      3  C   UNL     1       2.088  -0.091   0.004  0.00  0.00    +0.248 A 
ATOM      4  C   UNL     1       1.696   0.811   1.020  0.00  0.00    +0.156 A 
ATOM      5  N   UNL     1       2.485   0.975   2.071  0.00  0.00    -0.141 NA
ATOM      6  N   UNL     1       3.589   0.318   2.164  0.00  0.00    -0.122 NA
ATOM      7  C   UNL     1       0.420   1.545   0.892  0.00  0.00    +0.028 A 
ATOM      8  C   UNL     1       0.342   2.913   1.120  0.00  0.00    +0.012 A 
ATOM      9  C   UNL     1      -0.876   3.558   1.014  0.00  0.00    +0.001 A 
ATOM     10  C   UNL     1      -2.017   2.848   0.682  0.00  0.00    +0.002 A 
ATOM     11  C   UNL     1      -1.951   1.488   0.443  0.00  0.00    +0.024 A 
ATOM     12  C   UNL     1      -0.739   0.829   0.540  0.00  0.00    +0.039 A 
ATOM     13  N   UNL     1      -0.634  -0.542   0.290  0.00  0.00    -0.305 N 
ATOM     14  C   UNL     1       0.084  -0.985  -0.901  0.00  0.00    +0.297 C 
ATOM     15  O   UNL     1       1.300  -0.267  -1.083  0.00  0.00    -0.449 OA
ATOM     16  H   UNL     1      -1.030  -1.187   0.897  0.00  0.00    +0.150 HD
ENDROOT
BRANCH  14  17
ATOM     17  C   UNL     1      -0.793  -0.776  -2.108  0.00  0.00    +0.056 A 
ATOM     18  C   UNL     1      -1.654   0.248  -2.299  0.00  0.00    +0.114 A 
ATOM     19  N   UNL     1      -2.248   0.075  -3.499  0.00  0.00    -0.284 N 
ATOM     20  H   UNL     1      -2.933   0.679  -3.907  0.00  0.00    +0.188 HD
ATOM     21  N   UNL     1      -1.738  -1.096  -4.074  0.00  0.00    -0.173 NA
ATOM     22  C   UNL     1      -0.857  -1.610  -3.241  0.00  0.00    +0.101 A 
BRANCH  22  23
ATOM     23  C   UNL     1      -0.072  -2.851  -3.457  0.00  0.00    +0.003 A 
ATOM     24  C   UNL     1       1.282  -2.888  -3.129  0.00  0.00    +0.010 A 
ATOM     25  C   UNL     1       2.006  -4.046  -3.327  0.00  0.00    +0.001 A 
ATOM     26  C   UNL     1       1.392  -5.166  -3.860  0.00  0.00    +0.000 A 
ATOM     27  C   UNL     1       0.050  -5.133  -4.192  0.00  0.00    +0.001 A 
ATOM     28  C   UNL     1      -0.685  -3.981  -3.994  0.00  0.00    +0.010 A 
ENDBRANCH  22  23
ENDBRANCH  14  17
BRANCH   1  29
ATOM     29  S   UNL     1       5.492  -1.409   1.413  0.00  0.00    -0.080 S 
BRANCH  29  30
ATOM     30  C   UNL     1       6.040  -0.744   3.004  0.00  0.00    +0.112 C 
BRANCH  30  34
ATOM     31  C   UNL     1       9.783  -2.505   4.071  0.00  0.00    +0.000 A 
ATOM     32  C   UNL     1       9.754  -1.338   3.331  0.00  0.00    +0.000 A 
ATOM     33  C   UNL     1       8.543  -0.768   2.986  0.00  0.00    +0.004 A 
ATOM     34  C   UNL     1       7.360  -1.365   3.380  0.00  0.00    -0.037 A 
ATOM     35  C   UNL     1       7.389  -2.530   4.125  0.00  0.00    +0.004 A 
ATOM     36  C   UNL     1       8.600  -3.103   4.465  0.00  0.00    +0.000 A 
ENDBRANCH  30  34
ENDBRANCH  29  30
ENDBRANCH   1  29
TORSDOF 5
