REMARK  Name = ZINC27527485
REMARK  5 active torsions:
REMARK  status: ('A' for Active; 'I' for Inactive)
REMARK    1  A    between atoms: C_3  and  C_6
REMARK    2  A    between atoms: C_8  and  N_23
REMARK    3  A    between atoms: N_12  and  C_13
REMARK    4  A    between atoms: C_18  and  N_19
REMARK    5  A    between atoms: C_29  and  N_34
REMARK                            x       y       z     vdW  Elec       q    Type
REMARK                         _______ _______ _______ _____ _____    ______ ____
ROOT
ATOM      1  C   UNL     1      -1.014  -4.680   1.128  0.00  0.00    +0.148 C 
ATOM      2  C   UNL     1      -1.212  -3.566   0.088  0.00  0.00    +0.196 C 
ATOM      3  C   UNL     1      -0.391  -4.421  -0.856  0.00  0.00    +0.244 C 
ATOM      4  O   UNL     1      -0.019  -4.295  -2.004  0.00  0.00    -0.273 OA
ATOM      5  N   UNL     1      -0.237  -5.385   0.093  0.00  0.00    -0.257 N 
ENDROOT
BRANCH   2   6
ATOM      6  N   UNL     1      -0.566  -2.302   0.449  0.00  0.00    -0.220 N 
ATOM      7  C   UNL     1       0.740  -2.172   0.746  0.00  0.00    +0.255 C 
ATOM      8  O   UNL     1       1.557  -3.070   0.757  0.00  0.00    -0.270 OA
ATOM      9  C   UNL     1       1.013  -0.753   1.057  0.00  0.00    +0.050 A 
ATOM     10  C   UNL     1       2.146  -0.043   1.422  0.00  0.00    +0.016 A 
ATOM     11  C   UNL     1       2.058   1.322   1.647  0.00  0.00    +0.033 A 
ATOM     12  C   UNL     1       0.850   1.979   1.510  0.00  0.00    +0.127 A 
ATOM     13  C   UNL     1      -0.292   1.282   1.146  0.00  0.00    +0.046 A 
ATOM     14  C   UNL     1      -0.219  -0.083   0.918  0.00  0.00    +0.052 A 
ATOM     15  C   UNL     1      -1.200  -1.118   0.527  0.00  0.00    +0.255 C 
ATOM     16  O   UNL     1      -2.381  -0.931   0.312  0.00  0.00    -0.270 OA
BRANCH  12  17
ATOM     17  N   UNL     1       0.774   3.437   1.754  0.00  0.00    +0.056 N 
ATOM     18  O   UNL     1      -0.289   4.020   1.635  0.00  0.00    -0.126 OA
ATOM     19  O   UNL     1       1.774   4.054   2.074  0.00  0.00    -0.126 OA
ENDBRANCH  12  17
ENDBRANCH   2   6
BRANCH   5  20
ATOM     20  C   UNL     1       0.427  -6.617   0.087  0.00  0.00    +0.067 A 
ATOM     21  C   UNL     1       1.591  -6.783   0.825  0.00  0.00    +0.027 A 
ATOM     22  C   UNL     1       2.244  -8.000   0.817  0.00  0.00    +0.022 A 
ATOM     23  C   UNL     1       1.739  -9.053   0.075  0.00  0.00    +0.043 A 
ATOM     24  C   UNL     1       0.579  -8.890  -0.661  0.00  0.00    +0.054 A 
ATOM     25  C   UNL     1      -0.081  -7.677  -0.653  0.00  0.00    +0.149 A 
ATOM     26 CL   UNL     1       2.562 -10.582   0.068  0.00  0.00    -0.083 Cl
BRANCH  25  27
ATOM     27  N   UNL     1      -1.326  -7.505  -1.435  0.00  0.00    +0.058 N 
ATOM     28  O   UNL     1      -1.836  -8.465  -1.986  0.00  0.00    -0.126 OA
ATOM     29  O   UNL     1      -1.840  -6.405  -1.528  0.00  0.00    -0.126 OA
ENDBRANCH  25  27
ENDBRANCH   5  20
BRANCH   1  32
ATOM     30  C   UNL     1      -4.208  -5.972   2.754  0.00  0.00    +0.008 A 
ATOM     31  C   UNL     1      -3.065  -5.207   2.610  0.00  0.00    +0.013 A 
ATOM     32  C   UNL     1      -2.290  -5.384   1.512  0.00  0.00    +0.013 A 
ATOM     33  S   UNL     1      -3.169  -6.672   0.643  0.00  0.00    -0.100 S 
ATOM     34  C   UNL     1      -4.514  -6.883   1.798  0.00  0.00    +0.045 A 
ENDBRANCH   1  32
TORSDOF 5
