REMARK  Name = ZINC42438892
REMARK  5 active torsions:
REMARK  status: ('A' for Active; 'I' for Inactive)
REMARK    1  A    between atoms: C_1  and  C_2
REMARK    2  A    between atoms: C_6  and  C_21
REMARK    3  A    between atoms: C_10  and  C_12
REMARK    4  A    between atoms: C_15  and  C_18
REMARK    5  A    between atoms: C_18  and  N_20
REMARK                            x       y       z     vdW  Elec       q    Type
REMARK                         _______ _______ _______ _____ _____    ______ ____
ROOT
ATOM      1  C   UNL     1       0.074   1.465  -0.095  0.00  0.00    +0.028 C 
ATOM      2  C   UNL     1      -0.331   0.046   0.310  0.00  0.00    +0.073 C 
ATOM      3  C   UNL     1      -1.808   0.030   0.715  0.00  0.00    +0.023 C 
ATOM      4  C   UNL     1      -2.171  -1.356   1.251  0.00  0.00    +0.016 C 
ATOM      5  C   UNL     1      -1.327  -1.663   2.490  0.00  0.00    +0.092 C 
ATOM      6  C   UNL     1       0.155  -1.667   2.105  0.00  0.00    +0.121 C 
ATOM      7  N   UNL     1       0.481  -0.390   1.454  0.00  0.00    -0.294 N 
ATOM      8  C   UNL     1       1.502   0.368   1.901  0.00  0.00    +0.247 C 
ATOM      9  O   UNL     1       1.688   1.474   1.431  0.00  0.00    -0.270 OA
ENDROOT
BRANCH   8  10
ATOM     10  C   UNL     1       2.395  -0.145   2.962  0.00  0.00    +0.037 A 
ATOM     11  C   UNL     1       2.605  -1.519   3.094  0.00  0.00    +0.014 A 
ATOM     12  C   UNL     1       3.437  -1.997   4.083  0.00  0.00    +0.011 A 
ATOM     13  C   UNL     1       4.070  -1.107   4.953  0.00  0.00    +0.003 A 
ATOM     14  C   UNL     1       3.860   0.267   4.821  0.00  0.00    +0.011 A 
ATOM     15  C   UNL     1       3.033   0.745   3.829  0.00  0.00    +0.014 A 
BRANCH  13  16
ATOM     16  C   UNL     1       4.962  -1.620   6.014  0.00  0.00    +0.077 C 
ATOM     17  S   UNL     1       5.927  -3.004   5.726  0.00  0.00    -0.035 S 
BRANCH  16  18
ATOM     18  N   UNL     1       5.015  -0.998   7.208  0.00  0.00    -0.352 N 
ATOM     19  H   UNL     1       4.468  -0.214   7.372  0.00  0.00    +0.143 HD
ATOM     20  H   UNL     1       5.600  -1.335   7.905  0.00  0.00    +0.143 HD
ENDBRANCH  16  18
ENDBRANCH  13  16
ENDBRANCH   8  10
BRANCH   5  21
ATOM     21  C   UNL     1      -1.709  -3.015   3.036  0.00  0.00    +0.215 C 
ATOM     22  O   UNL     1      -2.571  -3.669   2.488  0.00  0.00    -0.276 OA
ATOM     23  N   UNL     1      -1.092  -3.498   4.133  0.00  0.00    -0.329 N 
ATOM     24  H   UNL     1      -0.403  -2.974   4.571  0.00  0.00    +0.145 HD
ATOM     25  H   UNL     1      -1.338  -4.368   4.484  0.00  0.00    +0.145 HD
ENDBRANCH   5  21
TORSDOF 4
