REMARK  Name = ZINC59384881
REMARK  8 active torsions:
REMARK  status: ('A' for Active; 'I' for Inactive)
REMARK    1  A    between atoms: C_1  and  C_2
REMARK    2  A    between atoms: C_2  and  O_3
REMARK    3  A    between atoms: O_3  and  C_4
REMARK    4  A    between atoms: C_7  and  C_10
REMARK    5  A    between atoms: N_11  and  N_12
REMARK    6  A    between atoms: C_13  and  C_15
REMARK    7  A    between atoms: C_16  and  C_30
REMARK    8  A    between atoms: C_21  and  C_23
REMARK                            x       y       z     vdW  Elec       q    Type
REMARK                         _______ _______ _______ _____ _____    ______ ____
ROOT
ATOM      1  C   UNL     1      -4.704 -10.161   0.133  0.00  0.00    +0.057 C 
ATOM      2  C   UNL     1      -5.808 -10.938   0.114  0.00  0.00    +0.017 C 
ATOM      3  N   UNL     1      -5.714 -12.292  -0.044  0.00  0.00    -0.300 N 
ATOM      4  C   UNL     1      -4.553 -12.944  -0.188  0.00  0.00    +0.135 C 
ATOM      5  S   UNL     1      -4.577 -14.645  -0.377  0.00  0.00    -0.019 S 
ATOM      6  N   UNL     1      -3.367 -12.304  -0.190  0.00  0.00    -0.315 N 
ATOM      7  C   UNL     1      -3.360 -10.840  -0.032  0.00  0.00    +0.141 C 
ATOM      8  C   UNL     1      -7.165 -10.302   0.269  0.00  0.00    +0.061 C 
ATOM      9  H   UNL     1      -6.534 -12.810  -0.051  0.00  0.00    +0.154 HD
ATOM     10  H   UNL     1      -2.538 -12.796  -0.296  0.00  0.00    +0.149 HD
ENDROOT
BRANCH   7  11
ATOM     11  C   UNL     1      -2.522 -10.512   1.177  0.00  0.00    -0.004 A 
ATOM     12  C   UNL     1      -2.525 -11.358   2.271  0.00  0.00    +0.007 A 
ATOM     13  C   UNL     1      -1.757 -11.056   3.380  0.00  0.00    +0.000 A 
ATOM     14  C   UNL     1      -0.985  -9.909   3.396  0.00  0.00    +0.001 A 
ATOM     15  C   UNL     1      -0.982  -9.063   2.304  0.00  0.00    +0.020 A 
ATOM     16  C   UNL     1      -1.746  -9.367   1.191  0.00  0.00    +0.046 A 
ATOM     17 CL   UNL     1      -1.737  -8.307  -0.184  0.00  0.00    -0.083 Cl
ENDBRANCH   7  11
BRANCH   1  19
ATOM     18  N   UNL     1      -4.976  -8.232   1.524  0.00  0.00    -0.203 N 
ATOM     19  C   UNL     1      -4.800  -8.757   0.296  0.00  0.00    +0.263 C 
ATOM     20  O   UNL     1      -4.724  -8.025  -0.675  0.00  0.00    -0.269 OA
ATOM     21  H   UNL     1      -4.969  -8.809   2.304  0.00  0.00    +0.178 HD
BRANCH  18  23
ATOM     22  C   UNL     1      -5.239  -6.333   2.862  0.00  0.00    +0.138 C 
ATOM     23  N   UNL     1      -5.168  -6.852   1.675  0.00  0.00    -0.187 NA
BRANCH  22  27
ATOM     24  C   UNL     1      -5.500  -2.121   3.325  0.00  0.00    +0.121 A 
ATOM     25  C   UNL     1      -5.491  -2.941   4.446  0.00  0.00    +0.046 A 
ATOM     26  C   UNL     1      -5.407  -4.309   4.301  0.00  0.00    +0.013 A 
ATOM     27  C   UNL     1      -5.330  -4.870   3.023  0.00  0.00    -0.005 A 
ATOM     28  C   UNL     1      -5.339  -4.041   1.899  0.00  0.00    +0.013 A 
ATOM     29  C   UNL     1      -5.429  -2.675   2.053  0.00  0.00    +0.046 A 
BRANCH  24  30
ATOM     30  O   UNL     1      -5.583  -0.773   3.473  0.00  0.00    -0.492 OA
BRANCH  30  32
ATOM     31  C   UNL     1      -5.741   1.257   4.775  0.00  0.00    +0.048 C 
ATOM     32  C   UNL     1      -5.653  -0.270   4.809  0.00  0.00    +0.225 C 
ENDBRANCH  30  32
ENDBRANCH  24  30
ENDBRANCH  22  27
ENDBRANCH  18  23
ENDBRANCH   1  19
TORSDOF 6
