REMARK  Name = ZINC59293535
REMARK  8 active torsions:
REMARK  status: ('A' for Active; 'I' for Inactive)
REMARK    1  A    between atoms: C_1  and  C_2
REMARK    2  A    between atoms: C_2  and  C_3
REMARK    3  A    between atoms: C_3  and  N_4
REMARK    4  A    between atoms: C_5  and  C_7
REMARK    5  A    between atoms: C_13  and  C_14
REMARK    6  A    between atoms: C_21  and  N_33
REMARK    7  A    between atoms: C_22  and  C_31
REMARK    8  A    between atoms: C_23  and  C_25
REMARK                            x       y       z     vdW  Elec       q    Type
REMARK                         _______ _______ _______ _____ _____    ______ ____
ROOT
ATOM      1  C   UNL     1       1.060  -4.029   2.343  0.00  0.00    +0.057 C 
ATOM      2  C   UNL     1       1.587  -4.666   3.421  0.00  0.00    +0.099 A 
ATOM      3  N   UNL     1       1.386  -6.000   3.712  0.00  0.00    -0.257 N 
ATOM      4  C   UNL     1       1.975  -6.495   4.819  0.00  0.00    +0.271 A 
ATOM      5  O   UNL     1       1.836  -7.663   5.129  0.00  0.00    -0.266 OA
ATOM      6  C   UNL     1       2.790  -5.591   5.640  0.00  0.00    +0.079 A 
ATOM      7  C   UNL     1       3.475  -5.847   6.783  0.00  0.00    +0.028 C 
ATOM      8  S   UNL     1       2.636  -4.063   4.729  0.00  0.00    -0.065 S 
ATOM      9  C   UNL     1       0.589  -6.771   2.858  0.00  0.00    +0.118 C 
ATOM     10  C   UNL     1      -0.007  -6.286   1.747  0.00  0.00    +0.079 C 
ATOM     11  C   UNL     1       0.185  -4.825   1.394  0.00  0.00    +0.100 C 
ENDROOT
BRANCH   7  12
ATOM     12  C   UNL     1       3.610  -7.229   7.265  0.00  0.00    -0.024 A 
ATOM     13  C   UNL     1       3.893  -8.263   6.365  0.00  0.00    +0.008 A 
ATOM     14  C   UNL     1       4.018  -9.556   6.825  0.00  0.00    +0.001 A 
ATOM     15  C   UNL     1       3.866  -9.834   8.173  0.00  0.00    +0.000 A 
ATOM     16  C   UNL     1       3.586  -8.817   9.069  0.00  0.00    +0.001 A 
ATOM     17  C   UNL     1       3.463  -7.517   8.626  0.00  0.00    +0.008 A 
ENDBRANCH   7  12
BRANCH  11  18
ATOM     18  C   UNL     1       0.795  -4.751   0.018  0.00  0.00    -0.035 A 
ATOM     19  C   UNL     1       2.072  -5.234  -0.199  0.00  0.00    +0.004 A 
ATOM     20  C   UNL     1       2.631  -5.166  -1.461  0.00  0.00    +0.000 A 
ATOM     21  C   UNL     1       1.913  -4.617  -2.507  0.00  0.00    +0.000 A 
ATOM     22  C   UNL     1       0.635  -4.136  -2.290  0.00  0.00    +0.000 A 
ATOM     23  C   UNL     1       0.075  -4.207  -1.029  0.00  0.00    +0.004 A 
ENDBRANCH  11  18
BRANCH   1  25
ATOM     24  N   UNL     1       0.776  -2.050   1.046  0.00  0.00    -0.312 N 
ATOM     25  C   UNL     1       1.313  -2.666   2.117  0.00  0.00    +0.244 C 
ATOM     26  O   UNL     1       2.018  -2.041   2.890  0.00  0.00    -0.270 OA
ATOM     27  H   UNL     1       0.215  -2.547   0.430  0.00  0.00    +0.149 HD
BRANCH  24  28
ATOM     28  C   UNL     1       1.040  -0.628   0.810  0.00  0.00    +0.104 C 
BRANCH  28  30
ATOM     29  C   UNL     1       0.595   1.305  -0.709  0.00  0.00    +0.005 C 
ATOM     30  C   UNL     1       0.319  -0.179  -0.463  0.00  0.00    +0.015 C 
ENDBRANCH  28  30
ENDBRANCH  24  28
ENDBRANCH   1  25
BRANCH   9  31
ATOM     31  N   UNL     1       0.402  -8.097   3.167  0.00  0.00    -0.343 N 
ATOM     32  H   UNL     1       0.439  -8.389   4.091  0.00  0.00    +0.144 HD
ATOM     33  H   UNL     1       0.233  -8.740   2.461  0.00  0.00    +0.144 HD
ENDBRANCH   9  31
BRANCH  10  34
ATOM     34  C   UNL     1      -0.809  -7.136   0.919  0.00  0.00    +0.099 C 
ATOM     35  N   UNL     1      -1.446  -7.810   0.263  0.00  0.00    -0.191 NA
ENDBRANCH  10  34
TORSDOF 7
