REMARK  Name = ZINC39934825
REMARK  10 active torsions:
REMARK  status: ('A' for Active; 'I' for Inactive)
REMARK    1  A    between atoms: C_1  and  C_2
REMARK    2  A    between atoms: C_7  and  C_12
REMARK    3  A    between atoms: C_12  and  C_34
REMARK    4  A    between atoms: C_13  and  C_14
REMARK    5  A    between atoms: C_16  and  C_33
REMARK    6  A    between atoms: N_18  and  C_22
REMARK    7  A    between atoms: C_19  and  C_21
REMARK    8  A    between atoms: C_25  and  N_30
REMARK    9  A    between atoms: C_27  and  O_28
REMARK   10  A    between atoms: O_28  and  C_29
REMARK                            x       y       z     vdW  Elec       q    Type
REMARK                         _______ _______ _______ _____ _____    ______ ____
ROOT
ATOM      1  C   UNL     1       2.470  -6.893   3.006  0.00  0.00    -0.028 C 
ATOM      2  C   UNL     1       2.573  -8.067   3.621  0.00  0.00    +0.000 C 
ATOM      3  C   UNL     1       4.023  -8.374   3.889  0.00  0.00    +0.094 C 
ATOM      4  N   UNL     1       4.812  -7.251   3.366  0.00  0.00    -0.314 N 
ATOM      5  C   UNL     1       3.841  -6.306   2.798  0.00  0.00    +0.101 C 
ATOM      6  C   UNL     1       3.946  -4.961   3.518  0.00  0.00    +0.033 C 
ATOM      7  C   UNL     1       4.420  -9.669   3.176  0.00  0.00    +0.032 C 
ENDROOT
BRANCH   4   8
ATOM      8  C   UNL     1       6.204  -7.111   3.399  0.00  0.00    +0.073 A 
ATOM      9  C   UNL     1       6.975  -7.587   2.348  0.00  0.00    +0.029 A 
ATOM     10  C   UNL     1       8.350  -7.448   2.382  0.00  0.00    +0.035 A 
ATOM     11  C   UNL     1       8.960  -6.836   3.461  0.00  0.00    +0.130 A 
ATOM     12  C   UNL     1       8.198  -6.360   4.512  0.00  0.00    +0.080 A 
ATOM     13  C   UNL     1       6.819  -6.490   4.483  0.00  0.00    +0.143 A 
BRANCH  11  14
ATOM     14  N   UNL     1      10.432  -6.691   3.492  0.00  0.00    +0.057 N 
ATOM     15  O   UNL     1      11.100  -7.107   2.574  0.00  0.00    -0.126 OA
ATOM     16  O   UNL     1      10.967  -6.156   4.435  0.00  0.00    -0.126 OA
ENDBRANCH  11  14
BRANCH  13  17
ATOM     17  O   UNL     1       6.068  -6.016   5.513  0.00  0.00    -0.493 OA
ATOM     18  C   UNL     1       6.766  -5.390   6.591  0.00  0.00    +0.277 C 
ENDBRANCH  13  17
ENDBRANCH   4   8
BRANCH   1  20
ATOM     19  C   UNL     1       0.235  -6.049   3.495  0.00  0.00    +0.072 C 
ATOM     20  C   UNL     1       1.214  -6.268   2.589  0.00  0.00    +0.023 C 
BRANCH  19  27
ATOM     21  C   UNL     1      -6.135  -5.354   6.285  0.00  0.00    +0.044 C 
ATOM     22  C   UNL     1      -4.809  -4.997   5.667  0.00  0.00    -0.048 A 
ATOM     23  C   UNL     1      -4.204  -3.778   6.023  0.00  0.00    +0.005 A 
ATOM     24  C   UNL     1      -3.019  -3.379   5.519  0.00  0.00    +0.027 A 
ATOM     25  C   UNL     1      -2.315  -4.238   4.557  0.00  0.00    +0.060 A 
ATOM     26  N   UNL     1      -1.187  -4.114   3.921  0.00  0.00    -0.359 N 
ATOM     27  C   UNL     1      -1.016  -5.312   3.089  0.00  0.00    +0.216 C 
ATOM     28  N   UNL     1      -2.196  -6.152   3.325  0.00  0.00    -0.359 N 
ATOM     29  C   UNL     1      -2.955  -5.528   4.180  0.00  0.00    +0.061 A 
ATOM     30  C   UNL     1      -4.246  -5.860   4.798  0.00  0.00    +0.030 A 
ATOM     31  H   UNL     1      -0.571  -3.367   3.984  0.00  0.00    +0.162 HD
ATOM     32  H   UNL     1      -2.378  -7.014   2.919  0.00  0.00    +0.162 HD
ENDBRANCH  19  27
BRANCH  19  33
ATOM     33  C   UNL     1       0.385  -6.518   4.839  0.00  0.00    +0.099 C 
ATOM     34  N   UNL     1       0.504  -6.889   5.906  0.00  0.00    -0.191 NA
ENDBRANCH  19  33
ENDBRANCH   1  20
TORSDOF 6
