REMARK  Name = ZINC66404580
REMARK  6 active torsions:
REMARK  status: ('A' for Active; 'I' for Inactive)
REMARK    1  A    between atoms: C_1  and  C_2
REMARK    2  A    between atoms: C_7  and  C_8
REMARK    3  A    between atoms: C_8  and  C_10
REMARK    4  A    between atoms: C_8  and  N_12
REMARK    5  A    between atoms: C_13  and  C_15
REMARK    6  A    between atoms: C_17  and  C_20
REMARK                            x       y       z     vdW  Elec       q    Type
REMARK                         _______ _______ _______ _____ _____    ______ ____
ROOT
ATOM      1  N   UNL     1       0.630  -0.793   3.543  0.00  0.00    -0.291 N 
ATOM      2  C   UNL     1       1.199  -0.221   4.623  0.00  0.00    +0.267 C 
ATOM      3  O   UNL     1       1.211   0.989   4.735  0.00  0.00    -0.268 OA
ATOM      4  H   UNL     1       0.621  -1.758   3.453  0.00  0.00    +0.151 HD
ENDROOT
BRANCH   2   5
ATOM      5  C   UNL     1       1.812  -1.069   5.674  0.00  0.00    +0.168 A 
ATOM      6  C   UNL     1       2.433  -0.608   6.853  0.00  0.00    +0.089 A 
ATOM      7  C   UNL     1       2.864  -1.696   7.553  0.00  0.00    +0.203 A 
ATOM      8  O   UNL     1       2.532  -2.797   6.851  0.00  0.00    -0.351 OA
ATOM      9  N   UNL     1       1.865  -2.381   5.673  0.00  0.00    -0.073 NA
BRANCH   7  10
ATOM     10  C   UNL     1       3.567  -1.672   8.844  0.00  0.00    +0.172 A 
ATOM     11  C   UNL     1       4.002  -2.761   9.539  0.00  0.00    +0.053 A 
ATOM     12  C   UNL     1       4.616  -2.276  10.709  0.00  0.00    +0.042 A 
ATOM     13  C   UNL     1       4.528  -0.931  10.673  0.00  0.00    +0.196 A 
ATOM     14  O   UNL     1       3.899  -0.569   9.544  0.00  0.00    -0.460 OA
ENDBRANCH   7  10
ENDBRANCH   2   5
BRANCH   1  15
ATOM     15  C   UNL     1       0.025   0.045   2.504  0.00  0.00    +0.207 C 
BRANCH  15  22
ATOM     16  C   UNL     1      -0.018   1.503   0.010  0.00  0.00    +0.044 C 
ATOM     17  C   UNL     1       0.002  -0.004   0.002  0.00  0.00    -0.045 A 
ATOM     18  C   UNL     1       0.006  -0.689  -1.199  0.00  0.00    +0.004 A 
ATOM     19  C   UNL     1       0.025  -2.071  -1.207  0.00  0.00    +0.000 A 
ATOM     20  C   UNL     1       0.040  -2.768  -0.013  0.00  0.00    +0.000 A 
ATOM     21  C   UNL     1       0.037  -2.084   1.188  0.00  0.00    +0.007 A 
ATOM     22  C   UNL     1       0.023  -0.702   1.195  0.00  0.00    -0.010 A 
ENDBRANCH  15  22
BRANCH  15  23
ATOM     23  C   UNL     1      -1.358   0.374   2.884  0.00  0.00    +0.090 C 
ATOM     24  N   UNL     1      -2.426   0.628   3.177  0.00  0.00    -0.194 NA
ENDBRANCH  15  23
ENDBRANCH   1  15
TORSDOF 5
