REMARK  Name = ZINC04783953
REMARK  4 active torsions:
REMARK  status: ('A' for Active; 'I' for Inactive)
REMARK    1  A    between atoms: C_4  and  C_7
REMARK    2  A    between atoms: C_12  and  N_13
REMARK    3  A    between atoms: C_12  and  N_47
REMARK    4  A    between atoms: C_14  and  C_19
REMARK                            x       y       z     vdW  Elec       q    Type
REMARK                         _______ _______ _______ _____ _____    ______ ____
ROOT
ATOM      1  C   UNL     1       0.037   0.035   0.479  0.00  0.00    +0.048 C 
ENDROOT
BRANCH   1   7
ATOM      2  C   UNL     1       1.729  -1.296   4.173  0.00  0.00    +0.016 C 
ATOM      3  C   UNL     1       0.387  -1.868   3.709  0.00  0.00    -0.011 C 
ATOM      4  C   UNL     1       0.241  -1.655   2.201  0.00  0.00    -0.076 C 
ATOM      5  C   UNL     1       1.611   0.342   2.293  0.00  0.00    -0.076 C 
ATOM      6  C   UNL     1       1.798   0.188   3.804  0.00  0.00    -0.011 C 
ATOM      7  N   UNL     1       0.290  -0.205   1.914  0.00  0.00    +0.392 N 
ATOM      8  H   UNL     1      -0.436   0.268   2.464  0.00  0.00    -0.079 HD
BRANCH   2  12
ATOM      9  C   UNL     1       2.082  -1.735   8.408  0.00  0.00    +0.000 A 
ATOM     10  C   UNL     1       3.005  -2.334   7.571  0.00  0.00    +0.000 A 
ATOM     11  C   UNL     1       2.891  -2.192   6.201  0.00  0.00    +0.004 A 
ATOM     12  C   UNL     1       1.853  -1.451   5.667  0.00  0.00    -0.044 A 
ATOM     13  C   UNL     1       0.932  -0.848   6.503  0.00  0.00    +0.004 A 
ATOM     14  C   UNL     1       1.044  -0.994   7.873  0.00  0.00    +0.000 A 
ENDBRANCH   2  12
ENDBRANCH   1   7
BRANCH   1  15
ATOM     15  N   UNL     1      -0.248   1.458   0.283  0.00  0.00    -0.346 N 
ATOM     16  C   UNL     1       0.723   2.301  -0.180  0.00  0.00    +0.055 A 
ATOM     17  C   UNL     1       0.439   3.610  -0.353  0.00  0.00    +0.074 A 
ATOM     18  S   UNL     1      -1.272   3.680   0.153  0.00  0.00    -0.070 S 
ATOM     19  C   UNL     1      -1.480   1.952   0.553  0.00  0.00    +0.124 A 
ATOM     20  S   UNL     1      -2.870   1.136   1.129  0.00  0.00    -0.025 S 
BRANCH  16  21
ATOM     21  C   UNL     1       2.075   1.784  -0.487  0.00  0.00    -0.001 A 
ATOM     22  C   UNL     1       3.205   2.472  -0.044  0.00  0.00    +0.013 A 
ATOM     23  C   UNL     1       4.463   1.982  -0.330  0.00  0.00    +0.039 A 
ATOM     24  C   UNL     1       4.605   0.816  -1.064  0.00  0.00    +0.123 A 
ATOM     25  C   UNL     1       3.486   0.132  -1.511  0.00  0.00    +0.039 A 
ATOM     26  C   UNL     1       2.223   0.610  -1.227  0.00  0.00    +0.013 A 
ATOM     27  F   UNL     1       5.839   0.344  -1.345  0.00  0.00    -0.205 F 
ENDBRANCH  16  21
ENDBRANCH   1  15
TORSDOF 4
