REMARK  Name = ZINC35198979
REMARK  12 active torsions:
REMARK  status: ('A' for Active; 'I' for Inactive)
REMARK    1  A    between atoms: C_1  and  C_2
REMARK    2  A    between atoms: C_6  and  C_8
REMARK    3  A    between atoms: C_8  and  S_9
REMARK    4  A    between atoms: S_9  and  C_10
REMARK    5  A    between atoms: C_13  and  C_23
REMARK    6  A    between atoms: N_14  and  C_15
REMARK    7  A    between atoms: C_23  and  C_25
REMARK    8  A    between atoms: C_23  and  N_26
REMARK    9  A    between atoms: C_27  and  C_29
REMARK   10  A    between atoms: C_29  and  C_30
REMARK   11  A    between atoms: C_29  and  C_31
REMARK   12  A    between atoms: C_29  and  C_32
REMARK                            x       y       z     vdW  Elec       q    Type
REMARK                         _______ _______ _______ _____ _____    ______ ____
ROOT
ATOM      1  C   UNL     1       1.622  -4.015   4.517  0.00  0.00    +0.197 A 
ATOM      2  N   UNL     1       0.504  -4.376   5.104  0.00  0.00    -0.122 NA
ATOM      3  N   UNL     1       0.766  -5.008   6.192  0.00  0.00    -0.131 NA
ATOM      4  C   UNL     1       2.055  -5.089   6.365  0.00  0.00    +0.159 A 
ATOM      5  N   UNL     1       2.648  -4.463   5.301  0.00  0.00    -0.271 N 
ENDROOT
BRANCH   5   6
ATOM      6  C   UNL     1       4.024  -4.311   5.066  0.00  0.00    +0.069 A 
ATOM      7  C   UNL     1       4.695  -3.203   5.562  0.00  0.00    +0.029 A 
ATOM      8  C   UNL     1       6.049  -3.056   5.330  0.00  0.00    +0.022 A 
ATOM      9  C   UNL     1       6.736  -4.013   4.604  0.00  0.00    +0.042 A 
ATOM     10  C   UNL     1       6.070  -5.119   4.108  0.00  0.00    +0.042 A 
ATOM     11  C   UNL     1       4.716  -5.274   4.342  0.00  0.00    +0.066 A 
ATOM     12 CL   UNL     1       3.881  -6.665   3.726  0.00  0.00    -0.081 Cl
ATOM     13 CL   UNL     1       8.438  -3.824   4.315  0.00  0.00    -0.083 Cl
ENDBRANCH   5   6
BRANCH   4  14
ATOM     14  C   UNL     1       2.761  -5.752   7.519  0.00  0.00    +0.138 C 
ATOM     15  C   UNL     1       2.690  -7.272   7.355  0.00  0.00    +0.036 C 
BRANCH  14  16
ATOM     16  N   UNL     1       2.114  -5.365   8.775  0.00  0.00    -0.305 N 
ATOM     17  C   UNL     1       2.810  -5.393   9.929  0.00  0.00    +0.220 C 
ATOM     18  O   UNL     1       3.973  -5.737   9.927  0.00  0.00    -0.275 OA
ATOM     19  H   UNL     1       1.183  -5.090   8.777  0.00  0.00    +0.149 HD
BRANCH  17  20
ATOM     20  C   UNL     1       2.144  -4.995  11.221  0.00  0.00    +0.055 C 
ATOM     21  C   UNL     1       1.655  -3.549  11.118  0.00  0.00    +0.022 C 
ATOM     22  C   UNL     1       0.953  -5.918  11.486  0.00  0.00    +0.022 C 
BRANCH  20  23
ATOM     23  C   UNL     1       3.147  -5.114  12.370  0.00  0.00    +0.124 C 
ATOM     24 CL   UNL     1       2.351  -4.638  13.915  0.00  0.00    -0.124 Cl
ENDBRANCH  20  23
ENDBRANCH  17  20
ENDBRANCH  14  16
ENDBRANCH   4  14
BRANCH   1  25
ATOM     25  S   UNL     1       1.770  -3.127   3.002  0.00  0.00    -0.081 S 
BRANCH  25  26
ATOM     26  C   UNL     1       0.054  -2.845   2.489  0.00  0.00    +0.112 C 
BRANCH  26  32
ATOM     27  C   UNL     1      -0.018   1.503   0.010  0.00  0.00    +0.044 C 
ATOM     28  C   UNL     1       0.002  -0.004   0.002  0.00  0.00    -0.050 A 
ATOM     29  C   UNL     1       0.006  -0.689  -1.199  0.00  0.00    +0.003 A 
ATOM     30  C   UNL     1       0.025  -2.071  -1.207  0.00  0.00    +0.001 A 
ATOM     31  C   UNL     1       0.040  -2.768  -0.013  0.00  0.00    +0.004 A 
ATOM     32  C   UNL     1       0.037  -2.084   1.188  0.00  0.00    -0.037 A 
ATOM     33  C   UNL     1       0.023  -0.702   1.195  0.00  0.00    +0.007 A 
ENDBRANCH  26  32
ENDBRANCH  25  26
ENDBRANCH   1  25
TORSDOF 8
