REMARK  Name = ZINC02310203
REMARK  11 active torsions:
REMARK  status: ('A' for Active; 'I' for Inactive)
REMARK    1  A    between atoms: C_1  and  C_2
REMARK    2  A    between atoms: C_5  and  C_7
REMARK    3  A    between atoms: C_9  and  C_35
REMARK    4  A    between atoms: C_10  and  S_19
REMARK    5  A    between atoms: S_19  and  C_20
REMARK    6  A    between atoms: C_20  and  C_21
REMARK    7  A    between atoms: N_23  and  C_24
REMARK    8  A    between atoms: C_26  and  O_33
REMARK    9  A    between atoms: C_29  and  O_30
REMARK   10  A    between atoms: O_30  and  C_31
REMARK   11  A    between atoms: O_33  and  C_34
REMARK                            x       y       z     vdW  Elec       q    Type
REMARK                         _______ _______ _______ _____ _____    ______ ____
ROOT
ATOM      1  C   UNL     1       1.671  -3.303  -0.009  0.00  0.00    +0.132 C 
ATOM      2  C   UNL     1       2.527  -3.249   1.222  0.00  0.00    +0.072 C 
ATOM      3  C   UNL     1       3.857  -3.524   1.164  0.00  0.00    +0.080 C 
ATOM      4  N   UNL     1       4.443  -3.851  -0.037  0.00  0.00    -0.311 N 
ATOM      5  C   UNL     1       3.833  -3.529  -1.219  0.00  0.00    +0.016 C 
ATOM      6  C   UNL     1       2.513  -3.250  -1.259  0.00  0.00    +0.027 C 
ATOM      7  C   UNL     1       1.884  -2.902  -2.466  0.00  0.00    +0.162 C 
ATOM      8  O   UNL     1       0.692  -2.664  -2.470  0.00  0.00    -0.292 OA
ATOM      9  C   UNL     1       2.657  -2.817  -3.754  0.00  0.00    +0.080 C 
ATOM     10  C   UNL     1       4.112  -2.453  -3.439  0.00  0.00    +0.014 C 
ATOM     11  C   UNL     1       4.673  -3.496  -2.473  0.00  0.00    +0.051 C 
ATOM     12  H   UNL     1       5.295  -4.313  -0.047  0.00  0.00    +0.152 HD
ENDROOT
BRANCH   1  17
ATOM     13  C   UNL     1      -0.060   1.435   0.003  0.00  0.00    +0.086 C 
ATOM     14  C   UNL     1      -0.030  -0.072   0.003  0.00  0.00    +0.102 A 
ATOM     15  C   UNL     1      -1.106  -0.880   0.010  0.00  0.00    +0.044 A 
ATOM     16  C   UNL     1      -0.621  -2.208   0.006  0.00  0.00    +0.046 A 
ATOM     17  C   UNL     1       0.722  -2.132  -0.003  0.00  0.00    +0.118 A 
ATOM     18  O   UNL     1       1.074  -0.836  -0.011  0.00  0.00    -0.464 OA
ENDBRANCH   1  17
BRANCH   2  19
ATOM     19  C   UNL     1       1.933  -2.903   2.478  0.00  0.00    +0.098 C 
ATOM     20  N   UNL     1       1.462  -2.628   3.475  0.00  0.00    -0.191 NA
ENDBRANCH   2  19
BRANCH   3  21
ATOM     21  S   UNL     1       4.833  -3.461   2.630  0.00  0.00    -0.100 S 
BRANCH  21  22
ATOM     22  C   UNL     1       6.502  -3.892   2.064  0.00  0.00    +0.171 C 
BRANCH  22  23
ATOM     23  C   UNL     1       7.450  -3.875   3.236  0.00  0.00    +0.228 C 
ATOM     24  O   UNL     1       7.039  -3.599   4.344  0.00  0.00    -0.275 OA
ATOM     25  N   UNL     1       8.753  -4.166   3.054  0.00  0.00    -0.282 N 
ATOM     26  H   UNL     1       9.069  -4.449   2.182  0.00  0.00    +0.155 HD
BRANCH  25  27
ATOM     27  C   UNL     1       9.651  -4.059   4.124  0.00  0.00    +0.079 A 
ATOM     28  C   UNL     1       9.238  -4.367   5.412  0.00  0.00    +0.074 A 
ATOM     29  C   UNL     1      10.128  -4.260   6.469  0.00  0.00    +0.140 A 
ATOM     30  C   UNL     1      11.433  -3.845   6.239  0.00  0.00    +0.086 A 
ATOM     31  C   UNL     1      11.847  -3.538   4.956  0.00  0.00    +0.071 A 
ATOM     32  C   UNL     1      10.963  -3.649   3.896  0.00  0.00    +0.143 A 
ATOM     33 CL   UNL     1      12.545  -3.712   7.565  0.00  0.00    -0.080 Cl
BRANCH  32  34
ATOM     34  O   UNL     1      11.373  -3.352   2.633  0.00  0.00    -0.493 OA
ATOM     35  C   UNL     1      12.731  -2.938   2.473  0.00  0.00    +0.277 C 
ENDBRANCH  32  34
BRANCH  29  36
ATOM     36  O   UNL     1       9.723  -4.562   7.731  0.00  0.00    -0.494 OA
ATOM     37  C   UNL     1       8.367  -4.981   7.895  0.00  0.00    +0.277 C 
ENDBRANCH  29  36
ENDBRANCH  25  27
ENDBRANCH  22  23
ENDBRANCH  21  22
ENDBRANCH   3  21
TORSDOF 8
