REMARK  Name = ZINC12361799
REMARK  10 active torsions:
REMARK  status: ('A' for Active; 'I' for Inactive)
REMARK    1  A    between atoms: C_1  and  O_2
REMARK    2  A    between atoms: O_2  and  C_3
REMARK    3  A    between atoms: C_5  and  C_13
REMARK    4  A    between atoms: C_7  and  O_11
REMARK    5  A    between atoms: C_8  and  O_9
REMARK    6  A    between atoms: O_9  and  C_10
REMARK    7  A    between atoms: O_11  and  C_12
REMARK    8  A    between atoms: N_22  and  S_23
REMARK    9  A    between atoms: S_23  and  C_26
REMARK   10  A    between atoms: C_29  and  N_32
REMARK                            x       y       z     vdW  Elec       q    Type
REMARK                         _______ _______ _______ _____ _____    ______ ____
ROOT
ATOM      1  C   UNL     1      -0.045  -3.165  -2.320  0.00  0.00    +0.156 C 
ATOM      2  C   UNL     1       0.323  -4.387  -3.123  0.00  0.00    +0.042 A 
ATOM      3  C   UNL     1      -0.486  -5.143  -3.881  0.00  0.00    +0.025 A 
ATOM      4  C   UNL     1       0.304  -6.168  -4.443  0.00  0.00    +0.019 A 
ATOM      5  C   UNL     1       1.567  -5.994  -4.002  0.00  0.00    +0.086 A 
ATOM      6  N   UNL     1       1.588  -4.905  -3.186  0.00  0.00    -0.348 N 
ATOM      7  C   UNL     1       2.750  -4.356  -2.479  0.00  0.00    +0.138 C 
ATOM      8  C   UNL     1       2.454  -2.909  -2.070  0.00  0.00    +0.132 C 
ATOM      9  N   UNL     1       1.114  -2.838  -1.469  0.00  0.00    -0.162 NA
ENDROOT
BRANCH   1  12
ATOM     10  C   UNL     1       0.321  -0.575  -5.047  0.00  0.00    +0.165 A 
ATOM     11  C   UNL     1       0.591  -1.632  -4.192  0.00  0.00    +0.055 A 
ATOM     12  C   UNL     1      -0.343  -2.016  -3.248  0.00  0.00    -0.016 A 
ATOM     13  C   UNL     1      -1.552  -1.352  -3.156  0.00  0.00    +0.055 A 
ATOM     14  C   UNL     1      -1.827  -0.290  -4.004  0.00  0.00    +0.165 A 
ATOM     15  C   UNL     1      -0.891   0.100  -4.955  0.00  0.00    +0.204 A 
BRANCH  10  17
ATOM     16  C   UNL     1       2.464  -0.936  -6.014  0.00  0.00    +0.277 C 
ATOM     17  O   UNL     1       1.241  -0.198  -5.975  0.00  0.00    -0.491 OA
ENDBRANCH  10  17
BRANCH  15  18
ATOM     18  O   UNL     1      -1.159   1.138  -5.792  0.00  0.00    -0.488 OA
ATOM     19  C   UNL     1      -1.802   0.825  -7.029  0.00  0.00    +0.277 C 
ENDBRANCH  15  18
BRANCH  14  20
ATOM     20  O   UNL     1      -3.015   0.366  -3.910  0.00  0.00    -0.491 OA
ATOM     21  C   UNL     1      -3.930  -0.088  -2.911  0.00  0.00    +0.277 C 
ENDBRANCH  14  20
ENDBRANCH   1  12
BRANCH   9  22
ATOM     22  S   UNL     1       0.912  -2.410   0.118  0.00  0.00    +0.062 S 
ATOM     23  O   UNL     1       2.134  -2.711   0.778  0.00  0.00    -0.153 OA
ATOM     24  O   UNL     1      -0.332  -2.957   0.531  0.00  0.00    -0.153 OA
BRANCH  22  25
ATOM     25  C   UNL     1       0.733  -0.657   0.166  0.00  0.00    +0.106 A 
ATOM     26  C   UNL     1      -0.523  -0.089   0.066  0.00  0.00    +0.031 A 
ATOM     27  C   UNL     1      -0.665   1.286   0.103  0.00  0.00    +0.034 A 
ATOM     28  C   UNL     1       0.450   2.092   0.241  0.00  0.00    +0.126 A 
ATOM     29  C   UNL     1       1.706   1.523   0.341  0.00  0.00    +0.034 A 
ATOM     30  C   UNL     1       1.847   0.148   0.303  0.00  0.00    +0.031 A 
BRANCH  28  31
ATOM     31  N   UNL     1       0.299   3.564   0.281  0.00  0.00    +0.056 N 
ATOM     32  O   UNL     1      -0.808   4.065   0.192  0.00  0.00    -0.126 OA
ATOM     33  O   UNL     1       1.281   4.274   0.402  0.00  0.00    -0.126 OA
ENDBRANCH  28  31
ENDBRANCH  22  25
ENDBRANCH   9  22
TORSDOF 7
