REMARK  Name = ZINC01563246
REMARK  12 active torsions:
REMARK  status: ('A' for Active; 'I' for Inactive)
REMARK    1  A    between atoms: C_1  and  N_59
REMARK    2  A    between atoms: C_2  and  N_59
REMARK    3  A    between atoms: C_3  and  C_4
REMARK    4  A    between atoms: C_3  and  N_59
REMARK    5  A    between atoms: C_4  and  C_5
REMARK    6  A    between atoms: C_10  and  C_11
REMARK    7  A    between atoms: C_17  and  O_27
REMARK    8  A    between atoms: C_18  and  O_25
REMARK    9  A    between atoms: C_20  and  O_23
REMARK   10  A    between atoms: O_23  and  C_24
REMARK   11  A    between atoms: O_25  and  C_26
REMARK   12  A    between atoms: O_27  and  C_28
REMARK                            x       y       z     vdW  Elec       q    Type
REMARK                         _______ _______ _______ _____ _____    ______ ____
ROOT
ATOM      1  C   UNL     1       1.413   3.270   2.205  0.00  0.00    +0.156 C 
ATOM      2  C   UNL     1       2.259   2.993   0.961  0.00  0.00    +0.072 C 
ATOM      3  C   UNL     1       2.787   4.291   0.404  0.00  0.00    -0.033 A 
ATOM      4  C   UNL     1       3.271   4.310  -0.895  0.00  0.00    +0.008 A 
ATOM      5  C   UNL     1       3.771   5.477  -1.438  0.00  0.00    +0.050 A 
ATOM      6  C   UNL     1       3.791   6.638  -0.682  0.00  0.00    +0.162 A 
ATOM      7  C   UNL     1       3.303   6.620   0.620  0.00  0.00    +0.170 A 
ATOM      8  C   UNL     1       2.799   5.444   1.161  0.00  0.00    +0.056 A 
ATOM      9  C   UNL     1       2.276   5.464   2.574  0.00  0.00    +0.286 C 
ATOM     10  O   UNL     1       2.154   4.133   3.075  0.00  0.00    -0.339 OA
ENDROOT
BRANCH   1  16
ATOM     11  C   UNL     1       0.014   1.224   2.542  0.00  0.00    -0.040 A 
ATOM     12  C   UNL     1      -0.269   0.037   3.192  0.00  0.00    +0.053 A 
ATOM     13  C   UNL     1       0.558  -0.410   4.210  0.00  0.00    +0.167 A 
ATOM     14  C   UNL     1       1.667   0.346   4.584  0.00  0.00    +0.167 A 
ATOM     15  C   UNL     1       1.940   1.537   3.932  0.00  0.00    +0.056 A 
ATOM     16  C   UNL     1       1.114   1.974   2.913  0.00  0.00    -0.012 A 
ATOM     17  O   UNL     1       2.309  -0.296   5.602  0.00  0.00    -0.453 OA
ATOM     18  C   UNL     1       1.819  -1.650   5.573  0.00  0.00    +0.466 C 
ATOM     19  O   UNL     1       0.506  -1.526   4.994  0.00  0.00    -0.453 OA
BRANCH  11  20
ATOM     20  C   UNL     1      -0.884   1.704   1.431  0.00  0.00    +0.017 C 
BRANCH  20  21
ATOM     21  C   UNL     1      -1.935   2.659   2.001  0.00  0.00    -0.075 C 
BRANCH  21  24
ATOM     22  C   UNL     1      -4.039   3.748   1.501  0.00  0.00    -0.097 C 
ATOM     23  C   UNL     1      -2.228   3.818  -0.105  0.00  0.00    -0.097 C 
ATOM     24  N   UNL     1      -2.896   3.003   0.932  0.00  0.00    +0.376 N 
ATOM     25  H   UNL     1      -3.243   2.137   0.503  0.00  0.00    -0.083 HD
ENDBRANCH  21  24
ENDBRANCH  20  21
ENDBRANCH  11  20
ENDBRANCH   1  16
BRANCH   9  26
ATOM     26  O   UNL     1       0.995   6.097   2.595  0.00  0.00    -0.350 OA
ATOM     27  C   UNL     1       0.513   6.390   3.908  0.00  0.00    +0.197 C 
ENDBRANCH   9  26
BRANCH   7  28
ATOM     28  O   UNL     1       3.319   7.758   1.365  0.00  0.00    -0.491 OA
ATOM     29  C   UNL     1       4.488   8.001   2.151  0.00  0.00    +0.277 C 
ENDBRANCH   7  28
BRANCH   6  30
ATOM     30  O   UNL     1       4.284   7.789  -1.211  0.00  0.00    -0.491 OA
ATOM     31  C   UNL     1       4.768   7.731  -2.554  0.00  0.00    +0.277 C 
ENDBRANCH   6  30
TORSDOF 7
