REMARK  Name = ZINC35919808
REMARK  6 active torsions:
REMARK  status: ('A' for Active; 'I' for Inactive)
REMARK    1  A    between atoms: C_1  and  C_2
REMARK    2  A    between atoms: C_2  and  N_3
REMARK    3  A    between atoms: C_11  and  N_27
REMARK    4  A    between atoms: C_18  and  N_21
REMARK    5  A    between atoms: N_27  and  C_28
REMARK    6  A    between atoms: N_27  and  C_29
REMARK                            x       y       z     vdW  Elec       q    Type
REMARK                         _______ _______ _______ _____ _____    ______ ____
ROOT
ATOM      1  N   UNL     1       0.267  -2.907  -0.521  0.00  0.00    -0.299 N 
ATOM      2  C   UNL     1       0.729  -1.982  -1.386  0.00  0.00    +0.302 C 
ATOM      3  O   UNL     1       0.482  -0.805  -1.208  0.00  0.00    -0.253 OA
ATOM      4  N   UNL     1       1.466  -2.362  -2.449  0.00  0.00    -0.281 N 
ATOM      5  C   UNL     1       2.079  -1.372  -3.349  0.00  0.00    +0.116 C 
ATOM      6  C   UNL     1       3.597  -1.515  -3.247  0.00  0.00    +0.072 C 
ATOM      7  C   UNL     1       4.005  -2.960  -3.345  0.00  0.00    +0.028 A 
ATOM      8  C   UNL     1       3.137  -3.998  -3.106  0.00  0.00    +0.029 A 
ATOM      9  C   UNL     1       3.615  -5.310  -3.207  0.00  0.00    +0.131 A 
ATOM     10  N   UNL     1       4.885  -5.514  -3.537  0.00  0.00    -0.201 NA
ATOM     11  C   UNL     1       5.689  -4.487  -3.769  0.00  0.00    +0.197 A 
ATOM     12  N   UNL     1       5.264  -3.238  -3.675  0.00  0.00    -0.331 N 
ATOM     13  N   UNL     1       7.007  -4.728  -4.117  0.00  0.00    -0.301 N 
ATOM     14  C   UNL     1       7.544  -6.095  -4.115  0.00  0.00    +0.106 C 
ATOM     15  C   UNL     1       8.172  -6.380  -5.483  0.00  0.00    +0.004 C 
ATOM     16  C   UNL     1       9.208  -5.298  -5.799  0.00  0.00    -0.066 C 
ATOM     17  C   UNL     1       8.520  -3.932  -5.858  0.00  0.00    +0.004 C 
ATOM     18  C   UNL     1       7.894  -3.621  -4.501  0.00  0.00    +0.106 C 
ATOM     19  C   UNL     1       1.695  -3.781  -2.751  0.00  0.00    +0.149 C 
ATOM     20  H   UNL     1       0.400  -3.850  -0.703  0.00  0.00    +0.150 HD
ATOM     21  H   UNL     1       5.881  -2.511  -3.851  0.00  0.00    +0.168 HD
ENDROOT
BRANCH  16  22
ATOM     22  N   UNL     1       9.836  -5.586  -7.096  0.00  0.00    +0.382 N 
ATOM     23  C   UNL     1      10.490  -6.899  -7.040  0.00  0.00    -0.078 C 
ATOM     24  C   UNL     1      11.076  -7.239  -8.412  0.00  0.00    -0.019 C 
ATOM     25  C   UNL     1      12.104  -6.172  -8.801  0.00  0.00    -0.004 C 
ATOM     26  C   UNL     1      11.429  -4.798  -8.783  0.00  0.00    -0.019 C 
ATOM     27  C   UNL     1      10.829  -4.548  -7.397  0.00  0.00    -0.078 C 
ATOM     28  H   UNL     1       9.130  -5.594  -7.816  0.00  0.00    -0.081 HD
ENDBRANCH  16  22
BRANCH   9  29
ATOM     29  N   UNL     1       2.772  -6.383  -2.964  0.00  0.00    -0.321 N 
ATOM     30  C   UNL     1       2.085  -7.041  -4.078  0.00  0.00    +0.130 C 
ATOM     31  C   UNL     1       2.569  -6.859  -1.594  0.00  0.00    +0.130 C 
ENDBRANCH   9  29
BRANCH   1  33
ATOM     32  C   UNL     1      -0.852  -3.722   1.495  0.00  0.00    +0.024 C 
ATOM     33  C   UNL     1      -0.436  -2.487   0.694  0.00  0.00    +0.102 C 
ENDBRANCH   1  33
TORSDOF 3
