REMARK  Name = ZINC08881224
REMARK  16 active torsions:
REMARK  status: ('A' for Active; 'I' for Inactive)
REMARK    1  A    between atoms: C_1  and  C_2
REMARK    2  A    between atoms: C_2  and  C_3
REMARK    3  A    between atoms: C_3  and  N_74
REMARK    4  A    between atoms: C_9  and  N_14
REMARK    5  A    between atoms: C_10  and  C_11
REMARK    6  A    between atoms: C_15  and  C_17
REMARK    7  A    between atoms: C_20  and  S_23
REMARK    8  A    between atoms: S_23  and  N_26
REMARK    9  A    between atoms: N_26  and  C_27
REMARK   10  A    between atoms: N_26  and  C_31
REMARK   11  A    between atoms: C_27  and  C_28
REMARK   12  A    between atoms: C_28  and  C_29
REMARK   13  A    between atoms: C_28  and  C_30
REMARK   14  A    between atoms: C_31  and  C_32
REMARK   15  A    between atoms: C_32  and  C_33
REMARK   16  A    between atoms: C_32  and  C_34
REMARK                            x       y       z     vdW  Elec       q    Type
REMARK                         _______ _______ _______ _____ _____    ______ ____
ROOT
ATOM      1  N   UNL     1       1.374   3.396   2.370  0.00  0.00    -0.275 N 
ATOM      2  C   UNL     1       2.209   3.591   3.410  0.00  0.00    +0.249 C 
ATOM      3  O   UNL     1       3.266   4.167   3.241  0.00  0.00    -0.270 OA
ATOM      4  H   UNL     1       0.530   2.936   2.505  0.00  0.00    +0.156 HD
ENDROOT
BRANCH   1  10
ATOM      5  C   UNL     1       1.632   5.362  -3.513  0.00  0.00    -0.074 C 
ATOM      6  C   UNL     1       0.938   4.307  -2.647  0.00  0.00    +0.018 C 
ATOM      7  C   UNL     1       1.588   4.321  -1.269  0.00  0.00    -0.027 A 
ATOM      8  C   UNL     1       2.799   4.898  -1.096  0.00  0.00    -0.021 A 
ATOM      9  S   UNL     1       3.157   4.690   0.624  0.00  0.00    -0.079 S 
ATOM     10  C   UNL     1       1.719   3.853   1.109  0.00  0.00    +0.085 A 
ATOM     11  C   UNL     1       0.999   3.748  -0.074  0.00  0.00    +0.068 A 
ATOM     12  C   UNL     1       3.627   5.559  -2.153  0.00  0.00    -0.035 C 
ATOM     13  N   UNL     1       3.093   5.145  -3.473  0.00  0.00    +0.383 N 
ATOM     14  H   UNL     1       3.287   4.146  -3.613  0.00  0.00    -0.081 HD
BRANCH  11  15
ATOM     15  C   UNL     1      -0.310   3.089  -0.112  0.00  0.00    +0.244 C 
ATOM     16  O   UNL     1      -0.384   1.895  -0.338  0.00  0.00    -0.270 OA
ATOM     17  N   UNL     1      -1.432   3.806   0.097  0.00  0.00    -0.325 N 
ATOM     18  H   UNL     1      -2.299   3.371   0.068  0.00  0.00    +0.145 HD
ATOM     19  H   UNL     1      -1.373   4.757   0.277  0.00  0.00    +0.145 HD
ENDBRANCH  11  15
BRANCH  13  20
ATOM     20  C   UNL     1       3.750   5.917  -4.550  0.00  0.00    -0.079 C 
BRANCH  20  22
ATOM     21  C   UNL     1       4.084   8.178  -5.559  0.00  0.00    +0.002 C 
ATOM     22  C   UNL     1       3.396   7.402  -4.434  0.00  0.00    -0.022 C 
ENDBRANCH  20  22
ENDBRANCH  13  20
ENDBRANCH   1  10
BRANCH   2  23
ATOM     23  C   UNL     1       1.840   3.104   4.756  0.00  0.00    +0.037 A 
ATOM     24  C   UNL     1       0.625   2.446   4.955  0.00  0.00    +0.015 A 
ATOM     25  C   UNL     1       0.290   1.988   6.212  0.00  0.00    +0.029 A 
ATOM     26  C   UNL     1       1.150   2.191   7.277  0.00  0.00    +0.106 A 
ATOM     27  C   UNL     1       2.353   2.847   7.088  0.00  0.00    +0.029 A 
ATOM     28  C   UNL     1       2.703   3.304   5.835  0.00  0.00    +0.015 A 
BRANCH  26  29
ATOM     29  S   UNL     1       0.710   1.610   8.882  0.00  0.00    +0.061 S 
ATOM     30  O   UNL     1      -0.098   0.457   8.689  0.00  0.00    -0.153 OA
ATOM     31  O   UNL     1       1.908   1.582   9.646  0.00  0.00    -0.153 OA
BRANCH  29  32
ATOM     32  N   UNL     1      -0.263   2.760   9.569  0.00  0.00    -0.176 NA
BRANCH  32  33
ATOM     33  C   UNL     1      -1.720   2.616   9.512  0.00  0.00    +0.112 C 
BRANCH  33  34
ATOM     34  C   UNL     1      -2.217   1.951  10.797  0.00  0.00    -0.001 C 
ATOM     35  C   UNL     1      -3.747   1.914  10.793  0.00  0.00    +0.008 C 
ATOM     36  C   UNL     1      -1.673   0.524  10.876  0.00  0.00    +0.008 C 
ENDBRANCH  33  34
ENDBRANCH  32  33
BRANCH  32  37
ATOM     37  C   UNL     1       0.333   3.921  10.235  0.00  0.00    +0.112 C 
BRANCH  37  38
ATOM     38  C   UNL     1      -0.036   5.193   9.469  0.00  0.00    -0.001 C 
ATOM     39  C   UNL     1       0.524   6.412  10.204  0.00  0.00    +0.008 C 
ATOM     40  C   UNL     1       0.559   5.131   8.060  0.00  0.00    +0.008 C 
ENDBRANCH  37  38
ENDBRANCH  32  37
ENDBRANCH  29  32
ENDBRANCH  26  29
ENDBRANCH   2  23
TORSDOF 11
