REMARK  Name = ZINC02721154
REMARK  8 active torsions:
REMARK  status: ('A' for Active; 'I' for Inactive)
REMARK    1  A    between atoms: C_4  and  C_7
REMARK    2  A    between atoms: C_8  and  S_17
REMARK    3  A    between atoms: S_17  and  C_18
REMARK    4  A    between atoms: C_18  and  C_19
REMARK    5  A    between atoms: C_19  and  N_20
REMARK    6  A    between atoms: C_21  and  C_23
REMARK    7  A    between atoms: C_26  and  S_29
REMARK    8  A    between atoms: S_29  and  N_32
REMARK                            x       y       z     vdW  Elec       q    Type
REMARK                         _______ _______ _______ _____ _____    ______ ____
ROOT
ATOM      1  C   UNL     1       2.389  -2.157  -4.677  0.00  0.00    +0.115 C 
ENDROOT
BRANCH   1   2
ATOM      2  N   UNL     1       2.654  -1.421  -5.916  0.00  0.00    -0.311 N 
ATOM      3  C   UNL     1       1.997  -1.747  -7.047  0.00  0.00    +0.244 C 
ATOM      4  O   UNL     1       1.185  -2.651  -7.039  0.00  0.00    -0.270 OA
ATOM      5  H   UNL     1       3.302  -0.699  -5.922  0.00  0.00    +0.149 HD
BRANCH   3   6
ATOM      6  C   UNL     1       2.265  -1.004  -8.297  0.00  0.00    +0.037 A 
ATOM      7  C   UNL     1       3.201   0.031  -8.311  0.00  0.00    +0.015 A 
ATOM      8  C   UNL     1       3.446   0.719  -9.481  0.00  0.00    +0.029 A 
ATOM      9  C   UNL     1       2.766   0.386 -10.639  0.00  0.00    +0.106 A 
ATOM     10  C   UNL     1       1.836  -0.638 -10.632  0.00  0.00    +0.029 A 
ATOM     11  C   UNL     1       1.586  -1.339  -9.470  0.00  0.00    +0.015 A 
BRANCH   9  12
ATOM     12  S   UNL     1       3.085   1.271 -12.129  0.00  0.00    +0.061 S 
ATOM     13  O   UNL     1       1.927   1.131 -12.940  0.00  0.00    -0.153 OA
ATOM     14  O   UNL     1       3.598   2.540 -11.746  0.00  0.00    -0.153 OA
BRANCH  12  15
ATOM     15  N   UNL     1       4.311   0.482 -12.914  0.00  0.00    -0.172 NA
ATOM     16  C   UNL     1       5.719   0.831 -12.663  0.00  0.00    +0.137 C 
ATOM     17  C   UNL     1       6.490  -0.459 -12.359  0.00  0.00    +0.177 C 
ATOM     18  O   UNL     1       6.247  -1.409 -13.400  0.00  0.00    -0.377 OA
ATOM     19  C   UNL     1       4.880  -1.809 -13.519  0.00  0.00    +0.177 C 
ATOM     20  C   UNL     1       4.026  -0.592 -13.878  0.00  0.00    +0.137 C 
ENDBRANCH  12  15
ENDBRANCH   9  12
ENDBRANCH   3   6
ENDBRANCH   1   2
BRANCH   1  21
ATOM     21  C   UNL     1       3.259  -1.592  -3.553  0.00  0.00    +0.093 C 
BRANCH  21  22
ATOM     22  S   UNL     1       2.931  -2.503  -2.019  0.00  0.00    -0.121 S 
BRANCH  22  24
ATOM     23  C   UNL     1       3.694  -0.683  -0.038  0.00  0.00    +0.061 A 
ATOM     24  C   UNL     1       3.995  -1.744  -0.836  0.00  0.00    +0.041 A 
ATOM     25  C   UNL     1       5.372  -2.135  -0.523  0.00  0.00    +0.014 A 
ATOM     26  C   UNL     1       6.224  -3.134  -1.001  0.00  0.00    +0.011 A 
ATOM     27  C   UNL     1       7.488  -3.248  -0.496  0.00  0.00    +0.001 A 
ATOM     28  C   UNL     1       7.934  -2.378   0.490  0.00  0.00    +0.002 A 
ATOM     29  C   UNL     1       7.111  -1.386   0.976  0.00  0.00    +0.026 A 
ATOM     30  C   UNL     1       5.819  -1.251   0.476  0.00  0.00    +0.048 A 
ATOM     31  N   UNL     1       4.790  -0.378   0.750  0.00  0.00    -0.353 N 
ATOM     32  H   UNL     1       4.827   0.342   1.400  0.00  0.00    +0.166 HD
BRANCH  23  36
ATOM     33  C   UNL     1      -0.017   1.380   0.010  0.00  0.00    +0.000 A 
ATOM     34  C   UNL     1       1.168   2.094   0.002  0.00  0.00    +0.001 A 
ATOM     35  C   UNL     1       2.377   1.431  -0.013  0.00  0.00    +0.010 A 
ATOM     36  C   UNL     1       2.404   0.034  -0.021  0.00  0.00    -0.001 A 
ATOM     37  C   UNL     1       1.204  -0.681  -0.013  0.00  0.00    +0.010 A 
ATOM     38  C   UNL     1       0.002  -0.004   0.002  0.00  0.00    +0.001 A 
ENDBRANCH  23  36
ENDBRANCH  22  24
ENDBRANCH  21  22
ENDBRANCH   1  21
TORSDOF 8
