REMARK  Name = ZINC36544735
REMARK  15 active torsions:
REMARK  status: ('A' for Active; 'I' for Inactive)
REMARK    1  A    between atoms: C_1  and  C_2
REMARK    2  A    between atoms: C_2  and  C_3
REMARK    3  A    between atoms: C_2  and  C_4
REMARK    4  A    between atoms: C_2  and  C_5
REMARK    5  A    between atoms: C_5  and  C_6
REMARK    6  A    between atoms: C_6  and  C_7
REMARK    7  A    between atoms: C_6  and  C_8
REMARK    8  A    between atoms: C_6  and  N_9
REMARK    9  A    between atoms: C_10  and  C_12
REMARK   10  A    between atoms: C_12  and  C_14
REMARK   11  A    between atoms: C_12  and  N_21
REMARK   12  A    between atoms: C_18  and  O_20
REMARK   13  A    between atoms: N_21  and  C_22
REMARK   14  A    between atoms: C_29  and  C_31
REMARK   15  A    between atoms: C_32  and  C_33
REMARK                            x       y       z     vdW  Elec       q    Type
REMARK                         _______ _______ _______ _____ _____    ______ ____
ROOT
ATOM      1  C   UNL     1       5.367  -0.571  -4.230  0.00  0.00    +0.198 C 
ENDROOT
BRANCH   1   2
ATOM      2  C   UNL     1       5.329  -1.980  -4.765  0.00  0.00    -0.014 A 
ATOM      3  C   UNL     1       6.143  -2.951  -4.211  0.00  0.00    +0.006 A 
ATOM      4  C   UNL     1       6.110  -4.244  -4.699  0.00  0.00    +0.004 A 
ATOM      5  C   UNL     1       5.263  -4.569  -5.742  0.00  0.00    +0.045 A 
ATOM      6  C   UNL     1       4.446  -3.596  -6.299  0.00  0.00    +0.117 A 
ATOM      7  C   UNL     1       4.477  -2.301  -5.803  0.00  0.00    +0.051 A 
BRANCH   6   8
ATOM      8  O   UNL     1       3.613  -3.913  -7.325  0.00  0.00    -0.507 OA
ATOM      9  H   UNL     1       2.736  -4.207  -7.042  0.00  0.00    +0.292 HD
ENDBRANCH   6   8
ENDBRANCH   1   2
BRANCH   1  11
ATOM     10  N   UNL     1       3.399  -0.921  -2.773  0.00  0.00    -0.308 N 
ATOM     11  C   UNL     1       4.682  -0.524  -2.889  0.00  0.00    +0.239 C 
ATOM     12  O   UNL     1       5.285  -0.129  -1.913  0.00  0.00    -0.273 OA
ATOM     13  H   UNL     1       2.917  -1.237  -3.553  0.00  0.00    +0.149 HD
BRANCH  10  14
ATOM     14  C   UNL     1       2.733  -0.875  -1.469  0.00  0.00    +0.030 C 
ATOM     15  C   UNL     1       2.861   0.531  -0.880  0.00  0.00    +0.031 C 
ATOM     16  C   UNL     1       3.389  -1.885  -0.526  0.00  0.00    +0.031 C 
BRANCH  14  17
ATOM     17  C   UNL     1       1.253  -1.224  -1.640  0.00  0.00    +0.031 C 
BRANCH  17  19
ATOM     18  C   UNL     1       1.060  -1.269  -4.131  0.00  0.00    +0.010 C 
ATOM     19  C   UNL     1       0.695  -0.494  -2.864  0.00  0.00    -0.036 C 
ATOM     20  C   UNL     1       1.294   0.912  -2.936  0.00  0.00    +0.010 C 
ATOM     21  C   UNL     1      -0.827  -0.394  -2.748  0.00  0.00    +0.010 C 
ENDBRANCH  17  19
ENDBRANCH  14  17
ENDBRANCH  10  14
ENDBRANCH   1  11
BRANCH   1  22
ATOM     22  N   UNL     1       6.761  -0.143  -4.082  0.00  0.00    -0.243 N 
ATOM     23  C   UNL     1       7.554  -0.045  -5.167  0.00  0.00    +0.297 C 
ATOM     24  O   UNL     1       7.114  -0.312  -6.269  0.00  0.00    -0.260 OA
BRANCH  22  25
ATOM     25  C   UNL     1       7.267   0.164  -2.815  0.00  0.00    +0.057 A 
ATOM     26  C   UNL     1       7.858  -0.827  -2.043  0.00  0.00    +0.025 A 
ATOM     27  C   UNL     1       8.357  -0.521  -0.792  0.00  0.00    +0.002 A 
ATOM     28  C   UNL     1       8.268   0.771  -0.307  0.00  0.00    +0.002 A 
ATOM     29  C   UNL     1       7.680   1.761  -1.072  0.00  0.00    +0.022 A 
ATOM     30  C   UNL     1       7.184   1.463  -2.327  0.00  0.00    +0.062 A 
ATOM     31 CL   UNL     1       6.452   2.708  -3.291  0.00  0.00    -0.082 Cl
ENDBRANCH  22  25
BRANCH  23  32
ATOM     32  C   UNL     1       8.916   0.373  -5.022  0.00  0.00    -0.002 C 
ATOM     33  C   UNL     1      10.033   0.717  -4.903  0.00  0.00    -0.057 C 
BRANCH  33  34
ATOM     34  C   UNL     1      11.394   1.135  -4.758  0.00  0.00    +0.025 A 
ATOM     35  C   UNL     1      11.906   1.437  -3.492  0.00  0.00    +0.017 A 
ATOM     36  C   UNL     1      13.218   1.839  -3.361  0.00  0.00    +0.001 A 
ATOM     37  C   UNL     1      14.029   1.944  -4.478  0.00  0.00    +0.000 A 
ATOM     38  C   UNL     1      13.530   1.647  -5.734  0.00  0.00    +0.001 A 
ATOM     39  C   UNL     1      12.221   1.238  -5.881  0.00  0.00    +0.017 A 
ENDBRANCH  33  34
ENDBRANCH  23  32
ENDBRANCH   1  22
TORSDOF 10
