REMARK  Name = ZINC01189746
REMARK  6 active torsions:
REMARK  status: ('A' for Active; 'I' for Inactive)
REMARK    1  A    between atoms: C_4  and  C_8
REMARK    2  A    between atoms: C_11  and  C_13
REMARK    3  A    between atoms: C_14  and  C_15
REMARK    4  A    between atoms: C_14  and  C_17
REMARK    5  A    between atoms: N_19  and  C_20
REMARK    6  A    between atoms: C_21  and  C_29
REMARK                            x       y       z     vdW  Elec       q    Type
REMARK                         _______ _______ _______ _____ _____    ______ ____
ROOT
ATOM      1  C   UNL     1       1.265   2.133  -0.086  0.00  0.00    +0.259 C 
ATOM      2  O   UNL     1       1.290   3.342  -0.225  0.00  0.00    -0.269 OA
ATOM      3  N   UNL     1       2.418   1.437  -0.027  0.00  0.00    -0.275 N 
ATOM      4  H   UNL     1       2.399   0.474   0.083  0.00  0.00    +0.156 HD
ENDROOT
BRANCH   3   5
ATOM      5  C   UNL     1       3.632   2.098  -0.125  0.00  0.00    +0.085 A 
ATOM      6  C   UNL     1       4.912   1.563  -0.082  0.00  0.00    +0.068 A 
ATOM      7  C   UNL     1       6.029   2.483  -0.214  0.00  0.00    -0.023 A 
ATOM      8  C   UNL     1       5.690   3.783  -0.356  0.00  0.00    -0.004 A 
ATOM      9  S   UNL     1       3.920   3.795  -0.324  0.00  0.00    -0.077 S 
ATOM     10  C   UNL     1       6.620   4.947  -0.506  0.00  0.00    +0.043 C 
ATOM     11  C   UNL     1       8.030   4.495  -0.100  0.00  0.00    +0.005 C 
ATOM     12  C   UNL     1       8.343   3.167  -0.797  0.00  0.00    +0.005 C 
ATOM     13  C   UNL     1       7.490   2.050  -0.193  0.00  0.00    +0.037 C 
BRANCH   6  14
ATOM     14  C   UNL     1       5.128   0.123   0.087  0.00  0.00    +0.244 C 
ATOM     15  O   UNL     1       5.202  -0.600  -0.890  0.00  0.00    -0.270 OA
ATOM     16  N   UNL     1       5.246  -0.400   1.323  0.00  0.00    -0.325 N 
ATOM     17  H   UNL     1       5.187   0.176   2.101  0.00  0.00    +0.145 HD
ATOM     18  H   UNL     1       5.389  -1.353   1.435  0.00  0.00    +0.145 HD
ENDBRANCH   6  14
ENDBRANCH   3   5
BRANCH   1  20
ATOM     19  C   UNL     1      -0.571   0.824  -1.102  0.00  0.00    +0.070 C 
ATOM     20  C   UNL     1      -0.020   1.433   0.018  0.00  0.00    +0.117 C 
BRANCH  19  24
ATOM     21  C   UNL     1       1.742   1.097  -3.789  0.00  0.00    +0.137 A 
ATOM     22  C   UNL     1       0.686   0.514  -4.458  0.00  0.00    +0.050 A 
ATOM     23  C   UNL     1      -0.333   0.326  -3.526  0.00  0.00    +0.050 A 
ATOM     24  C   UNL     1       0.136   0.813  -2.314  0.00  0.00    +0.130 A 
ATOM     25  O   UNL     1       1.393   1.269  -2.503  0.00  0.00    -0.455 OA
BRANCH  21  29
ATOM     26  C   UNL     1       5.474   2.168  -5.508  0.00  0.00    +0.021 A 
ATOM     27  C   UNL     1       4.962   0.900  -5.713  0.00  0.00    +0.022 A 
ATOM     28  C   UNL     1       3.751   0.542  -5.154  0.00  0.00    +0.052 A 
ATOM     29  C   UNL     1       3.039   1.470  -4.386  0.00  0.00    +0.037 A 
ATOM     30  C   UNL     1       3.563   2.748  -4.184  0.00  0.00    +0.033 A 
ATOM     31  C   UNL     1       4.777   3.090  -4.745  0.00  0.00    +0.042 A 
ATOM     32 CL   UNL     1       5.430   4.679  -4.495  0.00  0.00    -0.084 Cl
ATOM     33 CL   UNL     1       3.113  -1.052  -5.407  0.00  0.00    -0.083 Cl
ENDBRANCH  21  29
ENDBRANCH  19  24
BRANCH  20  34
ATOM     34  C   UNL     1      -0.703   1.372   1.275  0.00  0.00    +0.104 C 
ATOM     35  N   UNL     1      -1.244   1.324   2.272  0.00  0.00    -0.191 NA
ENDBRANCH  20  34
ENDBRANCH   1  20
TORSDOF 6
