REMARK  Name = ZINC21708829
REMARK  12 active torsions:
REMARK  status: ('A' for Active; 'I' for Inactive)
REMARK    1  A    between atoms: C_1  and  C_2
REMARK    2  A    between atoms: C_2  and  C_3
REMARK    3  A    between atoms: C_3  and  C_4
REMARK    4  A    between atoms: C_3  and  C_5
REMARK    5  A    between atoms: C_3  and  C_6
REMARK    6  A    between atoms: N_14  and  C_18
REMARK    7  A    between atoms: C_18  and  C_19
REMARK    8  A    between atoms: C_25  and  C_27
REMARK    9  A    between atoms: C_30  and  O_35
REMARK   10  A    between atoms: C_32  and  O_33
REMARK   11  A    between atoms: O_33  and  C_34
REMARK   12  A    between atoms: O_35  and  C_36
REMARK                            x       y       z     vdW  Elec       q    Type
REMARK                         _______ _______ _______ _____ _____    ______ ____
ROOT
ATOM      1  C   UNL     1       1.417   2.055  -0.000  0.00  0.00    -0.005 C 
ATOM      2  C   UNL     1       2.157   1.548   1.239  0.00  0.00    +0.006 C 
ATOM      3  C   UNL     1       3.596   2.068   1.221  0.00  0.00    +0.035 C 
ATOM      4  C   UNL     1       3.589   3.593   1.202  0.00  0.00    +0.113 C 
ATOM      5  C   UNL     1       2.832   4.114  -0.015  0.00  0.00    +0.035 C 
ATOM      6  C   UNL     1       1.396   3.585   0.008  0.00  0.00    +0.006 C 
ATOM      7  C   UNL     1       2.978   4.134   2.474  0.00  0.00    +0.247 C 
ATOM      8  O   UNL     1       1.850   3.957   2.880  0.00  0.00    -0.273 OA
ATOM      9  N   UNL     1       3.954   4.855   3.064  0.00  0.00    -0.215 N 
ATOM     10  C   UNL     1       5.082   4.840   2.343  0.00  0.00    +0.310 C 
ATOM     11  O   UNL     1       6.100   5.418   2.669  0.00  0.00    -0.252 OA
ATOM     12  N   UNL     1       4.962   4.114   1.215  0.00  0.00    -0.285 N 
ATOM     13  H   UNL     1       5.649   3.873   0.391  0.00  0.00    +0.151 HD
ENDROOT
BRANCH   1  14
ATOM     14  C   UNL     1      -0.019   1.526   0.010  0.00  0.00    -0.032 C 
ATOM     15  C   UNL     1      -0.759   2.033  -1.229  0.00  0.00    +0.011 C 
ATOM     16  C   UNL     1      -0.735   2.019   1.269  0.00  0.00    +0.011 C 
BRANCH  14  18
ATOM     17  C   UNL     1      -1.433  -0.534   0.013  0.00  0.00    +0.004 C 
ATOM     18  C   UNL     1       0.002  -0.004   0.002  0.00  0.00    +0.003 C 
ENDBRANCH  14  18
ENDBRANCH   1  14
BRANCH   9  19
ATOM     19  C   UNL     1       3.799   5.565   4.335  0.00  0.00    +0.213 C 
BRANCH  19  20
ATOM     20  C   UNL     1       3.314   6.967   4.072  0.00  0.00    +0.234 C 
ATOM     21  O   UNL     1       3.117   7.337   2.933  0.00  0.00    -0.274 OA
ATOM     22  N   UNL     1       3.099   7.811   5.101  0.00  0.00    -0.293 N 
ATOM     23  C   UNL     1       3.290   7.492   6.527  0.00  0.00    +0.108 C 
ATOM     24  C   UNL     1       3.528   8.865   7.209  0.00  0.00    +0.021 C 
ATOM     25  C   UNL     1       2.555   9.777   6.416  0.00  0.00    +0.029 C 
ATOM     26  C   UNL     1       2.628   9.199   4.987  0.00  0.00    +0.110 C 
BRANCH  26  27
ATOM     27  C   UNL     1       1.262   9.226   4.349  0.00  0.00    +0.015 A 
ATOM     28  C   UNL     1       0.437   8.121   4.437  0.00  0.00    +0.012 A 
ATOM     29  C   UNL     1      -0.815   8.143   3.854  0.00  0.00    +0.046 A 
ATOM     30  C   UNL     1      -1.247   9.275   3.177  0.00  0.00    +0.124 A 
ATOM     31  C   UNL     1      -0.421  10.385   3.087  0.00  0.00    +0.091 A 
ATOM     32  C   UNL     1       0.833  10.363   3.679  0.00  0.00    +0.128 A 
BRANCH  32  33
ATOM     33  O   UNL     1       1.643  11.451   3.597  0.00  0.00    -0.495 OA
ATOM     34  C   UNL     1       1.136  12.585   2.891  0.00  0.00    +0.277 C 
ENDBRANCH  32  33
BRANCH  30  35
ATOM     35  O   UNL     1      -2.478   9.296   2.603  0.00  0.00    -0.495 OA
ATOM     36  C   UNL     1      -3.276   8.118   2.736  0.00  0.00    +0.277 C 
ENDBRANCH  30  35
ENDBRANCH  26  27
ENDBRANCH  19  20
ENDBRANCH   9  19
TORSDOF 7
