REMARK  Name = ZINC39422747
REMARK  10 active torsions:
REMARK  status: ('A' for Active; 'I' for Inactive)
REMARK    1  A    between atoms: C_1  and  C_2
REMARK    2  A    between atoms: C_2  and  C_4
REMARK    3  A    between atoms: C_2  and  O_14
REMARK    4  A    between atoms: N_6  and  C_7
REMARK    5  A    between atoms: C_7  and  C_8
REMARK    6  A    between atoms: O_14  and  C_15
REMARK    7  A    between atoms: C_15  and  C_17
REMARK    8  A    between atoms: C_22  and  N_23
REMARK    9  A    between atoms: N_23  and  S_24
REMARK   10  A    between atoms: S_24  and  C_27
REMARK                            x       y       z     vdW  Elec       q    Type
REMARK                         _______ _______ _______ _____ _____    ______ ____
ROOT
ATOM      1  C   UNL     1       2.801  -1.149   2.198  0.00  0.00    +0.083 A 
ATOM      2  C   UNL     1       2.163  -1.425   3.411  0.00  0.00    +0.017 A 
ATOM      3  C   UNL     1       2.896  -1.879   4.484  0.00  0.00    +0.001 A 
ATOM      4  C   UNL     1       4.265  -2.065   4.370  0.00  0.00    +0.002 A 
ATOM      5  C   UNL     1       4.910  -1.797   3.180  0.00  0.00    +0.027 A 
ATOM      6  C   UNL     1       4.187  -1.343   2.083  0.00  0.00    +0.088 A 
ENDROOT
BRANCH   1   7
ATOM      7  C   UNL     1       2.023  -0.663   1.045  0.00  0.00    +0.342 C 
ATOM      8  O   UNL     1       2.581  -0.429  -0.009  0.00  0.00    -0.245 OA
BRANCH   7   9
ATOM      9  O   UNL     1       0.693  -0.477   1.160  0.00  0.00    -0.449 OA
BRANCH   9  11
ATOM     10  C   UNL     1      -0.019   1.526   0.010  0.00  0.00    +0.062 C 
ATOM     11  C   UNL     1       0.002  -0.004   0.002  0.00  0.00    +0.259 C 
BRANCH  11  12
ATOM     12  C   UNL     1      -1.412  -0.526   0.013  0.00  0.00    +0.254 C 
ATOM     13  O   UNL     1      -1.818  -1.157   0.965  0.00  0.00    -0.272 OA
ATOM     14  N   UNL     1      -2.225  -0.290  -1.036  0.00  0.00    -0.308 N 
ATOM     15  H   UNL     1      -1.900   0.215  -1.798  0.00  0.00    +0.149 HD
BRANCH  14  16
ATOM     16  C   UNL     1      -3.599  -0.798  -1.026  0.00  0.00    +0.139 C 
BRANCH  16  17
ATOM     17  C   UNL     1      -4.290  -0.401  -2.305  0.00  0.00    -0.030 A 
ATOM     18  C   UNL     1      -4.973   0.798  -2.378  0.00  0.00    +0.005 A 
ATOM     19  C   UNL     1      -5.608   1.162  -3.551  0.00  0.00    +0.000 A 
ATOM     20  C   UNL     1      -5.559   0.326  -4.651  0.00  0.00    +0.000 A 
ATOM     21  C   UNL     1      -4.875  -0.873  -4.578  0.00  0.00    +0.000 A 
ATOM     22  C   UNL     1      -4.237  -1.235  -3.406  0.00  0.00    +0.005 A 
ENDBRANCH  16  17
ENDBRANCH  14  16
ENDBRANCH  11  12
ENDBRANCH   9  11
ENDBRANCH   7   9
ENDBRANCH   1   7
BRANCH   6  23
ATOM     23  N   UNL     1       4.832  -1.079   0.883  0.00  0.00    -0.097 NA
BRANCH  23  24
ATOM     24  S   UNL     1       6.467  -1.310   0.753  0.00  0.00    +0.092 S 
ATOM     25  O   UNL     1       7.081  -0.357   1.610  0.00  0.00    -0.148 OA
ATOM     26  O   UNL     1       6.691  -2.707   0.882  0.00  0.00    -0.148 OA
BRANCH  24  27
ATOM     27  C   UNL     1       6.925  -0.876  -0.892  0.00  0.00    +0.112 A 
ATOM     28  C   UNL     1       6.903  -1.904  -1.926  0.00  0.00    +0.031 A 
ATOM     29  C   UNL     1       7.242  -1.639  -3.206  0.00  0.00    +0.027 A 
ATOM     30  C   UNL     1       7.645  -0.284  -3.580  0.00  0.00    +0.056 A 
ATOM     31  N   UNL     1       8.023   0.293  -4.692  0.00  0.00    -0.268 N 
ATOM     32  C   UNL     1       8.281   1.618  -4.428  0.00  0.00    +0.308 C 
ATOM     33  O   UNL     1       8.651   2.433  -5.246  0.00  0.00    -0.252 OA
ATOM     34  N   UNL     1       8.056   1.879  -3.097  0.00  0.00    -0.267 N 
ATOM     35  C   UNL     1       7.667   0.771  -2.518  0.00  0.00    +0.058 A 
ATOM     36  C   UNL     1       7.280   0.399  -1.158  0.00  0.00    +0.054 A 
ATOM     37  H   UNL     1       8.167   2.739  -2.661  0.00  0.00    +0.156 HD
ATOM     38  H   UNL     1       8.106  -0.140  -5.556  0.00  0.00    +0.156 HD
ENDBRANCH  24  27
ENDBRANCH  23  24
ENDBRANCH   6  23
TORSDOF 9
