REMARK  Name = ZINC12663957
REMARK  10 active torsions:
REMARK  status: ('A' for Active; 'I' for Inactive)
REMARK    1  A    between atoms: C_1  and  C_2
REMARK    2  A    between atoms: C_2  and  N_3
REMARK    3  A    between atoms: N_3  and  C_4
REMARK    4  A    between atoms: N_3  and  C_6
REMARK    5  A    between atoms: C_4  and  C_5
REMARK    6  A    between atoms: C_9  and  N_13
REMARK    7  A    between atoms: C_10  and  C_12
REMARK    8  A    between atoms: C_14  and  C_16
REMARK    9  A    between atoms: C_16  and  C_17
REMARK   10  A    between atoms: N_28  and  C_31
REMARK                            x       y       z     vdW  Elec       q    Type
REMARK                         _______ _______ _______ _____ _____    ______ ____
ROOT
ATOM      1  C   UNL     1       2.278   0.627   0.007  0.00  0.00    +0.112 C 
ATOM      2  C   UNL     1       3.144   0.531  -1.257  0.00  0.00    +0.103 C 
ATOM      3  S   UNL     1       2.816   2.156  -2.034  0.00  0.00    -0.085 S 
ATOM      4  C   UNL     1       1.693   2.831  -0.829  0.00  0.00    +0.174 A 
ATOM      5  N   UNL     1       1.546   1.886   0.145  0.00  0.00    -0.283 N 
ATOM      6  C   UNL     1       0.715   2.187   1.195  0.00  0.00    +0.266 A 
ATOM      7  O   UNL     1       0.547   1.381   2.093  0.00  0.00    -0.267 OA
ATOM      8  C   UNL     1       0.054   3.434   1.232  0.00  0.00    +0.103 A 
ATOM      9  C   UNL     1      -0.843   4.046   2.135  0.00  0.00    +0.150 A 
ATOM     10  N   UNL     1      -1.150   5.227   1.676  0.00  0.00    -0.172 NA
ATOM     11  N   UNL     1      -0.481   5.448   0.466  0.00  0.00    -0.214 N 
ATOM     12  C   UNL     1       0.265   4.345   0.184  0.00  0.00    +0.171 A 
ATOM     13  N   UNL     1       1.086   3.997  -0.811  0.00  0.00    -0.203 NA
ENDROOT
BRANCH  11  14
ATOM     14  C   UNL     1      -0.565   6.605  -0.319  0.00  0.00    +0.069 A 
ATOM     15  C   UNL     1       0.550   7.059  -1.012  0.00  0.00    +0.028 A 
ATOM     16  C   UNL     1       0.463   8.197  -1.788  0.00  0.00    +0.003 A 
ATOM     17  C   UNL     1      -0.730   8.892  -1.870  0.00  0.00    +0.020 A 
ATOM     18  C   UNL     1      -1.842   8.446  -1.177  0.00  0.00    +0.043 A 
ATOM     19  C   UNL     1      -1.762   7.304  -0.402  0.00  0.00    +0.047 A 
ATOM     20 CL   UNL     1      -3.337   9.321  -1.281  0.00  0.00    -0.083 Cl
ENDBRANCH  11  14
BRANCH   1  21
ATOM     21  C   UNL     1       3.183   0.455   1.228  0.00  0.00    +0.122 C 
BRANCH  21  23
ATOM     22  N   UNL     1       4.634  -1.300   2.193  0.00  0.00    -0.285 N 
ATOM     23  C   UNL     1       3.833  -0.904   1.184  0.00  0.00    +0.219 C 
ATOM     24  O   UNL     1       3.635  -1.640   0.241  0.00  0.00    -0.275 OA
ATOM     25  H   UNL     1       4.731  -0.746   2.982  0.00  0.00    +0.155 HD
BRANCH  22  29
ATOM     26  C   UNL     1       6.696  -4.915   1.920  0.00  0.00    +0.030 A 
ATOM     27  C   UNL     1       5.455  -4.776   1.312  0.00  0.00    +0.025 A 
ATOM     28  C   UNL     1       4.770  -3.582   1.407  0.00  0.00    +0.025 A 
ATOM     29  C   UNL     1       5.327  -2.515   2.101  0.00  0.00    +0.036 A 
ATOM     30  C   UNL     1       6.568  -2.654   2.708  0.00  0.00    -0.028 A 
ATOM     31  C   UNL     1       7.251  -3.851   2.618  0.00  0.00    +0.028 A 
ATOM     32  C   UNL     1       7.170  -1.498   3.465  0.00  0.00    +0.046 C 
BRANCH  26  33
ATOM     33  N   UNL     1       7.388  -6.128   1.829  0.00  0.00    -0.330 N 
BRANCH  33  35
ATOM     34  C   UNL     1       7.242  -7.186  -0.371  0.00  0.00    +0.024 C 
ATOM     35  C   UNL     1       6.803  -7.252   1.093  0.00  0.00    +0.102 C 
ENDBRANCH  33  35
BRANCH  33  36
ATOM     36  C   UNL     1       8.697  -6.275   2.471  0.00  0.00    +0.102 C 
ATOM     37  C   UNL     1       8.509  -6.783   3.902  0.00  0.00    +0.024 C 
ENDBRANCH  33  36
ENDBRANCH  26  33
ENDBRANCH  22  29
ENDBRANCH  21  23
ENDBRANCH   1  21
TORSDOF 7
