REMARK  Name = ZINC20589622
REMARK  14 active torsions:
REMARK  status: ('A' for Active; 'I' for Inactive)
REMARK    1  A    between atoms: C_1  and  C_2
REMARK    2  A    between atoms: C_4  and  O_35
REMARK    3  A    between atoms: C_5  and  C_25
REMARK    4  A    between atoms: C_11  and  C_12
REMARK    5  A    between atoms: C_15  and  O_22
REMARK    6  A    between atoms: C_16  and  O_20
REMARK    7  A    between atoms: C_17  and  O_18
REMARK    8  A    between atoms: O_18  and  C_19
REMARK    9  A    between atoms: O_20  and  C_21
REMARK   10  A    between atoms: O_22  and  C_23
REMARK   11  A    between atoms: C_25  and  N_26
REMARK   12  A    between atoms: N_29  and  C_32
REMARK   13  A    between atoms: C_32  and  C_33
REMARK   14  A    between atoms: C_33  and  O_34
REMARK                            x       y       z     vdW  Elec       q    Type
REMARK                         _______ _______ _______ _____ _____    ______ ____
ROOT
ATOM      1  C   UNL     1      -1.782  -7.409   0.497  0.00  0.00    +0.045 C 
ATOM      2  C   UNL     1      -2.528  -6.102   0.417  0.00  0.00    -0.033 A 
ATOM      3  C   UNL     1      -3.889  -6.097   0.294  0.00  0.00    +0.050 A 
ATOM      4  C   UNL     1      -4.580  -4.891   0.221  0.00  0.00    +0.122 A 
ATOM      5  C   UNL     1      -3.900  -3.685   0.271  0.00  0.00    +0.020 A 
ATOM      6  C   UNL     1      -2.516  -3.672   0.397  0.00  0.00    +0.145 A 
ATOM      7  C   UNL     1      -1.830  -4.895   0.470  0.00  0.00    +0.071 A 
ATOM      8  C   UNL     1      -0.400  -4.561   0.598  0.00  0.00    +0.232 C 
ATOM      9  O   UNL     1       0.541  -5.332   0.690  0.00  0.00    -0.283 OA
ATOM     10  C   UNL     1      -0.361  -3.094   0.588  0.00  0.00    +0.176 C 
ATOM     11  C   UNL     1       0.753  -2.320   0.683  0.00  0.00    +0.062 C 
ATOM     12  O   UNL     1      -1.635  -2.651   0.473  0.00  0.00    -0.451 OA
ENDROOT
BRANCH  11  13
ATOM     13  C   UNL     1       0.627  -0.861   0.746  0.00  0.00    +0.024 A 
ATOM     14  C   UNL     1      -0.568  -0.240   0.358  0.00  0.00    +0.015 A 
ATOM     15  C   UNL     1      -0.681   1.130   0.418  0.00  0.00    +0.050 A 
ATOM     16  C   UNL     1       0.385   1.904   0.863  0.00  0.00    +0.165 A 
ATOM     17  C   UNL     1       1.577   1.301   1.251  0.00  0.00    +0.204 A 
ATOM     18  C   UNL     1       1.705  -0.079   1.196  0.00  0.00    +0.172 A 
BRANCH  18  19
ATOM     19  O   UNL     1       2.867  -0.672   1.574  0.00  0.00    -0.491 OA
ATOM     20  C   UNL     1       3.895  -0.773   0.588  0.00  0.00    +0.277 C 
ENDBRANCH  18  19
BRANCH  17  21
ATOM     21  O   UNL     1       2.616   2.064   1.685  0.00  0.00    -0.488 OA
ATOM     22  C   UNL     1       2.730   2.264   3.096  0.00  0.00    +0.277 C 
ENDBRANCH  17  21
BRANCH  16  23
ATOM     23  O   UNL     1       0.263   3.256   0.918  0.00  0.00    -0.491 OA
ATOM     24  C   UNL     1      -0.987   3.811   0.504  0.00  0.00    +0.277 C 
ENDBRANCH  16  23
ENDBRANCH  11  13
BRANCH   4  25
ATOM     25  O   UNL     1      -5.932  -4.897   0.098  0.00  0.00    -0.506 OA
ATOM     26  H   UNL     1      -6.483  -3.947   0.040  0.00  0.00    +0.292 HD
ENDBRANCH   4  25
BRANCH   5  27
ATOM     27  C   UNL     1      -4.661  -2.387   0.190  0.00  0.00    -0.035 C 
BRANCH  27  28
ATOM     28  N   UNL     1      -4.784  -1.978  -1.216  0.00  0.00    +0.384 N 
ATOM     29  C   UNL     1      -3.470  -1.645  -1.784  0.00  0.00    -0.063 C 
ATOM     30  C   UNL     1      -3.630  -1.303  -3.267  0.00  0.00    +0.066 C 
ATOM     31  N   UNL     1      -4.562  -0.176  -3.408  0.00  0.00    -0.304 NA
ATOM     32  C   UNL     1      -5.876  -0.509  -2.841  0.00  0.00    +0.066 C 
ATOM     33  C   UNL     1      -5.716  -0.851  -1.358  0.00  0.00    -0.063 C 
ATOM     34  H   UNL     1      -5.192  -2.830  -1.780  0.00  0.00    -0.081 HD
BRANCH  31  35
ATOM     35  C   UNL     1      -4.685   0.233  -4.814  0.00  0.00    +0.112 C 
BRANCH  35  36
ATOM     36  C   UNL     1      -5.243   1.656  -4.885  0.00  0.00    +0.171 C 
BRANCH  36  37
ATOM     37  O   UNL     1      -4.276   2.573  -4.368  0.00  0.00    -0.394 OA
ATOM     38  H   UNL     1      -4.500   3.649  -4.338  0.00  0.00    +0.209 HD
ENDBRANCH  36  37
ENDBRANCH  35  36
ENDBRANCH  31  35
ENDBRANCH  27  28
ENDBRANCH   5  27
TORSDOF 10
