REMARK  Name = ZINC40008207
REMARK  14 active torsions:
REMARK  status: ('A' for Active; 'I' for Inactive)
REMARK    1  A    between atoms: C_1  and  C_2
REMARK    2  A    between atoms: C_2  and  N_3
REMARK    3  A    between atoms: N_3  and  C_4
REMARK    4  A    between atoms: N_3  and  C_6
REMARK    5  A    between atoms: C_4  and  C_5
REMARK    6  A    between atoms: C_6  and  C_7
REMARK    7  A    between atoms: C_7  and  C_8
REMARK    8  A    between atoms: C_8  and  N_9
REMARK    9  A    between atoms: C_10  and  C_26
REMARK   10  A    between atoms: C_17  and  C_25
REMARK   11  A    between atoms: C_29  and  O_35
REMARK   12  A    between atoms: C_30  and  O_32
REMARK   13  A    between atoms: O_32  and  C_33
REMARK   14  A    between atoms: C_33  and  C_34
REMARK                            x       y       z     vdW  Elec       q    Type
REMARK                         _______ _______ _______ _____ _____    ______ ____
ROOT
ATOM      1  N   UNL     1       2.127  -4.497  -3.857  0.00  0.00    -0.284 N 
ATOM      2  C   UNL     1       1.645  -4.630  -5.242  0.00  0.00    +0.145 C 
ATOM      3  C   UNL     1       2.811  -5.129  -6.032  0.00  0.00    +0.072 A 
ATOM      4  C   UNL     1       2.943  -5.460  -7.454  0.00  0.00    +0.199 A 
ATOM      5  O   UNL     1       2.089  -5.197  -8.283  0.00  0.00    -0.287 OA
ATOM      6  C   UNL     1       4.216  -6.146  -7.789  0.00  0.00    +0.065 A 
ATOM      7  C   UNL     1       4.409  -6.702  -9.053  0.00  0.00    +0.018 A 
ATOM      8  C   UNL     1       5.585  -7.335  -9.344  0.00  0.00    -0.050 A 
ATOM      9  C   UNL     1       6.585  -7.426  -8.386  0.00  0.00    +0.007 A 
ATOM     10  C   UNL     1       6.413  -6.882  -7.133  0.00  0.00    +0.047 A 
ATOM     11  C   UNL     1       5.223  -6.228  -6.813  0.00  0.00    +0.139 A 
ATOM     12  O   UNL     1       5.079  -5.692  -5.579  0.00  0.00    -0.450 OA
ATOM     13  C   UNL     1       3.867  -5.264  -5.176  0.00  0.00    +0.199 A 
ATOM     14  C   UNL     1       3.424  -4.864  -3.829  0.00  0.00    +0.283 C 
ATOM     15  O   UNL     1       4.125  -4.867  -2.836  0.00  0.00    -0.267 OA
ATOM     16  C   UNL     1       5.796  -7.937 -10.710  0.00  0.00    +0.044 C 
ENDROOT
BRANCH   2  17
ATOM     17  C   UNL     1       0.511  -5.620  -5.305  0.00  0.00    -0.019 A 
ATOM     18  C   UNL     1       0.558  -6.773  -4.544  0.00  0.00    +0.009 A 
ATOM     19  C   UNL     1      -0.481  -7.684  -4.598  0.00  0.00    +0.049 A 
ATOM     20  C   UNL     1      -1.572  -7.442  -5.416  0.00  0.00    +0.158 A 
ATOM     21  C   UNL     1      -1.620  -6.281  -6.182  0.00  0.00    +0.162 A 
ATOM     22  C   UNL     1      -0.578  -5.370  -6.119  0.00  0.00    +0.055 A 
BRANCH  20  23
ATOM     23  O   UNL     1      -2.595  -8.337  -5.471  0.00  0.00    -0.503 OA
ATOM     24  H   UNL     1      -3.294  -8.175  -4.824  0.00  0.00    +0.292 HD
ENDBRANCH  20  23
BRANCH  21  25
ATOM     25  O   UNL     1      -2.689  -6.039  -6.987  0.00  0.00    -0.489 OA
BRANCH  25  26
ATOM     26  C   UNL     1      -2.671  -4.827  -7.744  0.00  0.00    +0.226 C 
ATOM     27  C   UNL     1      -3.946  -4.730  -8.583  0.00  0.00    +0.048 C 
ENDBRANCH  25  26
ENDBRANCH  21  25
ENDBRANCH   2  17
BRANCH   1  28
ATOM     28  C   UNL     1       1.336  -4.039  -2.711  0.00  0.00    +0.107 C 
BRANCH  28  29
ATOM     29  C   UNL     1       1.453  -2.519  -2.586  0.00  0.00    +0.000 C 
BRANCH  29  30
ATOM     30  C   UNL     1       0.628  -2.041  -1.389  0.00  0.00    -0.077 C 
BRANCH  30  31
ATOM     31  N   UNL     1       0.826  -0.598  -1.203  0.00  0.00    +0.379 N 
ATOM     32  H   UNL     1       1.813  -0.402  -1.119  0.00  0.00    -0.082 HD
BRANCH  31  34
ATOM     33  C   UNL     1       0.597   1.616  -2.224  0.00  0.00    -0.017 C 
ATOM     34  C   UNL     1       0.280   0.126  -2.359  0.00  0.00    -0.082 C 
ENDBRANCH  31  34
BRANCH  31  35
ATOM     35  C   UNL     1       0.136  -0.162   0.018  0.00  0.00    -0.082 C 
ATOM     36  C   UNL     1       0.810  -0.793   1.238  0.00  0.00    -0.017 C 
ENDBRANCH  31  35
ENDBRANCH  30  31
ENDBRANCH  29  30
ENDBRANCH  28  29
ENDBRANCH   1  28
TORSDOF 10
