REMARK  Name = ZINC60458890
REMARK  10 active torsions:
REMARK  status: ('A' for Active; 'I' for Inactive)
REMARK    1  A    between atoms: C_1  and  C_2
REMARK    2  A    between atoms: C_4  and  C_23
REMARK    3  A    between atoms: C_7  and  N_8
REMARK    4  A    between atoms: N_8  and  C_9
REMARK    5  A    between atoms: C_9  and  C_10
REMARK    6  A    between atoms: N_15  and  C_16
REMARK    7  A    between atoms: C_21  and  C_22
REMARK    8  A    between atoms: N_25  and  C_26
REMARK    9  A    between atoms: C_26  and  C_27
REMARK   10  A    between atoms: C_26  and  C_28
REMARK                            x       y       z     vdW  Elec       q    Type
REMARK                         _______ _______ _______ _____ _____    ______ ____
ROOT
ATOM      1  N   UNL     1       0.025  -0.015   2.411  0.00  0.00    -0.335 N 
ATOM      2  H   UNL     1       0.012   0.955   2.414  0.00  0.00    +0.147 HD
ENDROOT
BRANCH   1   9
ATOM      3  C   UNL     1      -0.018   1.503   0.010  0.00  0.00    +0.045 C 
ATOM      4  C   UNL     1       0.002  -0.004   0.002  0.00  0.00    -0.029 A 
ATOM      5  C   UNL     1       0.006  -0.685  -1.194  0.00  0.00    +0.018 A 
ATOM      6  C   UNL     1       0.025  -2.083  -1.201  0.00  0.00    +0.037 A 
ATOM      7  C   UNL     1       0.041  -2.784   0.008  0.00  0.00    +0.015 A 
ATOM      8  C   UNL     1       0.037  -2.098   1.201  0.00  0.00    +0.024 A 
ATOM      9  C   UNL     1       0.023  -0.706   1.204  0.00  0.00    +0.030 A 
BRANCH   6  10
ATOM     10  C   UNL     1       0.029  -2.815  -2.481  0.00  0.00    +0.244 C 
ATOM     11  O   UNL     1       0.015  -2.204  -3.532  0.00  0.00    -0.270 OA
ATOM     12  N   UNL     1       0.047  -4.163  -2.486  0.00  0.00    -0.309 N 
ATOM     13  H   UNL     1       0.059  -4.651  -1.648  0.00  0.00    +0.149 HD
BRANCH  12  14
ATOM     14  C   UNL     1       0.051  -4.891  -3.758  0.00  0.00    +0.067 C 
ATOM     15  C   UNL     1       1.487  -5.015  -4.270  0.00  0.00    +0.027 C 
ATOM     16  C   UNL     1      -0.538  -6.287  -3.547  0.00  0.00    +0.027 C 
ENDBRANCH  12  14
ENDBRANCH   6  10
ENDBRANCH   1   9
BRANCH   1  17
ATOM     17  C   UNL     1       0.047  -0.752   3.677  0.00  0.00    +0.198 C 
BRANCH  17  18
ATOM     18  C   UNL     1       0.045   0.223   4.826  0.00  0.00    +0.237 C 
ATOM     19  O   UNL     1       0.026   1.416   4.609  0.00  0.00    -0.274 OA
ATOM     20  N   UNL     1       0.063  -0.230   6.095  0.00  0.00    -0.239 N 
ATOM     21  C   UNL     1       0.061   0.642   7.122  0.00  0.00    +0.306 C 
ATOM     22  O   UNL     1       0.042   1.837   6.905  0.00  0.00    -0.252 OA
ATOM     23  N   UNL     1       0.079   0.188   8.391  0.00  0.00    -0.296 N 
ATOM     24  H   UNL     1       0.077  -1.185   6.268  0.00  0.00    +0.159 HD
ATOM     25  H   UNL     1       0.094  -0.766   8.565  0.00  0.00    +0.151 HD
BRANCH  23  26
ATOM     26  C   UNL     1       0.077   1.136   9.508  0.00  0.00    +0.077 C 
ATOM     27  C   UNL     1       1.511   1.581   9.802  0.00  0.00    +0.022 C 
ATOM     28  C   UNL     1       2.358   0.362  10.170  0.00  0.00    +0.002 C 
ATOM     29  C   UNL     1       1.769  -0.313  11.410  0.00  0.00    +0.000 C 
ATOM     30  C   UNL     1       0.335  -0.759  11.116  0.00  0.00    +0.005 C 
ATOM     31  C   UNL     1      -0.512   0.461  10.749  0.00  0.00    +0.006 C 
ATOM     32  C   UNL     1      -1.946   0.015  10.455  0.00  0.00    +0.009 C 
ENDBRANCH  23  26
ENDBRANCH  17  18
ENDBRANCH   1  17
TORSDOF 6
