REMARK  Name = ZINC09359223
REMARK  4 active torsions:
REMARK  status: ('A' for Active; 'I' for Inactive)
REMARK    1  A    between atoms: C_6  and  C_7
REMARK    2  A    between atoms: N_8  and  N_9
REMARK    3  A    between atoms: C_15  and  C_18
REMARK    4  A    between atoms: N_20  and  C_21
REMARK                            x       y       z     vdW  Elec       q    Type
REMARK                         _______ _______ _______ _____ _____    ______ ____
ROOT
ATOM      1  N   UNL     1      -2.423  -2.785   0.034  0.00  0.00    -0.217 N 
ATOM      2  C   UNL     1      -2.408  -4.150   0.019  0.00  0.00    +0.166 C 
ATOM      3  N   UNL     1      -1.258  -4.801   0.004  0.00  0.00    -0.158 NA
ATOM      4  C   UNL     1      -1.099  -6.099  -0.013  0.00  0.00    +0.240 C 
ATOM      5  O   UNL     1       0.045  -6.508   0.009  0.00  0.00    -0.274 OA
ATOM      6  C   UNL     1      -2.181  -7.131  -0.055  0.00  0.00    +0.122 C 
ATOM      7  C   UNL     1      -3.414  -6.656   0.723  0.00  0.00    +0.149 C 
ATOM      8  S   UNL     1      -3.925  -5.056   0.027  0.00  0.00    -0.078 S 
ATOM      9  H   UNL     1      -3.269  -2.309   0.049  0.00  0.00    +0.176 HD
ENDROOT
BRANCH   7  10
ATOM     10  C   UNL     1      -4.529  -7.660   0.577  0.00  0.00    +0.231 C 
ATOM     11  O   UNL     1      -4.615  -8.329  -0.431  0.00  0.00    -0.274 OA
ATOM     12  N   UNL     1      -5.431  -7.814   1.567  0.00  0.00    -0.285 N 
ATOM     13  H   UNL     1      -5.325  -7.329   2.400  0.00  0.00    +0.155 HD
BRANCH  12  14
ATOM     14  C   UNL     1      -6.521  -8.675   1.392  0.00  0.00    +0.033 A 
ATOM     15  C   UNL     1      -7.753  -8.358   1.948  0.00  0.00    +0.024 A 
ATOM     16  C   UNL     1      -8.827  -9.209   1.774  0.00  0.00    +0.017 A 
ATOM     17  C   UNL     1      -8.676 -10.376   1.047  0.00  0.00    +0.018 A 
ATOM     18  C   UNL     1      -7.449 -10.694   0.492  0.00  0.00    +0.017 A 
ATOM     19  C   UNL     1      -6.373  -9.844   0.658  0.00  0.00    +0.024 A 
ATOM     20 BR   UNL     1     -10.148 -11.539   0.811  0.00  0.00    -0.050 Br
ENDBRANCH  12  14
ENDBRANCH   7  10
BRANCH   1  22
ATOM     21  C   UNL     1      -1.233  -0.773   0.043  0.00  0.00    +0.138 C 
ATOM     22  N   UNL     1      -1.218  -2.070   0.028  0.00  0.00    -0.188 NA
BRANCH  21  28
ATOM     23  C   UNL     1       0.023   1.376   0.052  0.00  0.00    +0.011 A 
ATOM     24  C   UNL     1       1.213   2.073   0.046  0.00  0.00    +0.020 A 
ATOM     25  C   UNL     1       2.418   1.392   0.025  0.00  0.00    +0.041 A 
ATOM     26  C   UNL     1       2.438   0.007   0.009  0.00  0.00    +0.020 A 
ATOM     27  C   UNL     1       1.255  -0.702   0.015  0.00  0.00    +0.011 A 
ATOM     28  C   UNL     1       0.036  -0.021   0.036  0.00  0.00    -0.005 A 
ATOM     29 CL   UNL     1       3.912   2.277   0.017  0.00  0.00    -0.084 Cl
ENDBRANCH  21  28
ENDBRANCH   1  22
TORSDOF 4
