REMARK  Name = ZINC36508841
REMARK  17 active torsions:
REMARK  status: ('A' for Active; 'I' for Inactive)
REMARK    1  A    between atoms: C_1  and  C_2
REMARK    2  A    between atoms: C_2  and  C_3
REMARK    3  A    between atoms: C_3  and  C_4
REMARK    4  A    between atoms: C_4  and  C_5
REMARK    5  A    between atoms: C_5  and  C_6
REMARK    6  A    between atoms: C_6  and  N_7
REMARK    7  A    between atoms: N_7  and  C_8
REMARK    8  A    between atoms: C_8  and  C_10
REMARK    9  A    between atoms: C_8  and  C_19
REMARK   10  A    between atoms: N_21  and  C_22
REMARK   11  A    between atoms: C_22  and  S_23
REMARK   12  A    between atoms: S_23  and  C_26
REMARK   13  A    between atoms: C_29  and  C_32
REMARK   14  A    between atoms: C_33  and  C_35
REMARK   15  A    between atoms: C_35  and  C_36
REMARK   16  A    between atoms: C_36  and  C_37
REMARK   17  A    between atoms: C_36  and  C_38
REMARK                            x       y       z     vdW  Elec       q    Type
REMARK                         _______ _______ _______ _____ _____    ______ ____
ROOT
ATOM      1  C   UNL     1       1.633  -4.842   4.859  0.00  0.00    +0.192 C 
ENDROOT
BRANCH   1   2
ATOM      2  C   UNL     1       1.807  -6.279   5.279  0.00  0.00    -0.015 A 
ATOM      3  C   UNL     1       2.836  -6.628   6.134  0.00  0.00    +0.010 A 
ATOM      4  C   UNL     1       2.999  -7.944   6.522  0.00  0.00    +0.050 A 
ATOM      5  C   UNL     1       2.131  -8.918   6.056  0.00  0.00    +0.166 A 
ATOM      6  C   UNL     1       1.094  -8.566   5.195  0.00  0.00    +0.167 A 
ATOM      7  C   UNL     1       0.933  -7.244   4.814  0.00  0.00    +0.055 A 
ATOM      8  O   UNL     1       0.387  -9.691   4.881  0.00  0.00    -0.453 OA
ATOM      9  C   UNL     1       1.244 -10.794   5.231  0.00  0.00    +0.466 C 
ATOM     10  O   UNL     1       2.073 -10.263   6.282  0.00  0.00    -0.453 OA
ENDBRANCH   1   2
BRANCH   1  11
ATOM     11  C   UNL     1       2.228  -3.937   5.907  0.00  0.00    +0.239 C 
ATOM     12  O   UNL     1       3.131  -3.182   5.615  0.00  0.00    -0.273 OA
ATOM     13  N   UNL     1       1.756  -3.966   7.169  0.00  0.00    -0.294 N 
ATOM     14  H   UNL     1       1.033  -4.570   7.403  0.00  0.00    +0.150 HD
BRANCH  13  15
ATOM     15  C   UNL     1       2.333  -3.086   8.188  0.00  0.00    +0.278 C 
BRANCH  15  16
ATOM     16  S   UNL     1       1.341  -1.573   8.313  0.00  0.00    +0.013 S 
ATOM     17  O   UNL     1       1.852  -0.736   9.341  0.00  0.00    -0.168 OA
ATOM     18  O   UNL     1       1.079  -1.051   7.017  0.00  0.00    -0.168 OA
BRANCH  16  19
ATOM     19  C   UNL     1      -0.229  -2.108   8.907  0.00  0.00    +0.090 A 
ATOM     20  C   UNL     1      -1.217  -2.476   8.013  0.00  0.00    +0.027 A 
ATOM     21  C   UNL     1      -2.449  -2.896   8.479  0.00  0.00    +0.005 A 
ATOM     22  C   UNL     1      -2.692  -2.949   9.839  0.00  0.00    -0.050 A 
ATOM     23  C   UNL     1      -1.704  -2.582  10.733  0.00  0.00    +0.005 A 
ATOM     24  C   UNL     1      -0.471  -2.166  10.267  0.00  0.00    +0.027 A 
ATOM     25  C   UNL     1      -4.035  -3.406  10.347  0.00  0.00    +0.044 C 
ENDBRANCH  16  19
ENDBRANCH  15  16
ENDBRANCH  13  15
ENDBRANCH   1  11
BRANCH   1  26
ATOM     26  N   UNL     1       2.314  -4.622   3.580  0.00  0.00    -0.286 N 
ATOM     27  C   UNL     1       1.637  -4.100   2.538  0.00  0.00    +0.217 C 
ATOM     28  O   UNL     1       0.492  -3.730   2.683  0.00  0.00    -0.276 OA
BRANCH  26  29
ATOM     29  C   UNL     1       3.730  -4.968   3.435  0.00  0.00    +0.109 C 
BRANCH  29  30
ATOM     30  C   UNL     1       3.854  -6.417   2.959  0.00  0.00    +0.019 C 
BRANCH  30  31
ATOM     31  C   UNL     1       5.333  -6.779   2.807  0.00  0.00    +0.002 C 
BRANCH  31  32
ATOM     32  C   UNL     1       5.457  -8.228   2.331  0.00  0.00    -0.000 C 
BRANCH  32  34
ATOM     33  C   UNL     1       7.060 -10.039   1.704  0.00  0.00    +0.004 C 
ATOM     34  C   UNL     1       6.936  -8.590   2.180  0.00  0.00    -0.003 C 
ENDBRANCH  32  34
ENDBRANCH  31  32
ENDBRANCH  30  31
ENDBRANCH  29  30
ENDBRANCH  26  29
BRANCH  27  35
ATOM     35  C   UNL     1       2.305  -3.976   1.193  0.00  0.00    +0.099 C 
BRANCH  35  36
ATOM     36  C   UNL     1       1.326  -3.358   0.193  0.00  0.00    -0.008 C 
ATOM     37  C   UNL     1       1.001  -1.924   0.617  0.00  0.00    +0.008 C 
ATOM     38  C   UNL     1       1.959  -3.347  -1.200  0.00  0.00    +0.008 C 
ENDBRANCH  35  36
ENDBRANCH  27  35
ENDBRANCH   1  26
TORSDOF 13
