REMARK  Name = ZINC63134628
REMARK  6 active torsions:
REMARK  status: ('A' for Active; 'I' for Inactive)
REMARK    1  A    between atoms: C_1  and  C_2
REMARK    2  A    between atoms: C_2  and  C_3
REMARK    3  A    between atoms: C_3  and  N_4
REMARK    4  A    between atoms: C_11  and  O_28
REMARK    5  A    between atoms: C_13  and  C_16
REMARK    6  A    between atoms: N_18  and  C_19
REMARK                            x       y       z     vdW  Elec       q    Type
REMARK                         _______ _______ _______ _____ _____    ______ ____
ROOT
ATOM      1  N   UNL     1      -1.413  -1.998   0.005  0.00  0.00    -0.270 N 
ATOM      2  C   UNL     1      -1.410  -2.686  -1.213  0.00  0.00    +0.042 A 
ATOM      3  C   UNL     1      -1.806  -2.044  -2.378  0.00  0.00    +0.024 A 
ATOM      4  C   UNL     1      -1.800  -2.729  -3.578  0.00  0.00    +0.002 A 
ATOM      5  C   UNL     1      -1.401  -4.053  -3.618  0.00  0.00    +0.000 A 
ATOM      6  C   UNL     1      -1.007  -4.695  -2.458  0.00  0.00    +0.008 A 
ATOM      7  C   UNL     1      -1.010  -4.015  -1.257  0.00  0.00    +0.003 A 
ATOM      8  C   UNL     1      -0.581  -4.711   0.009  0.00  0.00    +0.167 C 
ATOM      9  C   UNL     1      -1.396  -4.178   1.187  0.00  0.00    +0.198 C 
ATOM     10  C   UNL     1      -1.393  -2.673   1.169  0.00  0.00    +0.235 C 
ATOM     11  O   UNL     1      -1.377  -2.061   2.216  0.00  0.00    -0.274 OA
ENDROOT
BRANCH   9  12
ATOM     12  C   UNL     1      -2.812  -4.681   1.085  0.00  0.00    +0.260 C 
ATOM     13  O   UNL     1      -3.134  -5.895   1.578  0.00  0.00    -0.270 OA
ATOM     14  N   UNL     1      -3.718  -3.952   0.526  0.00  0.00    -0.205 NA
BRANCH  14  15
ATOM     15  C   UNL     1      -5.095  -4.442   0.426  0.00  0.00    +0.302 C 
ATOM     16  N   UNL     1      -5.525  -4.454  -0.978  0.00  0.00    -0.345 N 
ATOM     17  C   UNL     1      -6.550  -3.658  -1.079  0.00  0.00    +0.062 A 
ATOM     18  C   UNL     1      -7.400  -3.263  -2.211  0.00  0.00    +0.027 A 
ATOM     19  C   UNL     1      -8.415  -2.398  -2.010  0.00  0.00    +0.002 A 
ATOM     20  C   UNL     1      -8.702  -1.845  -0.750  0.00  0.00    +0.002 A 
ATOM     21  C   UNL     1      -7.984  -2.139   0.353  0.00  0.00    +0.027 A 
ATOM     22  C   UNL     1      -6.854  -3.073   0.255  0.00  0.00    +0.062 A 
ATOM     23  N   UNL     1      -6.006  -3.530   1.130  0.00  0.00    -0.345 N 
ATOM     24  H   UNL     1      -5.120  -4.963  -1.698  0.00  0.00    +0.163 HD
ATOM     25  H   UNL     1      -5.981  -3.310   2.075  0.00  0.00    +0.163 HD
ENDBRANCH  14  15
ENDBRANCH   9  12
BRANCH   8  26
ATOM     26  O   UNL     1       0.808  -4.465   0.240  0.00  0.00    -0.386 OA
ATOM     27  H   UNL     1       1.386  -4.779  -0.469  0.00  0.00    +0.210 HD
ENDBRANCH   8  26
BRANCH   1  28
ATOM     28  C   UNL     1      -1.433  -0.534   0.013  0.00  0.00    +0.113 C 
BRANCH  28  30
ATOM     29  C   UNL     1      -0.019   1.526   0.010  0.00  0.00    +0.005 C 
ATOM     30  C   UNL     1       0.002  -0.004   0.002  0.00  0.00    +0.016 C 
ENDBRANCH  28  30
ENDBRANCH   1  28
TORSDOF 5
