REMARK  Name = ZINC08827494
REMARK  5 active torsions:
REMARK  status: ('A' for Active; 'I' for Inactive)
REMARK    1  A    between atoms: N_14  and  C_26
REMARK    2  A    between atoms: C_15  and  C_17
REMARK    3  A    between atoms: C_20  and  N_23
REMARK    4  A    between atoms: C_26  and  C_27
REMARK    5  A    between atoms: C_27  and  N_53
REMARK                            x       y       z     vdW  Elec       q    Type
REMARK                         _______ _______ _______ _____ _____    ______ ____
ROOT
ATOM      1  C   UNL     1      -1.191   3.551   0.033  0.00  0.00    +0.001 A 
ATOM      2  C   UNL     1       0.020   4.230   0.024  0.00  0.00    +0.004 A 
ATOM      3  C   UNL     1       1.214   3.543   0.009  0.00  0.00    +0.047 A 
ATOM      4  C   UNL     1       1.213   2.151   0.002  0.00  0.00    +0.139 A 
ATOM      5  C   UNL     1      -0.018   1.472   0.010  0.00  0.00    +0.064 A 
ATOM      6  C   UNL     1      -1.216   2.184   0.020  0.00  0.00    +0.015 A 
ATOM      7  C   UNL     1       0.002  -0.004   0.002  0.00  0.00    +0.199 A 
ATOM      8  O   UNL     1      -1.026  -0.658   0.008  0.00  0.00    -0.287 OA
ATOM      9  C   UNL     1       1.321  -0.644  -0.014  0.00  0.00    +0.072 A 
ATOM     10  C   UNL     1       2.441   0.119  -0.021  0.00  0.00    +0.199 A 
ATOM     11  O   UNL     1       2.370   1.465  -0.012  0.00  0.00    -0.450 OA
ATOM     12  C   UNL     1       3.620  -0.782  -0.038  0.00  0.00    +0.283 C 
ATOM     13  O   UNL     1       4.777  -0.412  -0.047  0.00  0.00    -0.267 OA
ATOM     14  N   UNL     1       3.223  -2.067  -0.041  0.00  0.00    -0.285 N 
ATOM     15  C   UNL     1       1.755  -2.086  -0.027  0.00  0.00    +0.144 C 
ENDROOT
BRANCH  15  16
ATOM     16  C   UNL     1       1.234  -2.775  -1.262  0.00  0.00    -0.022 A 
ATOM     17  C   UNL     1       1.863  -2.584  -2.478  0.00  0.00    +0.008 A 
ATOM     18  C   UNL     1       1.387  -3.220  -3.609  0.00  0.00    +0.033 A 
ATOM     19  C   UNL     1       0.276  -4.038  -3.527  0.00  0.00    +0.126 A 
ATOM     20  C   UNL     1      -0.357  -4.223  -2.312  0.00  0.00    +0.033 A 
ATOM     21  C   UNL     1       0.122  -3.592  -1.179  0.00  0.00    +0.008 A 
BRANCH  19  22
ATOM     22  N   UNL     1      -0.236  -4.714  -4.740  0.00  0.00    +0.056 N 
ATOM     23  O   UNL     1      -1.216  -5.435  -4.667  0.00  0.00    -0.126 OA
ATOM     24  O   UNL     1       0.321  -4.551  -5.810  0.00  0.00    -0.126 OA
ENDBRANCH  19  22
ENDBRANCH  15  16
BRANCH  14  25
ATOM     25  C   UNL     1       4.101  -3.240  -0.056  0.00  0.00    +0.090 C 
BRANCH  25  26
ATOM     26  C   UNL     1       4.420  -3.656   1.381  0.00  0.00    -0.059 C 
BRANCH  26  32
ATOM     27  C   UNL     1       4.604  -6.004   0.816  0.00  0.00    -0.050 C 
ATOM     28  C   UNL     1       5.572  -7.189   0.763  0.00  0.00    +0.141 C 
ATOM     29  O   UNL     1       6.091  -7.432   2.073  0.00  0.00    -0.383 OA
ATOM     30  C   UNL     1       6.776  -6.312   2.639  0.00  0.00    +0.141 C 
ATOM     31  C   UNL     1       5.820  -5.119   2.711  0.00  0.00    -0.050 C 
ATOM     32  N   UNL     1       5.322  -4.828   1.350  0.00  0.00    +0.384 N 
ATOM     33  H   UNL     1       6.121  -4.618   0.740  0.00  0.00    -0.082 HD
ENDBRANCH  26  32
ENDBRANCH  25  26
ENDBRANCH  14  25
TORSDOF 5
