REMARK  Name = ZINC13591828
REMARK  4 active torsions:
REMARK  status: ('A' for Active; 'I' for Inactive)
REMARK    1  A    between atoms: C_8  and  C_27
REMARK    2  A    between atoms: C_10  and  C_18
REMARK    3  A    between atoms: C_22  and  N_24
REMARK    4  A    between atoms: C_27  and  C_29
REMARK                            x       y       z     vdW  Elec       q    Type
REMARK                         _______ _______ _______ _____ _____    ______ ____
ROOT
ATOM      1  C   UNL     1      -0.155   1.337   0.032  0.00  0.00    +0.000 A 
ATOM      2  C   UNL     1       1.017   2.071   0.064  0.00  0.00    +0.002 A 
ATOM      3  C   UNL     1       2.239   1.432   0.071  0.00  0.00    +0.023 A 
ATOM      4  C   UNL     1       2.302   0.040   0.047  0.00  0.00    +0.039 A 
ATOM      5  C   UNL     1       1.117  -0.687   0.017  0.00  0.00    +0.004 A 
ATOM      6  C   UNL     1      -0.101  -0.046   0.009  0.00  0.00    +0.008 A 
ATOM      7  C   UNL     1       1.519  -2.139  -0.002  0.00  0.00    +0.137 C 
ATOM      8  C   UNL     1       1.005  -2.833  -1.267  0.00  0.00    +0.103 C 
ATOM      9  C   UNL     1      -0.170  -3.707  -0.776  0.00  0.00    +0.049 C 
ATOM     10  C   UNL     1       0.178  -3.992   0.694  0.00  0.00    +0.066 C 
ATOM     11  N   UNL     1       0.990  -2.849   1.169  0.00  0.00    -0.281 NA
ATOM     12  C   UNL     1       0.055  -1.953   1.900  0.00  0.00    +0.086 C 
ATOM     13  C   UNL     1      -0.932  -2.924   2.591  0.00  0.00    +0.017 C 
ATOM     14  C   UNL     1      -1.099  -4.068   1.541  0.00  0.00    +0.021 C 
ATOM     15  C   UNL     1       3.028  -2.117   0.019  0.00  0.00    +0.243 C 
ATOM     16  O   UNL     1       3.764  -3.080   0.012  0.00  0.00    -0.273 OA
ATOM     17  N   UNL     1       3.399  -0.824   0.048  0.00  0.00    -0.283 N 
ATOM     18  H   UNL     1       4.322  -0.526   0.066  0.00  0.00    +0.155 HD
ENDROOT
BRANCH   9  19
ATOM     19  C   UNL     1      -0.243  -4.989  -1.564  0.00  0.00    -0.040 A 
ATOM     20  C   UNL     1       0.836  -5.853  -1.581  0.00  0.00    +0.004 A 
ATOM     21  C   UNL     1       0.770  -7.028  -2.304  0.00  0.00    +0.002 A 
ATOM     22  C   UNL     1      -0.377  -7.341  -3.011  0.00  0.00    +0.033 A 
ATOM     23  C   UNL     1      -1.456  -6.477  -2.995  0.00  0.00    +0.126 A 
ATOM     24  C   UNL     1      -1.391  -5.303  -2.267  0.00  0.00    +0.036 A 
BRANCH  23  25
ATOM     25  N   UNL     1      -2.683  -6.811  -3.752  0.00  0.00    +0.056 N 
ATOM     26  O   UNL     1      -2.741  -7.840  -4.386  0.00  0.00    -0.126 OA
ATOM     27  O   UNL     1      -3.627  -6.056  -3.738  0.00  0.00    -0.126 OA
ENDBRANCH  23  25
ENDBRANCH   9  19
BRANCH   8  28
ATOM     28  C   UNL     1       0.524  -1.813  -2.268  0.00  0.00    +0.171 C 
ATOM     29  O   UNL     1      -0.643  -1.487  -2.287  0.00  0.00    -0.292 OA
BRANCH  28  30
ATOM     30  C   UNL     1       1.472  -1.214  -3.221  0.00  0.00    +0.036 A 
ATOM     31  C   UNL     1       1.039  -0.260  -4.154  0.00  0.00    +0.014 A 
ATOM     32  C   UNL     1       1.970   0.272  -5.027  0.00  0.00    +0.020 A 
ATOM     33  C   UNL     1       3.287  -0.150  -4.953  0.00  0.00    +0.111 A 
ATOM     34  N   UNL     1       3.667  -1.049  -4.066  0.00  0.00    -0.263 NA
ATOM     35  C   UNL     1       2.821  -1.582  -3.209  0.00  0.00    +0.122 A 
ENDBRANCH  28  30
ENDBRANCH   8  28
TORSDOF 4
