REMARK  Name = ZINC36618850
REMARK  12 active torsions:
REMARK  status: ('A' for Active; 'I' for Inactive)
REMARK    1  A    between atoms: C_1  and  C_2
REMARK    2  A    between atoms: C_2  and  C_3
REMARK    3  A    between atoms: C_2  and  C_4
REMARK    4  A    between atoms: C_4  and  C_5
REMARK    5  A    between atoms: C_8  and  C_11
REMARK    6  A    between atoms: C_18  and  N_34
REMARK    7  A    between atoms: C_19  and  C_32
REMARK    8  A    between atoms: C_20  and  C_22
REMARK    9  A    between atoms: C_25  and  O_30
REMARK   10  A    between atoms: C_27  and  O_28
REMARK   11  A    between atoms: O_28  and  C_29
REMARK   12  A    between atoms: O_30  and  C_31
REMARK                            x       y       z     vdW  Elec       q    Type
REMARK                         _______ _______ _______ _____ _____    ______ ____
ROOT
ATOM      1  C   UNL     1      -1.389  -6.382  -1.083  0.00  0.00    +0.100 A 
ATOM      2  C   UNL     1      -0.694  -7.345  -0.346  0.00  0.00    +0.054 A 
ATOM      3  C   UNL     1      -0.927  -8.563  -0.917  0.00  0.00    +0.223 A 
ATOM      4  N   UNL     1      -1.739  -8.371  -1.977  0.00  0.00    -0.246 N 
ATOM      5  H   UNL     1      -2.071  -9.060  -2.573  0.00  0.00    +0.192 HD
ATOM      6  N   UNL     1      -2.022  -6.999  -2.063  0.00  0.00    -0.171 NA
ATOM      7  O   UNL     1      -0.394  -9.712  -0.433  0.00  0.00    -0.423 OA
ATOM      8  C   UNL     1       0.159  -9.675   0.797  0.00  0.00    +0.200 C 
ATOM      9  C   UNL     1       0.447  -8.532   1.458  0.00  0.00    +0.098 C 
ATOM     10  C   UNL     1       0.178  -7.169   0.870  0.00  0.00    +0.105 C 
ENDROOT
BRANCH   1  14
ATOM     11  C   UNL     1      -1.464  -2.203  -0.297  0.00  0.00    -0.047 A 
ATOM     12  C   UNL     1      -1.570  -3.103   0.748  0.00  0.00    +0.004 A 
ATOM     13  C   UNL     1      -1.546  -4.460   0.499  0.00  0.00    +0.010 A 
ATOM     14  C   UNL     1      -1.415  -4.923  -0.809  0.00  0.00    +0.003 A 
ATOM     15  C   UNL     1      -1.309  -4.012  -1.857  0.00  0.00    +0.010 A 
ATOM     16  C   UNL     1      -1.339  -2.657  -1.597  0.00  0.00    +0.004 A 
BRANCH  11  17
ATOM     17  C   UNL     1      -1.490  -0.722  -0.018  0.00  0.00    +0.038 C 
BRANCH  17  19
ATOM     18  C   UNL     1      -2.969   1.221   0.510  0.00  0.00    +0.007 C 
ATOM     19  C   UNL     1      -2.941  -0.249   0.085  0.00  0.00    -0.013 C 
ATOM     20  C   UNL     1      -3.625  -0.399  -1.275  0.00  0.00    +0.007 C 
ENDBRANCH  17  19
ENDBRANCH  11  17
ENDBRANCH   1  14
BRANCH  10  21
ATOM     21  C   UNL     1       1.479  -6.520   0.473  0.00  0.00    +0.007 A 
ATOM     22  C   UNL     1       2.253  -7.080  -0.527  0.00  0.00    +0.012 A 
ATOM     23  C   UNL     1       3.446  -6.487  -0.893  0.00  0.00    +0.046 A 
ATOM     24  C   UNL     1       3.870  -5.329  -0.258  0.00  0.00    +0.124 A 
ATOM     25  C   UNL     1       3.096  -4.765   0.744  0.00  0.00    +0.091 A 
ATOM     26  C   UNL     1       1.896  -5.359   1.106  0.00  0.00    +0.128 A 
BRANCH  26  27
ATOM     27  O   UNL     1       1.132  -4.806   2.085  0.00  0.00    -0.495 OA
ATOM     28  C   UNL     1       1.572  -3.557   2.624  0.00  0.00    +0.277 C 
ENDBRANCH  26  27
BRANCH  24  29
ATOM     29  O   UNL     1       5.044  -4.747  -0.619  0.00  0.00    -0.495 OA
ATOM     30  C   UNL     1       5.791  -5.382  -1.659  0.00  0.00    +0.277 C 
ENDBRANCH  24  29
ENDBRANCH  10  21
BRANCH   8  31
ATOM     31  N   UNL     1       0.445 -10.868   1.413  0.00  0.00    -0.328 N 
ATOM     32  H   UNL     1       0.249 -11.705   0.965  0.00  0.00    +0.145 HD
ATOM     33  H   UNL     1       0.843 -10.873   2.298  0.00  0.00    +0.145 HD
ENDBRANCH   8  31
BRANCH   9  34
ATOM     34  C   UNL     1       1.029  -8.617   2.763  0.00  0.00    +0.101 C 
ATOM     35  N   UNL     1       1.491  -8.685   3.799  0.00  0.00    -0.191 NA
ENDBRANCH   9  34
TORSDOF 8
