REMARK  Name = ZINC51151154
REMARK  6 active torsions:
REMARK  status: ('A' for Active; 'I' for Inactive)
REMARK    1  A    between atoms: C_6  and  N_20
REMARK    2  A    between atoms: C_8  and  C_10
REMARK    3  A    between atoms: C_10  and  S_11
REMARK    4  A    between atoms: S_11  and  C_12
REMARK    5  A    between atoms: C_16  and  N_18
REMARK    6  A    between atoms: N_20  and  N_21
REMARK                            x       y       z     vdW  Elec       q    Type
REMARK                         _______ _______ _______ _____ _____    ______ ____
ROOT
ATOM      1  C   UNL     1      -0.018   1.448   0.010  0.00  0.00    +0.021 A 
ATOM      2  C   UNL     1       1.144   2.119   0.003  0.00  0.00    +0.048 A 
ATOM      3  S   UNL     1       2.371   0.826  -0.016  0.00  0.00    -0.077 S 
ATOM      4  C   UNL     1       1.291  -0.580  -0.013  0.00  0.00    +0.114 A 
ATOM      5  C   UNL     1       0.002  -0.004   0.002  0.00  0.00    +0.049 A 
ATOM      6  C   UNL     1      -1.078  -0.928   0.007  0.00  0.00    +0.144 A 
ATOM      7  N   UNL     1      -0.818  -2.226  -0.003  0.00  0.00    -0.215 NA
ATOM      8  C   UNL     1       0.417  -2.695  -0.017  0.00  0.00    +0.143 A 
ATOM      9  N   UNL     1       1.460  -1.888  -0.022  0.00  0.00    -0.224 NA
ENDROOT
BRANCH   6  10
ATOM     10  N   UNL     1      -2.386  -0.477   0.022  0.00  0.00    -0.267 N 
ATOM     11  H   UNL     1      -2.570   0.475   0.030  0.00  0.00    +0.167 HD
BRANCH  10  12
ATOM     12  N   UNL     1      -3.417  -1.373   0.027  0.00  0.00    -0.255 NA
ATOM     13  H   UNL     1      -4.308  -0.898   0.038  0.00  0.00    +0.140 HD
ATOM     14  H   UNL     1      -3.353  -2.002  -0.759  0.00  0.00    +0.140 HD
ENDBRANCH  10  12
ENDBRANCH   6  10
BRANCH   8  15
ATOM     15  C   UNL     1       0.639  -4.186  -0.028  0.00  0.00    +0.153 C 
BRANCH  15  16
ATOM     16  S   UNL     1       0.712  -4.774  -1.742  0.00  0.00    -0.078 S 
BRANCH  16  17
ATOM     17  C   UNL     1       0.971  -6.510  -1.587  0.00  0.00    +0.192 A 
ATOM     18  N   UNL     1       1.056  -7.044  -0.377  0.00  0.00    -0.207 NA
ATOM     19  C   UNL     1       1.251  -8.351  -0.221  0.00  0.00    +0.122 A 
ATOM     20  C   UNL     1       1.367  -9.158  -1.349  0.00  0.00    +0.086 A 
ATOM     21  C   UNL     1       1.273  -8.561  -2.603  0.00  0.00    +0.122 A 
ATOM     22  N   UNL     1       1.072  -7.248  -2.682  0.00  0.00    -0.207 NA
ATOM     23  N   UNL     1       1.338  -8.902   1.048  0.00  0.00    -0.343 N 
ATOM     24  H   UNL     1       1.257  -8.333   1.830  0.00  0.00    +0.144 HD
ATOM     25  H   UNL     1       1.481  -9.855   1.155  0.00  0.00    +0.144 HD
BRANCH  21  26
ATOM     26  N   UNL     1       1.383  -9.326  -3.754  0.00  0.00    -0.343 N 
ATOM     27  H   UNL     1       1.526 -10.283  -3.689  0.00  0.00    +0.144 HD
ATOM     28  H   UNL     1       1.316  -8.903  -4.625  0.00  0.00    +0.144 HD
ENDBRANCH  21  26
ENDBRANCH  16  17
ENDBRANCH  15  16
ENDBRANCH   8  15
TORSDOF 6
