REMARK  Name = ZINC44163279
REMARK  3 active torsions:
REMARK  status: ('A' for Active; 'I' for Inactive)
REMARK    1  A    between atoms: C_6  and  N_7
REMARK    2  A    between atoms: C_11  and  C_13
REMARK    3  A    between atoms: C_16  and  C_18
REMARK                            x       y       z     vdW  Elec       q    Type
REMARK                         _______ _______ _______ _____ _____    ______ ____
ROOT
ATOM      1  N   UNL     1      -1.198  -0.721   0.010  0.00  0.00    -0.268 N 
ATOM      2  C   UNL     1      -1.181  -2.099  -0.102  0.00  0.00    +0.312 A 
ATOM      3  N   UNL     1      -0.116  -2.863  -0.123  0.00  0.00    -0.092 NA
ATOM      4  N   UNL     1      -0.472  -4.094  -0.238  0.00  0.00    -0.104 NA
ATOM      5  C   UNL     1      -1.780  -4.165  -0.293  0.00  0.00    +0.271 A 
ATOM      6  O   UNL     1      -2.257  -2.904  -0.203  0.00  0.00    -0.403 OA
ATOM      7  H   UNL     1      -2.042  -0.252   0.106  0.00  0.00    +0.157 HD
ENDROOT
BRANCH   1  13
ATOM      8  C   UNL     1       1.115  -0.531  -0.656  0.00  0.00    +0.025 A 
ATOM      9  C   UNL     1       2.298   0.181  -0.681  0.00  0.00    +0.022 A 
ATOM     10  C   UNL     1       2.375   1.419  -0.068  0.00  0.00    +0.041 A 
ATOM     11  C   UNL     1       1.267   1.948   0.572  0.00  0.00    +0.022 A 
ATOM     12  C   UNL     1       0.081   1.240   0.599  0.00  0.00    +0.025 A 
ATOM     13  C   UNL     1       0.001  -0.003  -0.016  0.00  0.00    +0.035 A 
ATOM     14 CL   UNL     1       3.864   2.311  -0.100  0.00  0.00    -0.084 Cl
ENDBRANCH   1  13
BRANCH   5  15
ATOM     15  C   UNL     1      -2.585  -5.397  -0.425  0.00  0.00    +0.165 A 
ATOM     16  C   UNL     1      -3.939  -5.473  -0.490  0.00  0.00    +0.230 A 
ATOM     17  O   UNL     1      -4.255  -6.777  -0.606  0.00  0.00    -0.447 OA
ATOM     18  C   UNL     1      -3.116  -7.482  -0.613  0.00  0.00    +0.197 A 
ATOM     19  N   UNL     1      -2.107  -6.667  -0.511  0.00  0.00    -0.208 NA
BRANCH  18  20
ATOM     20  C   UNL     1      -3.018  -8.982  -0.726  0.00  0.00    +0.058 C 
ATOM     21  C   UNL     1      -3.653  -9.437  -2.043  0.00  0.00    +0.009 C 
ATOM     22  C   UNL     1      -3.619 -10.967  -2.112  0.00  0.00    -0.018 C 
ATOM     23  C   UNL     1      -4.340 -11.543  -0.892  0.00  0.00    -0.083 C 
ATOM     24  N   UNL     1      -3.670 -11.093   0.334  0.00  0.00    +0.380 N 
ATOM     25  C   UNL     1      -3.760  -9.632   0.444  0.00  0.00    -0.070 C 
ATOM     26  H   UNL     1      -4.114 -11.517   1.134  0.00  0.00    -0.086 HD
ATOM     27  H   UNL     1      -2.699 -11.367   0.306  0.00  0.00    -0.086 HD
ENDBRANCH  18  20
ENDBRANCH   5  15
TORSDOF 3
