REMARK  Name = ZINC05018301
REMARK  10 active torsions:
REMARK  status: ('A' for Active; 'I' for Inactive)
REMARK    1  A    between atoms: C_1  and  C_2
REMARK    2  A    between atoms: C_2  and  O_3
REMARK    3  A    between atoms: O_3  and  C_4
REMARK    4  A    between atoms: C_4  and  C_6
REMARK    5  A    between atoms: C_7  and  C_22
REMARK    6  A    between atoms: C_12  and  C_14
REMARK    7  A    between atoms: C_17  and  C_21
REMARK    8  A    between atoms: C_19  and  C_20
REMARK    9  A    between atoms: C_22  and  S_23
REMARK   10  A    between atoms: S_23  and  C_24
REMARK                            x       y       z     vdW  Elec       q    Type
REMARK                         _______ _______ _______ _____ _____    ______ ____
ROOT
ATOM      1  C   UNL     1      -0.040   1.525   0.117  0.00  0.00    +0.079 C 
ATOM      2  C   UNL     1       1.131   2.197   0.126  0.00  0.00    +0.034 C 
ATOM      3  N   UNL     1       2.323   1.536   0.050  0.00  0.00    -0.272 N 
ATOM      4  C   UNL     1       2.429   0.204  -0.037  0.00  0.00    +0.304 C 
ATOM      5  O   UNL     1       3.536  -0.295  -0.099  0.00  0.00    -0.252 OA
ATOM      6  N   UNL     1       1.349  -0.602  -0.056  0.00  0.00    -0.288 N 
ATOM      7  C   UNL     1       0.014   0.014   0.021  0.00  0.00    +0.144 C 
ATOM      8  H   UNL     1       3.139   2.060   0.059  0.00  0.00    +0.156 HD
ATOM      9  H   UNL     1       1.449  -1.565  -0.119  0.00  0.00    +0.151 HD
ENDROOT
BRANCH   7  10
ATOM     10  C   UNL     1      -0.690  -0.554   1.226  0.00  0.00    -0.020 A 
ATOM     11  C   UNL     1       0.024  -0.830   2.377  0.00  0.00    +0.006 A 
ATOM     12  C   UNL     1      -0.623  -1.346   3.484  0.00  0.00    +0.004 A 
ATOM     13  C   UNL     1      -1.982  -1.597   3.437  0.00  0.00    -0.050 A 
ATOM     14  C   UNL     1      -2.695  -1.325   2.284  0.00  0.00    +0.007 A 
ATOM     15  C   UNL     1      -2.049  -0.804   1.178  0.00  0.00    -0.045 A 
ATOM     16  C   UNL     1      -2.826  -0.508  -0.079  0.00  0.00    +0.044 C 
ATOM     17  C   UNL     1      -2.686  -2.165   4.641  0.00  0.00    +0.044 C 
ENDBRANCH   7  10
BRANCH   1  18
ATOM     18  C   UNL     1      -1.276   2.209   0.189  0.00  0.00    +0.339 C 
ATOM     19  O   UNL     1      -1.865   2.291   1.251  0.00  0.00    -0.245 OA
BRANCH  18  20
ATOM     20  O   UNL     1      -1.802   2.772  -0.919  0.00  0.00    -0.462 OA
BRANCH  20  22
ATOM     21  C   UNL     1      -3.499   4.004  -2.120  0.00  0.00    +0.048 C 
ATOM     22  C   UNL     1      -2.992   3.546  -0.751  0.00  0.00    +0.229 C 
ENDBRANCH  20  22
ENDBRANCH  18  20
ENDBRANCH   1  18
BRANCH   2  23
ATOM     23  C   UNL     1       1.122   3.701   0.220  0.00  0.00    +0.127 C 
BRANCH  23  24
ATOM     24  S   UNL     1       1.595   4.205   1.897  0.00  0.00    -0.091 S 
BRANCH  24  25
ATOM     25  C   UNL     1       1.539   5.965   1.845  0.00  0.00    +0.160 A 
ATOM     26  N   UNL     1       1.229   6.762   0.841  0.00  0.00    -0.133 NA
ATOM     27  N   UNL     1       1.247   8.126   1.020  0.00  0.00    -0.125 NA
ATOM     28  C   UNL     1       1.575   8.630   2.193  0.00  0.00    +0.180 A 
ATOM     29  S   UNL     1       1.878   7.147   3.141  0.00  0.00    -0.025 S 
ATOM     30  N   UNL     1       1.657   9.960   2.589  0.00  0.00    -0.336 N 
ATOM     31  H   UNL     1       1.457  10.668   1.956  0.00  0.00    +0.144 HD
ATOM     32  H   UNL     1       1.915  10.181   3.497  0.00  0.00    +0.144 HD
ENDBRANCH  24  25
ENDBRANCH  23  24
ENDBRANCH   2  23
TORSDOF 7
