REMARK  Name = ZINC16516360
REMARK  12 active torsions:
REMARK  status: ('A' for Active; 'I' for Inactive)
REMARK    1  A    between atoms: C_1  and  C_2
REMARK    2  A    between atoms: C_5  and  C_8
REMARK    3  A    between atoms: C_8  and  C_9
REMARK    4  A    between atoms: N_14  and  C_15
REMARK    5  A    between atoms: N_14  and  C_22
REMARK    6  A    between atoms: C_15  and  C_16
REMARK    7  A    between atoms: C_22  and  C_23
REMARK    8  A    between atoms: N_25  and  C_26
REMARK    9  A    between atoms: C_26  and  C_27
REMARK   10  A    between atoms: C_27  and  C_28
REMARK   11  A    between atoms: C_28  and  N_72
REMARK   12  A    between atoms: C_33  and  C_35
REMARK                            x       y       z     vdW  Elec       q    Type
REMARK                         _______ _______ _______ _____ _____    ______ ____
ROOT
ATOM      1  C   UNL     1       1.522  12.409   3.790  0.00  0.00    +0.145 A 
ATOM      2  N   UNL     1       1.696  11.578   2.790  0.00  0.00    -0.208 NA
ATOM      3  C   UNL     1       1.708  12.063   1.555  0.00  0.00    +0.181 A 
ATOM      4  S   UNL     1       1.448  13.754   1.845  0.00  0.00    +0.049 S 
ATOM      5  N   UNL     1       1.353  13.688   3.553  0.00  0.00    -0.192 NA
ATOM      6  N   UNL     1       1.877  11.396   0.355  0.00  0.00    -0.295 N 
ENDROOT
BRANCH   1   7
ATOM      7  C   UNL     1       1.509  11.895   5.207  0.00  0.00    +0.112 C 
BRANCH   7  12
ATOM      8  C   UNL     1      -3.890  10.464   6.687  0.00  0.00    +0.044 C 
ATOM      9  C   UNL     1      -2.482  10.837   6.302  0.00  0.00    -0.050 A 
ATOM     10  C   UNL     1      -1.652   9.896   5.722  0.00  0.00    +0.003 A 
ATOM     11  C   UNL     1      -0.360  10.238   5.368  0.00  0.00    +0.004 A 
ATOM     12  C   UNL     1       0.101  11.522   5.593  0.00  0.00    -0.040 A 
ATOM     13  C   UNL     1      -0.728  12.461   6.177  0.00  0.00    +0.004 A 
ATOM     14  C   UNL     1      -2.021  12.120   6.527  0.00  0.00    +0.003 A 
ENDBRANCH   7  12
ENDBRANCH   1   7
BRANCH   6  15
ATOM     15  C   UNL     1       1.848  12.140  -0.906  0.00  0.00    +0.142 C 
BRANCH  15  16
ATOM     16  C   UNL     1       0.434  12.195  -1.425  0.00  0.00    -0.030 A 
ATOM     17  C   UNL     1      -0.030  11.206  -2.272  0.00  0.00    +0.005 A 
ATOM     18  C   UNL     1      -1.329  11.253  -2.743  0.00  0.00    +0.000 A 
ATOM     19  C   UNL     1      -2.160  12.295  -2.377  0.00  0.00    +0.000 A 
ATOM     20  C   UNL     1      -1.694  13.287  -1.535  0.00  0.00    +0.000 A 
ATOM     21  C   UNL     1      -0.397  13.237  -1.059  0.00  0.00    +0.005 A 
ENDBRANCH  15  16
ENDBRANCH   6  15
BRANCH   6  22
ATOM     22  C   UNL     1       2.085   9.946   0.345  0.00  0.00    +0.203 C 
BRANCH  22  23
ATOM     23  C   UNL     1       0.753   9.248   0.256  0.00  0.00    +0.230 C 
ATOM     24  O   UNL     1      -0.270   9.898   0.205  0.00  0.00    -0.274 OA
ATOM     25  N   UNL     1       0.697   7.902   0.232  0.00  0.00    -0.314 N 
ATOM     26  H   UNL     1       1.516   7.382   0.273  0.00  0.00    +0.149 HD
BRANCH  25  27
ATOM     27  C   UNL     1      -0.598   7.223   0.145  0.00  0.00    +0.102 C 
BRANCH  27  28
ATOM     28  C   UNL     1      -0.381   5.708   0.135  0.00  0.00    +0.000 C 
BRANCH  28  29
ATOM     29  C   UNL     1      -1.734   5.000   0.044  0.00  0.00    -0.077 C 
BRANCH  29  36
ATOM     30  C   UNL     1      -0.826   3.122  -1.185  0.00  0.00    -0.078 C 
ATOM     31  C   UNL     1      -0.756   1.594  -1.230  0.00  0.00    -0.019 C 
ATOM     32  C   UNL     1      -0.013   1.086   0.008  0.00  0.00    -0.003 C 
ATOM     33  C   UNL     1      -0.732   1.581   1.266  0.00  0.00    -0.016 C 
ATOM     34  C   UNL     1      -0.804   3.109   1.238  0.00  0.00    -0.072 C 
ATOM     35  C   UNL     1      -1.542   3.608   2.482  0.00  0.00    -0.013 C 
ATOM     36  N   UNL     1      -1.552   3.533   0.035  0.00  0.00    +0.381 N 
ATOM     37  H   UNL     1      -2.475   3.083   0.041  0.00  0.00    -0.081 HD
ENDBRANCH  29  36
ENDBRANCH  28  29
ENDBRANCH  27  28
ENDBRANCH  25  27
ENDBRANCH  22  23
ENDBRANCH   6  22
TORSDOF 10
