REMARK  Name = ZINC39939638
REMARK  9 active torsions:
REMARK  status: ('A' for Active; 'I' for Inactive)
REMARK    1  A    between atoms: C_1  and  C_2
REMARK    2  A    between atoms: C_2  and  C_3
REMARK    3  A    between atoms: C_6  and  C_15
REMARK    4  A    between atoms: C_13  and  O_14
REMARK    5  A    between atoms: C_15  and  O_16
REMARK    6  A    between atoms: O_16  and  C_17
REMARK    7  A    between atoms: C_17  and  C_19
REMARK    8  A    between atoms: C_19  and  C_20
REMARK    9  A    between atoms: C_20  and  C_21
REMARK                            x       y       z     vdW  Elec       q    Type
REMARK                         _______ _______ _______ _____ _____    ______ ____
ROOT
ATOM      1  C   UNL     1       6.976  -2.305  -0.136  0.00  0.00    +0.308 C 
ATOM      2  O   UNL     1       6.583  -1.952   0.950  0.00  0.00    -0.251 OA
ENDROOT
BRANCH   1   3
ATOM      3  O   UNL     1       6.155  -2.257  -1.196  0.00  0.00    -0.460 OA
BRANCH   3   4
ATOM      4  C   UNL     1       4.828  -1.777  -0.967  0.00  0.00    +0.268 C 
BRANCH   4   8
ATOM      5  C   UNL     1       0.707  -0.490  -1.238  0.00  0.00    -0.005 A 
ATOM      6  C   UNL     1       2.008  -0.898  -1.162  0.00  0.00    +0.019 A 
ATOM      7  C   UNL     1       2.663  -1.349  -2.313  0.00  0.00    +0.024 A 
ATOM      8  C   UNL     1       4.057  -1.794  -2.262  0.00  0.00    +0.007 A 
ATOM      9  C   UNL     1       4.637  -2.221  -3.414  0.00  0.00    +0.099 A 
ATOM     10  C   UNL     1       3.895  -2.227  -4.613  0.00  0.00    +0.338 A 
ATOM     11  O   UNL     1       4.428  -2.613  -5.638  0.00  0.00    -0.245 OA
ATOM     12  O   UNL     1       2.617  -1.819  -4.653  0.00  0.00    -0.422 OA
ATOM     13  C   UNL     1       1.982  -1.382  -3.545  0.00  0.00    +0.143 A 
ATOM     14  C   UNL     1       0.661  -0.963  -3.604  0.00  0.00    +0.092 A 
ATOM     15  C   UNL     1       0.026  -0.525  -2.453  0.00  0.00    +0.124 A 
BRANCH   5  17
ATOM     16  C   UNL     1      -0.019   1.526   0.010  0.00  0.00    +0.009 C 
ATOM     17  C   UNL     1       0.002  -0.004   0.002  0.00  0.00    +0.035 C 
ENDBRANCH   5  17
BRANCH  15  18
ATOM     18  O   UNL     1      -1.268  -0.121  -2.510  0.00  0.00    -0.506 OA
ATOM     19  H   UNL     1      -1.379   0.820  -2.700  0.00  0.00    +0.292 HD
ENDBRANCH  15  18
ENDBRANCH   4   8
ENDBRANCH   3   4
ENDBRANCH   1   3
BRANCH   1  20
ATOM     20  C   UNL     1       8.390  -2.801  -0.301  0.00  0.00    +0.128 C 
BRANCH  20  21
ATOM     21  C   UNL     1       9.107  -2.755   1.050  0.00  0.00    +0.085 C 
BRANCH  21  22
ATOM     22  C   UNL     1      10.521  -3.250   0.885  0.00  0.00    +0.124 C 
ATOM     23  N   UNL     1      10.915  -3.620  -0.310  0.00  0.00    -0.161 NA
ATOM     24  C   UNL     1      12.147  -4.076  -0.557  0.00  0.00    +0.271 C 
ATOM     25  O   UNL     1      12.481  -4.408  -1.682  0.00  0.00    -0.268 OA
ATOM     26  C   UNL     1      13.104  -4.166   0.592  0.00  0.00    +0.071 C 
ATOM     27  C   UNL     1      14.359  -4.650   0.587  0.00  0.00    -0.042 C 
ATOM     28  C   UNL     1      14.990  -5.368  -0.604  0.00  0.00    +0.033 C 
ATOM     29  C   UNL     1      15.478  -6.730  -0.090  0.00  0.00    +0.004 C 
ATOM     30  C   UNL     1      16.371  -6.545   1.134  0.00  0.00    +0.002 C 
ATOM     31  C   UNL     1      15.586  -5.924   2.293  0.00  0.00    +0.019 C 
ATOM     32  C   UNL     1      15.147  -4.515   1.885  0.00  0.00    +0.079 C 
ATOM     33  S   UNL     1      13.868  -3.897   3.044  0.00  0.00    -0.097 S 
ATOM     34  C   UNL     1      12.541  -3.710   1.879  0.00  0.00    +0.111 C 
ATOM     35  N   UNL     1      11.303  -3.284   1.953  0.00  0.00    -0.227 NA
ENDBRANCH  21  22
ENDBRANCH  20  21
ENDBRANCH   1  20
TORSDOF 8
