REMARK  Name = ZINC34791505
REMARK  11 active torsions:
REMARK  status: ('A' for Active; 'I' for Inactive)
REMARK    1  A    between atoms: C_1  and  C_2
REMARK    2  A    between atoms: C_2  and  C_3
REMARK    3  A    between atoms: C_2  and  C_4
REMARK    4  A    between atoms: C_2  and  N_5
REMARK    5  A    between atoms: C_6  and  C_8
REMARK    6  A    between atoms: C_8  and  C_10
REMARK    7  A    between atoms: C_8  and  N_16
REMARK    8  A    between atoms: C_22  and  C_31
REMARK    9  A    between atoms: N_27  and  C_28
REMARK   10  A    between atoms: C_28  and  C_29
REMARK   11  A    between atoms: C_36  and  C_37
REMARK                            x       y       z     vdW  Elec       q    Type
REMARK                         _______ _______ _______ _____ _____    ______ ____
ROOT
ATOM      1  N   UNL     1       3.235  -1.559  -1.744  0.00  0.00    -0.277 N 
ATOM      2  C   UNL     1       3.468  -0.457  -2.689  0.00  0.00    +0.160 C 
ATOM      3  C   UNL     1       4.904  -0.043  -2.457  0.00  0.00    +0.043 C 
ATOM      4  C   UNL     1       5.379  -0.849  -1.485  0.00  0.00    +0.058 C 
ATOM      5  C   UNL     1       4.378  -1.747  -1.061  0.00  0.00    +0.247 C 
ATOM      6  O   UNL     1       4.530  -2.585  -0.191  0.00  0.00    -0.270 OA
ATOM      7  C   UNL     1       6.816  -0.653  -1.047  0.00  0.00    +0.142 C 
ATOM      8  N   UNL     1       7.580   0.409  -1.723  0.00  0.00    -0.288 N 
ATOM      9  C   UNL     1       6.965   1.134  -2.679  0.00  0.00    +0.307 C 
ATOM     10  O   UNL     1       7.588   2.012  -3.243  0.00  0.00    -0.252 OA
ATOM     11  N   UNL     1       5.690   0.917  -3.027  0.00  0.00    -0.253 N 
ATOM     12  H   UNL     1       8.505   0.583  -1.486  0.00  0.00    +0.151 HD
ENDROOT
BRANCH   7  13
ATOM     13  C   UNL     1       6.815  -0.354   0.430  0.00  0.00    -0.011 A 
ATOM     14  C   UNL     1       6.336   0.858   0.890  0.00  0.00    +0.006 A 
ATOM     15  C   UNL     1       6.335   1.131   2.245  0.00  0.00    +0.000 A 
ATOM     16  C   UNL     1       6.812   0.192   3.140  0.00  0.00    +0.001 A 
ATOM     17  C   UNL     1       7.291  -1.020   2.680  0.00  0.00    +0.013 A 
ATOM     18  C   UNL     1       7.288  -1.295   1.325  0.00  0.00    +0.060 A 
BRANCH  18  19
ATOM     19  C   UNL     1       7.804  -2.619   0.825  0.00  0.00    +0.418 C 
ATOM     20  F   UNL     1       8.127  -3.436   1.913  0.00  0.00    -0.166 F 
ATOM     21  F   UNL     1       6.819  -3.242   0.051  0.00  0.00    -0.166 F 
ATOM     22  F   UNL     1       8.947  -2.409   0.044  0.00  0.00    -0.166 F 
ENDBRANCH  18  19
ENDBRANCH   7  13
BRANCH   1  23
ATOM     23  C   UNL     1       1.988  -2.308  -1.574  0.00  0.00    +0.193 C 
BRANCH  23  24
ATOM     24  C   UNL     1       1.472  -2.114  -0.171  0.00  0.00    -0.018 A 
ATOM     25  C   UNL     1       1.445  -0.849   0.386  0.00  0.00    +0.006 A 
ATOM     26  C   UNL     1       0.972  -0.670   1.673  0.00  0.00    +0.000 A 
ATOM     27  C   UNL     1       0.525  -1.756   2.402  0.00  0.00    +0.000 A 
ATOM     28  C   UNL     1       0.551  -3.021   1.844  0.00  0.00    +0.000 A 
ATOM     29  C   UNL     1       1.020  -3.199   0.556  0.00  0.00    +0.006 A 
ENDBRANCH  23  24
BRANCH  23  31
ATOM     30  N   UNL     1      -0.268  -2.356  -2.587  0.00  0.00    -0.309 N 
ATOM     31  C   UNL     1       0.963  -1.809  -2.560  0.00  0.00    +0.239 C 
ATOM     32  O   UNL     1       1.247  -0.915  -3.329  0.00  0.00    -0.273 OA
ATOM     33  H   UNL     1      -0.495  -3.071  -1.972  0.00  0.00    +0.149 HD
BRANCH  30  35
ATOM     34  C   UNL     1      -0.741  -2.068  -4.969  0.00  0.00    +0.031 C 
ATOM     35  C   UNL     1      -1.264  -1.870  -3.545  0.00  0.00    +0.026 C 
ATOM     36  C   UNL     1      -1.526  -0.383  -3.300  0.00  0.00    +0.031 C 
ATOM     37  C   UNL     1      -2.567  -2.653  -3.367  0.00  0.00    +0.031 C 
ENDBRANCH  30  35
ENDBRANCH  23  31
ENDBRANCH   1  23
BRANCH  11  38
ATOM     38  C   UNL     1       5.107   1.756  -4.077  0.00  0.00    +0.141 C 
BRANCH  38  39
ATOM     39  C   UNL     1       4.480   2.977  -3.455  0.00  0.00    -0.015 C 
ATOM     40  C   UNL     1       4.834   4.172  -3.857  0.00  0.00    +0.005 C 
ENDBRANCH  38  39
ENDBRANCH  11  38
TORSDOF 8
