REMARK  Name = ZINC43577302
REMARK  2 active torsions:
REMARK  status: ('A' for Active; 'I' for Inactive)
REMARK    1  A    between atoms: C_1  and  C_2
REMARK    2  A    between atoms: C_18  and  C_21
REMARK                            x       y       z     vdW  Elec       q    Type
REMARK                         _______ _______ _______ _____ _____    ______ ____
ROOT
ATOM      1  C   UNL     1      -0.015   1.526   0.007  0.00  0.00    +0.008 C 
ATOM      2  C   UNL     1       0.005  -0.003   0.001  0.00  0.00    -0.009 C 
ATOM      3  C   UNL     1       0.722  -0.502  -1.257  0.00  0.00    +0.010 C 
ATOM      4  C   UNL     1       0.538  -2.014  -1.404  0.00  0.00    +0.056 C 
ATOM      5  C   UNL     1       0.952  -2.684  -0.101  0.00  0.00    +0.054 A 
ATOM      6  C   UNL     1       1.036  -1.967   1.048  0.00  0.00    +0.015 A 
ATOM      7  S   UNL     1       1.545  -3.186   2.228  0.00  0.00    -0.057 S 
ATOM      8  C   UNL     1       1.609  -4.499   1.173  0.00  0.00    +0.166 A 
ATOM      9  N   UNL     1       1.256  -3.974   0.021  0.00  0.00    -0.229 NA
ATOM     10  N   UNL     1       1.951  -5.817   1.453  0.00  0.00    -0.248 N 
ATOM     11  C   UNL     1       1.945  -6.738   0.470  0.00  0.00    +0.308 C 
ATOM     12  O   UNL     1       1.553  -6.439  -0.642  0.00  0.00    -0.252 OA
ATOM     13  N   UNL     1       2.373  -7.992   0.718  0.00  0.00    -0.281 N 
ATOM     14  C   UNL     1       2.738  -8.412   2.081  0.00  0.00    +0.137 C 
ATOM     15  C   UNL     1       2.003  -9.719   2.397  0.00  0.00    +0.179 C 
ATOM     16  O   UNL     1       2.253 -10.664   1.353  0.00  0.00    -0.374 OA
ATOM     17  C   UNL     1       1.766 -10.261   0.071  0.00  0.00    +0.133 C 
ATOM     18  C   UNL     1       2.483  -8.983  -0.364  0.00  0.00    +0.140 C 
ATOM     19  C   UNL     1       2.031 -11.371  -0.948  0.00  0.00    +0.039 C 
ATOM     20  C   UNL     1       0.758  -0.514   1.240  0.00  0.00    +0.047 C 
ATOM     21  H   UNL     1       2.194  -6.073   2.356  0.00  0.00    +0.158 HD
ENDROOT
TORSDOF 0
