REMARK  Name = ZINC06443755
REMARK  10 active torsions:
REMARK  status: ('A' for Active; 'I' for Inactive)
REMARK    1  A    between atoms: C_1  and  C_2
REMARK    2  A    between atoms: C_12  and  C_14
REMARK    3  A    between atoms: C_14  and  C_16
REMARK    4  A    between atoms: C_14  and  N_67
REMARK    5  A    between atoms: N_20  and  C_21
REMARK    6  A    between atoms: C_21  and  C_22
REMARK    7  A    between atoms: C_21  and  C_23
REMARK    8  A    between atoms: C_21  and  C_24
REMARK    9  A    between atoms: N_27  and  C_30
REMARK   10  A    between atoms: C_33  and  N_36
REMARK                            x       y       z     vdW  Elec       q    Type
REMARK                         _______ _______ _______ _____ _____    ______ ____
ROOT
ATOM      1  C   UNL     1       0.000   1.054  -0.086  0.00  0.00    +0.039 C 
ENDROOT
BRANCH   1  13
ATOM      2  C   UNL     1      -3.370   5.207   3.736  0.00  0.00    +0.046 C 
ATOM      3  C   UNL     1      -3.116   3.727   3.857  0.00  0.00    -0.026 A 
ATOM      4  C   UNL     1      -3.638   3.020   4.919  0.00  0.00    +0.005 A 
ATOM      5  C   UNL     1      -3.411   1.656   5.042  0.00  0.00    +0.001 A 
ATOM      6  C   UNL     1      -2.666   0.988   4.111  0.00  0.00    +0.010 A 
ATOM      7  C   UNL     1      -2.127   1.685   3.025  0.00  0.00    -0.001 A 
ATOM      8  C   UNL     1      -2.355   3.068   2.897  0.00  0.00    +0.052 A 
ATOM      9  N   UNL     1      -1.822   3.750   1.823  0.00  0.00    -0.322 N 
ATOM     10  H   UNL     1      -1.980   4.704   1.737  0.00  0.00    +0.169 HD
ATOM     11  C   UNL     1      -1.087   3.113   0.895  0.00  0.00    +0.251 A 
ATOM     12  O   UNL     1      -0.631   3.748  -0.040  0.00  0.00    -0.268 OA
ATOM     13  C   UNL     1      -0.829   1.728   0.978  0.00  0.00    +0.011 A 
ATOM     14  C   UNL     1      -1.329   1.000   2.006  0.00  0.00    +0.017 A 
ENDBRANCH   1  13
BRANCH   1  20
ATOM     15  C   UNL     1      -1.990   0.888  -1.455  0.00  0.00    -0.058 C 
ATOM     16  C   UNL     1      -2.586   1.254  -2.817  0.00  0.00    +0.086 C 
ATOM     17  N   UNL     1      -1.802   0.611  -3.880  0.00  0.00    -0.333 N 
ATOM     18  C   UNL     1      -0.399   1.043  -3.831  0.00  0.00    +0.086 C 
ATOM     19  C   UNL     1       0.197   0.677  -2.470  0.00  0.00    -0.058 C 
ATOM     20  N   UNL     1      -0.586   1.348  -1.411  0.00  0.00    +0.391 N 
ATOM     21  H   UNL     1      -0.562   2.362  -1.569  0.00  0.00    -0.080 HD
BRANCH  17  22
ATOM     22  C   UNL     1      -2.360   0.864  -5.136  0.00  0.00    +0.030 A 
ATOM     23  C   UNL     1      -1.594   1.457  -6.131  0.00  0.00    +0.025 A 
ATOM     24  C   UNL     1      -2.147   1.701  -7.373  0.00  0.00    +0.034 A 
ATOM     25  C   UNL     1      -3.465   1.365  -7.623  0.00  0.00    +0.126 A 
ATOM     26  C   UNL     1      -4.232   0.779  -6.632  0.00  0.00    +0.034 A 
ATOM     27  C   UNL     1      -3.684   0.527  -5.390  0.00  0.00    +0.025 A 
BRANCH  25  28
ATOM     28  N   UNL     1      -4.056   1.632  -8.953  0.00  0.00    +0.056 N 
ATOM     29  O   UNL     1      -5.216   1.336  -9.175  0.00  0.00    -0.126 OA
ATOM     30  O   UNL     1      -3.382   2.148  -9.826  0.00  0.00    -0.126 OA
ENDBRANCH  25  28
ENDBRANCH  17  22
ENDBRANCH   1  20
BRANCH   1  31
ATOM     31  C   UNL     1       1.406   1.594  -0.043  0.00  0.00    +0.143 A 
ATOM     32  N   UNL     1       1.794   2.797  -0.389  0.00  0.00    -0.115 NA
ATOM     33  N   UNL     1       3.067   2.873  -0.207  0.00  0.00    -0.023 NA
ATOM     34  N   UNL     1       3.503   1.746   0.237  0.00  0.00    -0.043 NA
ATOM     35  N   UNL     1       2.510   0.932   0.352  0.00  0.00    -0.225 N 
BRANCH  35  36
ATOM     36  C   UNL     1       2.570  -0.454   0.825  0.00  0.00    +0.059 C 
ATOM     37  C   UNL     1       2.128  -1.395  -0.297  0.00  0.00    +0.036 C 
ATOM     38  C   UNL     1       4.005  -0.789   1.237  0.00  0.00    +0.036 C 
ATOM     39  C   UNL     1       1.641  -0.623   2.029  0.00  0.00    +0.036 C 
ENDBRANCH  35  36
ENDBRANCH   1  31
TORSDOF 6
