REMARK  Name = ZINC59261419
REMARK  13 active torsions:
REMARK  status: ('A' for Active; 'I' for Inactive)
REMARK    1  A    between atoms: C_1  and  C_2
REMARK    2  A    between atoms: C_2  and  C_4
REMARK    3  A    between atoms: C_2  and  S_12
REMARK    4  A    between atoms: N_6  and  N_7
REMARK    5  A    between atoms: C_8  and  C_9
REMARK    6  A    between atoms: C_9  and  C_10
REMARK    7  A    between atoms: C_9  and  C_11
REMARK    8  A    between atoms: S_12  and  C_13
REMARK    9  A    between atoms: C_16  and  C_21
REMARK   10  A    between atoms: N_17  and  C_18
REMARK   11  A    between atoms: C_18  and  C_19
REMARK   12  A    between atoms: C_21  and  N_22
REMARK   13  A    between atoms: N_22  and  C_23
REMARK                            x       y       z     vdW  Elec       q    Type
REMARK                         _______ _______ _______ _____ _____    ______ ____
ROOT
ATOM      1  C   UNL     1      -0.189  -0.057  -2.809  0.00  0.00    +0.193 A 
ATOM      2  N   UNL     1      -1.312   0.614  -2.696  0.00  0.00    -0.122 NA
ATOM      3  N   UNL     1      -1.808   0.835  -3.860  0.00  0.00    -0.132 NA
ATOM      4  C   UNL     1      -1.040   0.322  -4.779  0.00  0.00    +0.152 A 
ATOM      5  N   UNL     1       0.022  -0.259  -4.143  0.00  0.00    -0.301 N 
ENDROOT
BRANCH   1   6
ATOM      6  S   UNL     1       0.851  -0.589  -1.490  0.00  0.00    -0.073 S 
BRANCH   6   8
ATOM      7  C   UNL     1      -0.019   1.526   0.010  0.00  0.00    +0.029 C 
ATOM      8  C   UNL     1       0.002  -0.004   0.002  0.00  0.00    +0.139 C 
BRANCH   8   9
ATOM      9  C   UNL     1       0.731  -0.503   1.223  0.00  0.00    +0.245 C 
ATOM     10  O   UNL     1       1.911  -0.775   1.156  0.00  0.00    -0.273 OA
ATOM     11  N   UNL     1       0.071  -0.647   2.389  0.00  0.00    -0.206 N 
ATOM     12  H   UNL     1      -0.872  -0.430   2.443  0.00  0.00    +0.177 HD
BRANCH  11  13
ATOM     13  N   UNL     1       0.749  -1.111   3.525  0.00  0.00    -0.192 NA
ATOM     14  C   UNL     1       0.123  -1.248   4.633  0.00  0.00    +0.106 C 
BRANCH  14  15
ATOM     15  C   UNL     1       0.852  -1.748   5.853  0.00  0.00    +0.026 C 
ATOM     16  C   UNL     1       0.778  -0.692   6.958  0.00  0.00    +0.013 C 
ATOM     17  C   UNL     1       0.201  -3.043   6.342  0.00  0.00    +0.013 C 
ENDBRANCH  14  15
ENDBRANCH  11  13
ENDBRANCH   8   9
ENDBRANCH   6   8
ENDBRANCH   1   6
BRANCH   5  18
ATOM     18  C   UNL     1       1.151  -0.957  -4.763  0.00  0.00    +0.152 C 
BRANCH  18  19
ATOM     19  C   UNL     1       0.821  -2.420  -4.905  0.00  0.00    -0.013 C 
ATOM     20  C   UNL     1       0.898  -2.999  -6.078  0.00  0.00    +0.005 C 
ENDBRANCH  18  19
ENDBRANCH   5  18
BRANCH   4  21
ATOM     21  C   UNL     1      -1.274   0.367  -6.267  0.00  0.00    +0.178 C 
BRANCH  21  22
ATOM     22  N   UNL     1      -0.647   1.568  -6.824  0.00  0.00    -0.337 N 
ATOM     23  H   UNL     1      -0.174   2.183  -6.241  0.00  0.00    +0.147 HD
BRANCH  22  24
ATOM     24  C   UNL     1      -0.731   1.829  -8.194  0.00  0.00    +0.028 A 
ATOM     25  C   UNL     1      -1.413   0.952  -9.028  0.00  0.00    +0.024 A 
ATOM     26  C   UNL     1      -1.494   1.212 -10.382  0.00  0.00    +0.016 A 
ATOM     27  C   UNL     1      -0.896   2.344 -10.908  0.00  0.00    +0.013 A 
ATOM     28  C   UNL     1      -0.216   3.218 -10.079  0.00  0.00    +0.016 A 
ATOM     29  C   UNL     1      -0.137   2.967  -8.723  0.00  0.00    +0.024 A 
ATOM     30  I   UNL     1      -1.020   2.733 -12.962  0.00  0.00    -0.044 I 
ENDBRANCH  22  24
ENDBRANCH  21  22
ENDBRANCH   4  21
TORSDOF 10
