REMARK  Name = ZINC11288036
REMARK  4 active torsions:
REMARK  status: ('A' for Active; 'I' for Inactive)
REMARK    1  A    between atoms: C_1  and  C_2
REMARK    2  A    between atoms: C_9  and  C_11
REMARK    3  A    between atoms: C_11  and  N_12
REMARK    4  A    between atoms: C_14  and  N_19
REMARK                            x       y       z     vdW  Elec       q    Type
REMARK                         _______ _______ _______ _____ _____    ______ ____
ROOT
ATOM      1  C   UNL     1       3.668  -0.681  -0.036  0.00  0.00    +0.181 C 
ENDROOT
BRANCH   1  10
ATOM      2  C   UNL     1       3.378  -3.872  -4.606  0.00  0.00    +0.047 C 
ATOM      3  C   UNL     1       4.219  -2.622  -4.584  0.00  0.00    -0.008 A 
ATOM      4  C   UNL     1       4.926  -2.249  -5.685  0.00  0.00    +0.008 A 
ATOM      5  C   UNL     1       5.706  -1.081  -5.649  0.00  0.00    +0.018 A 
ATOM      6  C   UNL     1       5.755  -0.330  -4.529  0.00  0.00    +0.093 A 
ATOM      7  N   UNL     1       5.051  -0.692  -3.417  0.00  0.00    -0.306 N 
ATOM      8  C   UNL     1       4.282  -1.826  -3.422  0.00  0.00    +0.141 A 
ATOM      9  N   UNL     1       3.718  -1.944  -2.228  0.00  0.00    -0.231 NA
ATOM     10  C   UNL     1       4.094  -0.917  -1.462  0.00  0.00    +0.080 A 
ATOM     11  C   UNL     1       4.925  -0.128  -2.177  0.00  0.00    +0.117 A 
ENDBRANCH   1  10
BRANCH   1  12
ATOM     12  N   UNL     1       2.385   0.027  -0.021  0.00  0.00    -0.307 N 
ATOM     13  C   UNL     1       2.369   1.385  -0.013  0.00  0.00    +0.122 A 
ATOM     14  C   UNL     1       1.197   2.062   0.002  0.00  0.00    +0.142 A 
ATOM     15  C   UNL     1      -0.016   1.360   0.009  0.00  0.00    +0.039 A 
ATOM     16  C   UNL     1       0.002  -0.004   0.002  0.00  0.00    +0.072 A 
ATOM     17  C   UNL     1       1.237  -0.675  -0.013  0.00  0.00    +0.252 A 
ATOM     18  O   UNL     1       1.268  -1.895  -0.020  0.00  0.00    -0.268 OA
BRANCH  14  19
ATOM     19  N   UNL     1       1.197   3.542   0.009  0.00  0.00    +0.058 N 
ATOM     20  O   UNL     1       2.251   4.151   0.002  0.00  0.00    -0.126 OA
ATOM     21  O   UNL     1       0.142   4.150   0.022  0.00  0.00    -0.126 OA
ENDBRANCH  14  19
ENDBRANCH   1  12
TORSDOF 3
