REMARK  Name = ZINC66403457
REMARK  7 active torsions:
REMARK  status: ('A' for Active; 'I' for Inactive)
REMARK    1  A    between atoms: C_1  and  C_2
REMARK    2  A    between atoms: C_7  and  C_8
REMARK    3  A    between atoms: C_8  and  C_10
REMARK    4  A    between atoms: C_8  and  N_12
REMARK    5  A    between atoms: C_13  and  C_15
REMARK    6  A    between atoms: C_18  and  C_24
REMARK    7  A    between atoms: C_19  and  N_21
REMARK                            x       y       z     vdW  Elec       q    Type
REMARK                         _______ _______ _______ _____ _____    ______ ____
ROOT
ATOM      1  N   UNL     1       0.521  -1.010   3.540  0.00  0.00    -0.292 N 
ATOM      2  C   UNL     1       1.249  -0.376   4.480  0.00  0.00    +0.245 C 
ATOM      3  O   UNL     1       1.424   0.824   4.407  0.00  0.00    -0.270 OA
ATOM      4  H   UNL     1       0.381  -1.968   3.599  0.00  0.00    +0.151 HD
ENDROOT
BRANCH   2   5
ATOM      5  C   UNL     1       1.834  -1.141   5.602  0.00  0.00    +0.039 A 
ATOM      6  C   UNL     1       1.639  -2.521   5.687  0.00  0.00    +0.013 A 
ATOM      7  C   UNL     1       2.188  -3.229   6.735  0.00  0.00    +0.006 A 
ATOM      8  C   UNL     1       2.930  -2.575   7.703  0.00  0.00    -0.020 A 
ATOM      9  C   UNL     1       3.127  -1.207   7.625  0.00  0.00    +0.130 A 
ATOM     10  C   UNL     1       2.588  -0.488   6.578  0.00  0.00    +0.046 A 
ATOM     11  C   UNL     1       3.526  -3.354   8.846  0.00  0.00    +0.046 C 
BRANCH   9  12
ATOM     12  N   UNL     1       3.921  -0.515   8.665  0.00  0.00    +0.057 N 
ATOM     13  O   UNL     1       3.605   0.593   9.029  0.00  0.00    -0.126 OA
ATOM     14  O   UNL     1       4.887  -1.059   9.149  0.00  0.00    -0.126 OA
ENDBRANCH   9  12
ENDBRANCH   2   5
BRANCH   1  15
ATOM     15  C   UNL     1      -0.059  -0.252   2.428  0.00  0.00    +0.207 C 
BRANCH  15  22
ATOM     16  C   UNL     1      -0.129   0.830  -0.250  0.00  0.00    +0.044 C 
ATOM     17  C   UNL     1      -0.302  -0.650  -0.031  0.00  0.00    -0.045 A 
ATOM     18  C   UNL     1      -0.489  -1.492  -1.111  0.00  0.00    +0.004 A 
ATOM     19  C   UNL     1      -0.648  -2.850  -0.911  0.00  0.00    +0.000 A 
ATOM     20  C   UNL     1      -0.620  -3.367   0.371  0.00  0.00    +0.000 A 
ATOM     21  C   UNL     1      -0.432  -2.526   1.452  0.00  0.00    +0.007 A 
ATOM     22  C   UNL     1      -0.269  -1.168   1.250  0.00  0.00    -0.010 A 
ENDBRANCH  15  22
BRANCH  15  23
ATOM     23  C   UNL     1      -1.351   0.317   2.844  0.00  0.00    +0.090 C 
ATOM     24  N   UNL     1      -2.349   0.756   3.164  0.00  0.00    -0.194 NA
ENDBRANCH  15  23
ENDBRANCH   1  15
TORSDOF 5
