REMARK  Name = ZINC36579467
REMARK  16 active torsions:
REMARK  status: ('A' for Active; 'I' for Inactive)
REMARK    1  A    between atoms: C_1  and  C_2
REMARK    2  A    between atoms: C_2  and  C_3
REMARK    3  A    between atoms: C_3  and  C_4
REMARK    4  A    between atoms: C_4  and  N_5
REMARK    5  A    between atoms: C_6  and  C_8
REMARK    6  A    between atoms: C_8  and  C_10
REMARK    7  A    between atoms: C_8  and  N_17
REMARK    8  A    between atoms: C_15  and  O_16
REMARK    9  A    between atoms: N_17  and  C_36
REMARK   10  A    between atoms: C_18  and  C_20
REMARK   11  A    between atoms: C_26  and  O_28
REMARK   12  A    between atoms: O_28  and  C_29
REMARK   13  A    between atoms: C_29  and  C_30
REMARK   14  A    between atoms: C_36  and  C_37
REMARK   15  A    between atoms: C_36  and  C_38
REMARK   16  A    between atoms: C_36  and  C_39
REMARK                            x       y       z     vdW  Elec       q    Type
REMARK                         _______ _______ _______ _____ _____    ______ ____
ROOT
ATOM      1  N   UNL     1       2.136  -5.540  -4.545  0.00  0.00    -0.279 N 
ATOM      2  C   UNL     1       3.315  -6.132  -4.816  0.00  0.00    +0.238 C 
ATOM      3  O   UNL     1       4.213  -5.493  -5.323  0.00  0.00    -0.274 OA
ENDROOT
BRANCH   2   4
ATOM      4  C   UNL     1       3.519  -7.590  -4.491  0.00  0.00    +0.165 C 
ATOM      5  C   UNL     1       3.104  -8.460  -5.696  0.00  0.00    +0.033 C 
ATOM      6  C   UNL     1       4.172  -9.585  -5.697  0.00  0.00    +0.021 C 
ATOM      7  C   UNL     1       5.435  -8.816  -5.234  0.00  0.00    +0.112 C 
ATOM      8  N   UNL     1       4.943  -7.849  -4.231  0.00  0.00    -0.256 N 
ATOM      9  C   UNL     1       5.675  -7.296  -3.244  0.00  0.00    +0.404 C 
ATOM     10  O   UNL     1       5.161  -6.508  -2.475  0.00  0.00    -0.226 OA
BRANCH   9  11
ATOM     11  O   UNL     1       6.976  -7.616  -3.110  0.00  0.00    -0.445 OA
BRANCH  11  12
ATOM     12  C   UNL     1       7.691  -6.992  -2.041  0.00  0.00    +0.269 C 
BRANCH  12  13
ATOM     13  C   UNL     1       9.121  -7.468  -2.048  0.00  0.00    -0.010 A 
ATOM     14  C   UNL     1       9.478  -8.593  -1.329  0.00  0.00    +0.007 A 
ATOM     15  C   UNL     1      10.790  -9.030  -1.335  0.00  0.00    +0.000 A 
ATOM     16  C   UNL     1      11.744  -8.342  -2.061  0.00  0.00    +0.000 A 
ATOM     17  C   UNL     1      11.386  -7.217  -2.781  0.00  0.00    +0.000 A 
ATOM     18  C   UNL     1      10.074  -6.783  -2.778  0.00  0.00    +0.007 A 
ENDBRANCH  12  13
ENDBRANCH  11  12
ENDBRANCH   9  11
ENDBRANCH   2   4
BRANCH   1  19
ATOM     19  C   UNL     1       1.070  -6.298  -3.884  0.00  0.00    +0.030 C 
ATOM     20  C   UNL     1      -0.257  -5.553  -4.038  0.00  0.00    +0.031 C 
ATOM     21  C   UNL     1       0.956  -7.682  -4.526  0.00  0.00    +0.031 C 
ATOM     22  C   UNL     1       1.400  -6.452  -2.398  0.00  0.00    +0.031 C 
ENDBRANCH   1  19
BRANCH   1  23
ATOM     23  C   UNL     1       1.919  -4.138  -4.910  0.00  0.00    +0.196 C 
BRANCH  23  24
ATOM     24  C   UNL     1       2.914  -3.270  -4.183  0.00  0.00    +0.023 A 
ATOM     25  C   UNL     1       4.093  -3.815  -3.714  0.00  0.00    +0.009 A 
ATOM     26  C   UNL     1       5.006  -3.019  -3.047  0.00  0.00    +0.001 A 
ATOM     27  C   UNL     1       4.742  -1.677  -2.849  0.00  0.00    +0.004 A 
ATOM     28  C   UNL     1       3.564  -1.127  -3.317  0.00  0.00    +0.046 A 
ATOM     29  C   UNL     1       2.649  -1.922  -3.991  0.00  0.00    +0.122 A 
BRANCH  29  30
ATOM     30  O   UNL     1       1.492  -1.383  -4.457  0.00  0.00    -0.506 OA
ATOM     31  H   UNL     1       0.760  -1.414  -3.825  0.00  0.00    +0.292 HD
ENDBRANCH  29  30
ENDBRANCH  23  24
BRANCH  23  33
ATOM     32  N   UNL     1       1.838  -2.785  -6.979  0.00  0.00    -0.313 N 
ATOM     33  C   UNL     1       2.099  -3.973  -6.397  0.00  0.00    +0.238 C 
ATOM     34  O   UNL     1       2.478  -4.908  -7.069  0.00  0.00    -0.273 OA
ATOM     35  H   UNL     1       1.534  -2.038  -6.441  0.00  0.00    +0.149 HD
BRANCH  32  36
ATOM     36  C   UNL     1       2.013  -2.624  -8.425  0.00  0.00    +0.104 C 
BRANCH  36  37
ATOM     37  C   UNL     1       1.652  -1.193  -8.826  0.00  0.00    +0.018 C 
BRANCH  37  39
ATOM     38  C   UNL     1       1.474   0.407 -10.736  0.00  0.00    +0.004 C 
ATOM     39  C   UNL     1       1.834  -1.025 -10.335  0.00  0.00    -0.002 C 
ENDBRANCH  37  39
ENDBRANCH  36  37
ENDBRANCH  32  36
ENDBRANCH  23  33
ENDBRANCH   1  23
TORSDOF 12
