REMARK  Name = ZINC21355832
REMARK  12 active torsions:
REMARK  status: ('A' for Active; 'I' for Inactive)
REMARK    1  A    between atoms: C_1  and  C_2
REMARK    2  A    between atoms: C_2  and  C_3
REMARK    3  A    between atoms: C_2  and  C_4
REMARK    4  A    between atoms: C_4  and  N_5
REMARK    5  A    between atoms: C_6  and  N_32
REMARK    6  A    between atoms: C_7  and  N_14
REMARK    7  A    between atoms: N_14  and  C_15
REMARK    8  A    between atoms: C_15  and  C_16
REMARK    9  A    between atoms: C_16  and  C_17
REMARK   10  A    between atoms: C_16  and  C_18
REMARK   11  A    between atoms: C_19  and  C_21
REMARK   12  A    between atoms: C_21  and  C_22
REMARK                            x       y       z     vdW  Elec       q    Type
REMARK                         _______ _______ _______ _____ _____    ______ ____
ROOT
ATOM      1  N   UNL     1       0.944   9.359   1.757  0.00  0.00    -0.264 N 
ATOM      2  C   UNL     1       1.551   8.172   1.550  0.00  0.00    +0.224 C 
ATOM      3  O   UNL     1       1.808   7.811   0.420  0.00  0.00    -0.275 OA
ENDROOT
BRANCH   1   6
ATOM      4  N   UNL     1       1.145  11.383   4.817  0.00  0.00    -0.280 N 
ATOM      5  C   UNL     1       1.377  10.953   3.531  0.00  0.00    +0.127 A 
ATOM      6  C   UNL     1       0.732   9.822   3.073  0.00  0.00    +0.140 A 
ATOM      7  C   UNL     1      -0.138   9.136   3.942  0.00  0.00    +0.277 A 
ATOM      8  O   UNL     1      -0.717   8.132   3.564  0.00  0.00    -0.266 OA
ATOM      9  N   UNL     1      -0.325   9.597   5.194  0.00  0.00    -0.273 N 
ATOM     10  H   UNL     1      -1.003   9.067   5.879  0.00  0.00    +0.173 HD
ATOM     11  C   UNL     1       0.308  10.703   5.622  0.00  0.00    +0.331 A 
ATOM     12  O   UNL     1       0.121  11.097   6.757  0.00  0.00    -0.246 OA
BRANCH   5  13
ATOM     13  N   UNL     1       2.237  11.643   2.711  0.00  0.00    -0.343 N 
ATOM     14  H   UNL     1       2.417  11.293   1.684  0.00  0.00    +0.144 HD
ATOM     15  H   UNL     1       2.744  12.546   3.082  0.00  0.00    +0.144 HD
ENDBRANCH   5  13
BRANCH   4  16
ATOM     16  C   UNL     1       1.819  12.585   5.315  0.00  0.00    +0.131 C 
BRANCH  16  18
ATOM     17  C   UNL     1       3.914  13.458   6.359  0.00  0.00    +0.009 C 
ATOM     18  C   UNL     1       3.154  12.194   5.951  0.00  0.00    +0.003 C 
ATOM     19  C   UNL     1       2.898  11.332   7.188  0.00  0.00    +0.009 C 
ENDBRANCH  16  18
ENDBRANCH   4  16
ENDBRANCH   1   6
BRANCH   1  20
ATOM     20  C   UNL     1       0.505  10.166   0.616  0.00  0.00    +0.117 C 
BRANCH  20  21
ATOM     21  C   UNL     1      -0.971   9.884   0.329  0.00  0.00    +0.001 C 
ATOM     22  C   UNL     1      -1.458  10.806  -0.790  0.00  0.00    +0.009 C 
ATOM     23  C   UNL     1      -1.137   8.426  -0.103  0.00  0.00    +0.009 C 
ENDBRANCH  20  21
ENDBRANCH   1  20
BRANCH   2  24
ATOM     24  C   UNL     1       1.910   7.294   2.721  0.00  0.00    +0.131 C 
BRANCH  24  25
ATOM     25  C   UNL     1       2.515   6.009   2.218  0.00  0.00    -0.038 A 
ATOM     26  C   UNL     1       1.688   4.920   1.950  0.00  0.00    +0.005 A 
ATOM     27  C   UNL     1       2.203   3.744   1.496  0.00  0.00    +0.009 A 
ATOM     28  C   UNL     1       3.588   3.624   1.292  0.00  0.00    -0.018 A 
ATOM     29  C   UNL     1       4.156   2.427   0.824  0.00  0.00    +0.008 A 
ATOM     30  C   UNL     1       5.502   2.347   0.639  0.00  0.00    +0.001 A 
ATOM     31  C   UNL     1       6.330   3.435   0.912  0.00  0.00    +0.001 A 
ATOM     32  C   UNL     1       5.815   4.612   1.362  0.00  0.00    +0.008 A 
ATOM     33  C   UNL     1       4.429   4.732   1.565  0.00  0.00    -0.018 A 
ATOM     34  C   UNL     1       3.861   5.929   2.033  0.00  0.00    +0.012 A 
ENDBRANCH  24  25
ENDBRANCH   2  24
TORSDOF 8
