REMARK  Name = ZINC19285968
REMARK  10 active torsions:
REMARK  status: ('A' for Active; 'I' for Inactive)
REMARK    1  A    between atoms: C_1  and  C_2
REMARK    2  A    between atoms: C_2  and  C_3
REMARK    3  A    between atoms: C_3  and  C_34
REMARK    4  A    between atoms: N_6  and  N_10
REMARK    5  A    between atoms: C_11  and  C_13
REMARK    6  A    between atoms: C_13  and  S_14
REMARK    7  A    between atoms: S_14  and  C_15
REMARK    8  A    between atoms: C_19  and  C_28
REMARK    9  A    between atoms: N_24  and  C_25
REMARK   10  A    between atoms: C_25  and  C_26
REMARK                            x       y       z     vdW  Elec       q    Type
REMARK                         _______ _______ _______ _____ _____    ______ ____
ROOT
ATOM      1  C   UNL     1       2.646  -2.544  -0.038  0.00  0.00    +0.173 A 
ATOM      2  N   UNL     1       1.442  -2.041  -0.023  0.00  0.00    -0.222 NA
ATOM      3  C   UNL     1       1.223  -0.685  -0.013  0.00  0.00    +0.087 A 
ATOM      4  C   UNL     1       0.002  -0.004   0.002  0.00  0.00    +0.044 A 
ATOM      5  C   UNL     1      -0.016   1.359   0.009  0.00  0.00    +0.022 A 
ATOM      6  S   UNL     1       1.720   1.775  -0.005  0.00  0.00    -0.081 S 
ATOM      7  C   UNL     1       2.373   0.126  -0.020  0.00  0.00    +0.103 A 
ATOM      8  C   UNL     1       3.653  -0.423  -0.035  0.00  0.00    +0.269 A 
ATOM      9  O   UNL     1       4.641   0.292  -0.042  0.00  0.00    -0.266 OA
ATOM     10  N   UNL     1       3.773  -1.772  -0.044  0.00  0.00    -0.283 N 
ENDROOT
BRANCH   5  11
ATOM     11  C   UNL     1      -1.183   2.267   0.020  0.00  0.00    -0.011 A 
ATOM     12  C   UNL     1      -2.478   1.745   0.018  0.00  0.00    +0.009 A 
ATOM     13  C   UNL     1      -3.562   2.598   0.033  0.00  0.00    +0.001 A 
ATOM     14  C   UNL     1      -3.369   3.967   0.039  0.00  0.00    +0.000 A 
ATOM     15  C   UNL     1      -2.089   4.492   0.036  0.00  0.00    +0.001 A 
ATOM     16  C   UNL     1      -0.996   3.650   0.027  0.00  0.00    +0.009 A 
ENDBRANCH   5  11
BRANCH   1  17
ATOM     17  S   UNL     1       2.826  -4.297  -0.049  0.00  0.00    -0.078 S 
BRANCH  17  18
ATOM     18  C   UNL     1       1.085  -4.792  -0.034  0.00  0.00    +0.174 C 
BRANCH  18  20
ATOM     19  N   UNL     1      -0.217  -6.895  -0.032  0.00  0.00    -0.223 N 
ATOM     20  C   UNL     1       0.990  -6.295  -0.041  0.00  0.00    +0.240 C 
ATOM     21  O   UNL     1       2.000  -6.967  -0.055  0.00  0.00    -0.273 OA
ATOM     22  H   UNL     1      -1.133  -6.286  -0.020  0.00  0.00    +0.174 HD
BRANCH  19  26
ATOM     23  C   UNL     1      -0.614 -10.470  -0.660  0.00  0.00    +0.111 C 
ATOM     24  C   UNL     1      -0.656  -9.024  -1.115  0.00  0.00    +0.263 C 
ATOM     25  O   UNL     1      -0.945  -8.612  -2.218  0.00  0.00    -0.271 OA
ATOM     26  N   UNL     1      -0.305  -8.293  -0.039  0.00  0.00    -0.137 N 
ATOM     27  C   UNL     1      -0.056  -9.067   1.024  0.00  0.00    +0.326 C 
ATOM     28  O   UNL     1       0.274  -8.635   2.111  0.00  0.00    -0.251 OA
ATOM     29  N   UNL     1      -0.213 -10.375   0.755  0.00  0.00    -0.284 N 
ATOM     30  C   UNL     1      -1.998 -11.110  -0.785  0.00  0.00    +0.041 C 
ATOM     31  H   UNL     1      -0.102 -11.289   1.357  0.00  0.00    +0.151 HD
BRANCH  23  33
ATOM     32  C   UNL     1       0.510 -12.687  -0.906  0.00  0.00    +0.006 C 
ATOM     33  C   UNL     1       0.419 -11.264  -1.460  0.00  0.00    +0.032 C 
ENDBRANCH  23  33
ENDBRANCH  19  26
ENDBRANCH  18  20
ENDBRANCH  17  18
ENDBRANCH   1  17
BRANCH  10  34
ATOM     34  C   UNL     1       5.098  -2.397  -0.061  0.00  0.00    +0.154 C 
BRANCH  34  35
ATOM     35  C   UNL     1       5.538  -2.603  -1.488  0.00  0.00    -0.013 C 
ATOM     36  C   UNL     1       6.683  -2.115  -1.897  0.00  0.00    +0.005 C 
ENDBRANCH  34  35
ENDBRANCH  10  34
TORSDOF 8
