REMARK  Name = ZINC01447624
REMARK  8 active torsions:
REMARK  status: ('A' for Active; 'I' for Inactive)
REMARK    1  A    between atoms: C_4  and  C_7
REMARK    2  A    between atoms: N_9  and  C_29
REMARK    3  A    between atoms: C_12  and  N_16
REMARK    4  A    between atoms: N_16  and  C_17
REMARK    5  A    between atoms: C_17  and  C_18
REMARK    6  A    between atoms: C_18  and  C_19
REMARK    7  A    between atoms: C_22  and  S_25
REMARK    8  A    between atoms: S_25  and  N_28
REMARK                            x       y       z     vdW  Elec       q    Type
REMARK                         _______ _______ _______ _____ _____    ______ ____
ROOT
ATOM      1  C   UNL     1       0.784  -4.183   0.559  0.00  0.00    +0.013 A 
ATOM      2  C   UNL     1       0.540  -2.880   0.845  0.00  0.00    +0.102 A 
ATOM      3  N   UNL     1       1.237  -2.081  -0.021  0.00  0.00    -0.300 N 
ATOM      4  C   UNL     1       1.964  -2.848  -0.894  0.00  0.00    +0.151 A 
ATOM      5  C   UNL     1       1.718  -4.195  -0.575  0.00  0.00    +0.067 A 
ATOM      6  C   UNL     1       2.349  -5.192  -1.329  0.00  0.00    +0.132 A 
ATOM      7  N   UNL     1       3.158  -4.820  -2.318  0.00  0.00    -0.220 NA
ATOM      8  C   UNL     1       3.362  -3.543  -2.585  0.00  0.00    +0.225 A 
ATOM      9  N   UNL     1       2.790  -2.575  -1.903  0.00  0.00    -0.217 NA
ENDROOT
BRANCH   3  10
ATOM     10  C   UNL     1       1.214  -0.680  -0.013  0.00  0.00    +0.049 A 
ATOM     11  C   UNL     1       2.405   0.035  -0.021  0.00  0.00    +0.026 A 
ATOM     12  C   UNL     1       2.380   1.416  -0.013  0.00  0.00    +0.003 A 
ATOM     13  C   UNL     1       1.172   2.087   0.002  0.00  0.00    +0.020 A 
ATOM     14  C   UNL     1      -0.017   1.378   0.010  0.00  0.00    +0.043 A 
ATOM     15  C   UNL     1       0.002  -0.004   0.002  0.00  0.00    +0.046 A 
ATOM     16 CL   UNL     1      -1.532   2.225   0.021  0.00  0.00    -0.083 Cl
ENDBRANCH   3  10
BRANCH   1  20
ATOM     17  C   UNL     1      -0.821  -7.570   2.564  0.00  0.00    +0.000 A 
ATOM     18  C   UNL     1      -0.246  -6.546   3.294  0.00  0.00    +0.001 A 
ATOM     19  C   UNL     1       0.277  -5.444   2.649  0.00  0.00    +0.008 A 
ATOM     20  C   UNL     1       0.224  -5.364   1.258  0.00  0.00    -0.016 A 
ATOM     21  C   UNL     1      -0.363  -6.396   0.527  0.00  0.00    +0.008 A 
ATOM     22  C   UNL     1      -0.876  -7.497   1.183  0.00  0.00    +0.001 A 
ENDBRANCH   1  20
BRANCH   6  23
ATOM     23  N   UNL     1       2.137  -6.531  -1.052  0.00  0.00    -0.328 N 
ATOM     24  H   UNL     1       1.545  -6.789  -0.329  0.00  0.00    +0.147 HD
BRANCH  23  25
ATOM     25  C   UNL     1       2.807  -7.560  -1.852  0.00  0.00    +0.107 C 
BRANCH  25  26
ATOM     26  C   UNL     1       2.405  -8.945  -1.343  0.00  0.00    +0.054 C 
BRANCH  26  27
ATOM     27  C   UNL     1       3.094 -10.003  -2.166  0.00  0.00    -0.046 A 
ATOM     28  C   UNL     1       2.483 -10.503  -3.300  0.00  0.00    +0.005 A 
ATOM     29  C   UNL     1       3.117 -11.470  -4.058  0.00  0.00    +0.029 A 
ATOM     30  C   UNL     1       4.358 -11.944  -3.675  0.00  0.00    +0.105 A 
ATOM     31  C   UNL     1       4.967 -11.447  -2.538  0.00  0.00    +0.029 A 
ATOM     32  C   UNL     1       4.335 -10.477  -1.783  0.00  0.00    +0.005 A 
BRANCH  30  33
ATOM     33  S   UNL     1       5.164 -13.180  -4.638  0.00  0.00    +0.056 S 
ATOM     34  O   UNL     1       4.630 -13.084  -5.951  0.00  0.00    -0.153 OA
ATOM     35  O   UNL     1       6.555 -13.060  -4.370  0.00  0.00    -0.153 OA
BRANCH  33  36
ATOM     36  N   UNL     1       4.692 -14.650  -4.041  0.00  0.00    -0.204 NA
ATOM     37  H   UNL     1       4.078 -14.695  -3.292  0.00  0.00    +0.144 HD
ATOM     38  H   UNL     1       5.031 -15.467  -4.441  0.00  0.00    +0.144 HD
ENDBRANCH  33  36
ENDBRANCH  30  33
ENDBRANCH  26  27
ENDBRANCH  25  26
ENDBRANCH  23  25
ENDBRANCH   6  23
TORSDOF 8
