REMARK  Name = ZINC32624427
REMARK  17 active torsions:
REMARK  status: ('A' for Active; 'I' for Inactive)
REMARK    1  A    between atoms: C_1  and  C_2
REMARK    2  A    between atoms: C_2  and  C_3
REMARK    3  A    between atoms: C_3  and  C_4
REMARK    4  A    between atoms: C_4  and  C_5
REMARK    5  A    between atoms: C_5  and  C_6
REMARK    6  A    between atoms: C_6  and  N_7
REMARK    7  A    between atoms: C_8  and  C_22
REMARK    8  A    between atoms: N_12  and  C_13
REMARK    9  A    between atoms: C_16  and  O_19
REMARK   10  A    between atoms: O_19  and  C_20
REMARK   11  A    between atoms: C_20  and  C_21
REMARK   12  A    between atoms: C_25  and  S_28
REMARK   13  A    between atoms: S_28  and  N_31
REMARK   14  A    between atoms: N_31  and  C_32
REMARK   15  A    between atoms: N_31  and  C_34
REMARK   16  A    between atoms: C_32  and  C_33
REMARK   17  A    between atoms: C_34  and  C_35
REMARK                            x       y       z     vdW  Elec       q    Type
REMARK                         _______ _______ _______ _____ _____    ______ ____
ROOT
ATOM      1  N   UNL     1      -0.135   1.217   5.115  0.00  0.00    -0.321 N 
ATOM      2  C   UNL     1       1.073   1.765   5.451  0.00  0.00    +0.058 A 
ATOM      3  C   UNL     1       1.846   1.161   6.377  0.00  0.00    +0.075 A 
ATOM      4  S   UNL     1       0.856  -0.256   6.824  0.00  0.00    -0.059 S 
ATOM      5  C   UNL     1      -0.530   0.058   5.743  0.00  0.00    +0.152 A 
ATOM      6  N   UNL     1      -1.640  -0.637   5.587  0.00  0.00    -0.336 N 
ATOM      7  H   UNL     1      -2.365  -0.350   4.811  0.00  0.00    +0.168 HD
ENDROOT
BRANCH   6   8
ATOM      8  C   UNL     1      -1.890  -1.717   6.391  0.00  0.00    +0.041 A 
ATOM      9  C   UNL     1      -1.552  -3.002   5.963  0.00  0.00    +0.029 A 
ATOM     10  C   UNL     1      -1.802  -4.086   6.778  0.00  0.00    +0.047 A 
ATOM     11  C   UNL     1      -2.397  -3.902   8.018  0.00  0.00    +0.121 A 
ATOM     12  C   UNL     1      -2.740  -2.627   8.446  0.00  0.00    +0.047 A 
ATOM     13  C   UNL     1      -2.490  -1.536   7.639  0.00  0.00    +0.029 A 
BRANCH  11  14
ATOM     14  O   UNL     1      -2.647  -4.975   8.816  0.00  0.00    -0.492 OA
BRANCH  14  15
ATOM     15  C   UNL     1      -2.269  -6.259   8.315  0.00  0.00    +0.225 C 
ATOM     16  C   UNL     1      -2.625  -7.333   9.344  0.00  0.00    +0.048 C 
ENDBRANCH  14  15
ENDBRANCH  11  14
ENDBRANCH   6   8
BRANCH   2  17
ATOM     17  C   UNL     1       1.530   3.013   4.801  0.00  0.00    -0.001 A 
ATOM     18  C   UNL     1       2.790   3.072   4.204  0.00  0.00    +0.012 A 
ATOM     19  C   UNL     1       3.207   4.237   3.595  0.00  0.00    +0.029 A 
ATOM     20  C   UNL     1       2.384   5.349   3.585  0.00  0.00    +0.106 A 
ATOM     21  C   UNL     1       1.136   5.299   4.180  0.00  0.00    +0.029 A 
ATOM     22  C   UNL     1       0.704   4.138   4.788  0.00  0.00    +0.012 A 
BRANCH  20  23
ATOM     23  S   UNL     1       2.928   6.836   2.811  0.00  0.00    +0.061 S 
ATOM     24  O   UNL     1       3.908   6.460   1.853  0.00  0.00    -0.153 OA
ATOM     25  O   UNL     1       1.758   7.562   2.459  0.00  0.00    -0.153 OA
BRANCH  23  26
ATOM     26  N   UNL     1       3.712   7.730   3.963  0.00  0.00    -0.177 NA
BRANCH  26  27
ATOM     27  C   UNL     1       5.153   7.564   4.164  0.00  0.00    +0.106 C 
ATOM     28  C   UNL     1       5.906   8.622   3.354  0.00  0.00    +0.022 C 
ENDBRANCH  26  27
BRANCH  26  29
ATOM     29  C   UNL     1       2.963   8.687   4.782  0.00  0.00    +0.106 C 
ATOM     30  C   UNL     1       2.555   8.022   6.098  0.00  0.00    +0.022 C 
ENDBRANCH  26  29
ENDBRANCH  23  26
ENDBRANCH  20  23
ENDBRANCH   2  17
BRANCH   1  31
ATOM     31  C   UNL     1      -0.992   1.854   4.112  0.00  0.00    +0.124 C 
BRANCH  31  32
ATOM     32  C   UNL     1      -0.556   1.412   2.714  0.00  0.00    +0.022 C 
BRANCH  32  33
ATOM     33  C   UNL     1      -1.452   2.077   1.667  0.00  0.00    +0.002 C 
BRANCH  33  34
ATOM     34  C   UNL     1      -1.016   1.635   0.268  0.00  0.00    -0.000 C 
BRANCH  34  36
ATOM     35  C   UNL     1      -1.475   1.859  -2.178  0.00  0.00    +0.004 C 
ATOM     36  C   UNL     1      -1.911   2.300  -0.779  0.00  0.00    -0.003 C 
ENDBRANCH  34  36
ENDBRANCH  33  34
ENDBRANCH  32  33
ENDBRANCH  31  32
ENDBRANCH   1  31
TORSDOF 13
