REMARK  Name = ZINC09111145
REMARK  1 active torsions:
REMARK  status: ('A' for Active; 'I' for Inactive)
REMARK    1  A    between atoms: C_12  and  C_18
REMARK                            x       y       z     vdW  Elec       q    Type
REMARK                         _______ _______ _______ _____ _____    ______ ____
ROOT
ATOM      1  C   UNL     1      -0.132   0.508  -0.631  0.00  0.00    +0.001 A 
ATOM      2  C   UNL     1       0.905   1.420  -0.499  0.00  0.00    +0.002 A 
ATOM      3  C   UNL     1       2.207   0.989  -0.350  0.00  0.00    +0.024 A 
ATOM      4  C   UNL     1       2.484  -0.371  -0.334  0.00  0.00    +0.051 A 
ATOM      5  C   UNL     1       1.433  -1.295  -0.469  0.00  0.00    +0.063 A 
ATOM      6  C   UNL     1       0.124  -0.846  -0.618  0.00  0.00    +0.015 A 
ATOM      7  C   UNL     1       1.769  -2.731  -0.447  0.00  0.00    +0.282 C 
ATOM      8  O   UNL     1       0.896  -3.575  -0.560  0.00  0.00    -0.265 OA
ATOM      9  N   UNL     1       3.047  -3.090  -0.301  0.00  0.00    -0.175 NA
ATOM     10  C   UNL     1       4.025  -2.197  -0.175  0.00  0.00    +0.230 C 
ATOM     11  N   UNL     1       3.770  -0.852  -0.188  0.00  0.00    -0.244 N 
ATOM     12  C   UNL     1       4.897   0.083  -0.044  0.00  0.00    +0.209 C 
ATOM     13  N   UNL     1       6.237  -0.512   0.104  0.00  0.00    -0.335 N 
ATOM     14  C   UNL     1       6.333  -1.874   0.097  0.00  0.00    +0.191 C 
ATOM     15  N   UNL     1       5.280  -2.645  -0.033  0.00  0.00    -0.183 NA
ATOM     16  N   UNL     1       7.562  -2.450   0.233  0.00  0.00    -0.329 N 
ATOM     17  H   UNL     1       8.350  -1.894   0.333  0.00  0.00    +0.145 HD
ATOM     18  H   UNL     1       7.647  -3.417   0.231  0.00  0.00    +0.145 HD
ATOM     19  H   UNL     1       7.025   0.046   0.203  0.00  0.00    +0.164 HD
ENDROOT
BRANCH  12  20
ATOM     20  C   UNL     1       4.917   0.978  -1.257  0.00  0.00    -0.006 A 
ATOM     21  C   UNL     1       4.944   2.352  -1.102  0.00  0.00    +0.007 A 
ATOM     22  C   UNL     1       4.963   3.173  -2.214  0.00  0.00    +0.001 A 
ATOM     23  C   UNL     1       4.955   2.621  -3.481  0.00  0.00    +0.015 A 
ATOM     24  C   UNL     1       4.928   1.247  -3.637  0.00  0.00    +0.018 A 
ATOM     25  C   UNL     1       4.915   0.425  -2.524  0.00  0.00    +0.022 A 
ATOM     26 BR   UNL     1       4.916   0.491  -5.370  0.00  0.00    -0.050 Br
ENDBRANCH  12  20
TORSDOF 1
