REMARK  Name = ZINC09059578
REMARK  3 active torsions:
REMARK  status: ('A' for Active; 'I' for Inactive)
REMARK    1  A    between atoms: C_7  and  N_11
REMARK    2  A    between atoms: C_14  and  C_17
REMARK    3  A    between atoms: N_19  and  C_20
REMARK                            x       y       z     vdW  Elec       q    Type
REMARK                         _______ _______ _______ _____ _____    ______ ____
ROOT
ATOM      1  N   UNL     1       1.144  -2.858  -0.024  0.00  0.00    -0.313 N 
ATOM      2  C   UNL     1      -0.319  -2.795   0.095  0.00  0.00    +0.107 C 
ATOM      3  C   UNL     1      -0.758  -3.692   1.257  0.00  0.00    +0.031 C 
ATOM      4  C   UNL     1      -0.205  -5.103   1.044  0.00  0.00    +0.078 C 
ATOM      5  C   UNL     1       1.325  -5.055   1.023  0.00  0.00    +0.031 C 
ATOM      6  C   UNL     1       1.787  -4.173  -0.147  0.00  0.00    +0.107 C 
ENDROOT
BRANCH   1  13
ATOM      7  C   UNL     1       5.361  -2.221  -0.680  0.00  0.00    +0.198 A 
ATOM      8  N   UNL     1       5.307  -0.869  -0.520  0.00  0.00    -0.329 N 
ATOM      9  H   UNL     1       6.054  -0.253  -0.581  0.00  0.00    +0.168 HD
ATOM     10  C   UNL     1       4.001  -0.537  -0.258  0.00  0.00    +0.163 A 
ATOM     11  C   UNL     1       3.285  -1.746  -0.269  0.00  0.00    +0.147 A 
ATOM     12  N   UNL     1       4.174  -2.734  -0.532  0.00  0.00    -0.231 NA
ATOM     13  C   UNL     1       1.902  -1.700  -0.025  0.00  0.00    +0.152 A 
ATOM     14  N   UNL     1       1.338  -0.518   0.203  0.00  0.00    -0.218 NA
ATOM     15  C   UNL     1       2.053   0.592   0.204  0.00  0.00    +0.225 A 
ATOM     16  N   UNL     1       3.351   0.597  -0.020  0.00  0.00    -0.216 NA
ENDBRANCH   1  13
BRANCH   4  17
ATOM     17  C   UNL     1      -0.663  -5.996   2.168  0.00  0.00    +0.216 C 
ATOM     18  O   UNL     1      -1.363  -5.549   3.052  0.00  0.00    -0.276 OA
ATOM     19  N   UNL     1      -0.295  -7.293   2.191  0.00  0.00    -0.312 N 
ATOM     20  H   UNL     1       0.265  -7.651   1.485  0.00  0.00    +0.149 HD
BRANCH  19  21
ATOM     21  C   UNL     1      -0.741  -8.161   3.284  0.00  0.00    +0.073 C 
ATOM     22  C   UNL     1      -2.098  -8.725   2.959  0.00  0.00    +0.022 C 
ATOM     23  C   UNL     1      -2.974  -8.911   4.213  0.00  0.00    +0.002 C 
ATOM     24  C   UNL     1      -2.191  -9.482   5.410  0.00  0.00    +0.000 C 
ATOM     25  C   UNL     1      -1.244 -10.580   5.008  0.00  0.00    +0.000 C 
ATOM     26  C   UNL     1       0.147  -9.961   4.760  0.00  0.00    +0.002 C 
ATOM     27  C   UNL     1       0.249  -9.332   3.451  0.00  0.00    +0.022 C 
ENDBRANCH  19  21
ENDBRANCH   4  17
TORSDOF 3
