REMARK  Name = ZINC02502523
REMARK  9 active torsions:
REMARK  status: ('A' for Active; 'I' for Inactive)
REMARK    1  A    between atoms: C_1  and  C_2
REMARK    2  A    between atoms: C_2  and  O_3
REMARK    3  A    between atoms: O_3  and  C_4
REMARK    4  A    between atoms: C_6  and  C_14
REMARK    5  A    between atoms: C_9  and  O_10
REMARK    6  A    between atoms: O_10  and  C_11
REMARK    7  A    between atoms: C_11  and  C_12
REMARK    8  A    between atoms: C_23  and  N_27
REMARK    9  A    between atoms: C_24  and  C_25
REMARK                            x       y       z     vdW  Elec       q    Type
REMARK                         _______ _______ _______ _____ _____    ______ ____
ROOT
ATOM      1  C   UNL     1      -2.525   1.787   0.024  0.00  0.00    +0.099 C 
ATOM      2  C   UNL     1      -3.308   2.127   1.264  0.00  0.00    +0.011 A 
ATOM      3  C   UNL     1      -2.932   1.580   2.478  0.00  0.00    +0.057 A 
ATOM      4  C   UNL     1      -3.639   1.881   3.629  0.00  0.00    +0.167 A 
ATOM      5  C   UNL     1      -4.735   2.739   3.564  0.00  0.00    +0.170 A 
ATOM      6  C   UNL     1      -5.110   3.286   2.349  0.00  0.00    +0.096 A 
ATOM      7  C   UNL     1      -4.397   2.981   1.196  0.00  0.00    +0.138 A 
ATOM      8  O   UNL     1      -4.781   3.527   0.015  0.00  0.00    -0.441 OA
ATOM      9  C   UNL     1      -4.380   2.972  -1.141  0.00  0.00    +0.199 C 
ATOM     10  C   UNL     1      -3.318   2.140  -1.202  0.00  0.00    +0.098 C 
ATOM     11  O   UNL     1      -5.258   2.874   4.818  0.00  0.00    -0.452 OA
ATOM     12  C   UNL     1      -4.724   1.774   5.578  0.00  0.00    +0.466 C 
ATOM     13  O   UNL     1      -3.476   1.480   4.924  0.00  0.00    -0.453 OA
ENDROOT
BRANCH   1  16
ATOM     14  C   UNL     1      -0.067   4.656   0.027  0.00  0.00    +0.162 A 
ATOM     15  C   UNL     1      -1.255   3.943   0.034  0.00  0.00    +0.055 A 
ATOM     16  C   UNL     1      -1.232   2.561   0.022  0.00  0.00    -0.017 A 
ATOM     17  C   UNL     1      -0.024   1.887   0.012  0.00  0.00    +0.026 A 
ATOM     18  C   UNL     1       1.165   2.593   0.005  0.00  0.00    +0.065 A 
ATOM     19  C   UNL     1       1.148   3.979   0.012  0.00  0.00    +0.163 A 
ATOM     20 BR   UNL     1       0.002  -0.004   0.002  0.00  0.00    -0.050 Br
BRANCH  14  21
ATOM     21  O   UNL     1      -0.089   6.016   0.033  0.00  0.00    -0.489 OA
BRANCH  21  23
ATOM     22  C   UNL     1      -1.197   8.164   0.054  0.00  0.00    +0.048 C 
ATOM     23  C   UNL     1      -1.373   6.644   0.049  0.00  0.00    +0.226 C 
ENDBRANCH  21  23
ENDBRANCH  14  21
BRANCH  19  24
ATOM     24  O   UNL     1       2.316   4.675   0.005  0.00  0.00    -0.489 OA
BRANCH  24  25
ATOM     25  C   UNL     1       3.525   3.913  -0.010  0.00  0.00    +0.226 C 
ATOM     26  C   UNL     1       4.726   4.862  -0.016  0.00  0.00    +0.048 C 
ENDBRANCH  24  25
ENDBRANCH  19  24
ENDBRANCH   1  16
BRANCH   9  27
ATOM     27  N   UNL     1      -5.071   3.260  -2.292  0.00  0.00    -0.328 N 
ATOM     28  H   UNL     1      -5.835   3.857  -2.263  0.00  0.00    +0.145 HD
ATOM     29  H   UNL     1      -4.794   2.867  -3.135  0.00  0.00    +0.145 HD
ENDBRANCH   9  27
BRANCH  10  30
ATOM     30  C   UNL     1      -2.942   1.583  -2.467  0.00  0.00    +0.101 C 
ATOM     31  N   UNL     1      -2.643   1.140  -3.470  0.00  0.00    -0.191 NA
ENDBRANCH  10  30
TORSDOF 7
