REMARK  Name = ZINC33809992
REMARK  8 active torsions:
REMARK  status: ('A' for Active; 'I' for Inactive)
REMARK    1  A    between atoms: C_1  and  O_2
REMARK    2  A    between atoms: O_2  and  C_3
REMARK    3  A    between atoms: C_6  and  O_30
REMARK    4  A    between atoms: C_7  and  C_9
REMARK    5  A    between atoms: C_14  and  S_18
REMARK    6  A    between atoms: S_18  and  C_19
REMARK    7  A    between atoms: C_19  and  C_20
REMARK    8  A    between atoms: O_30  and  C_31
REMARK                            x       y       z     vdW  Elec       q    Type
REMARK                         _______ _______ _______ _____ _____    ______ ____
ROOT
ATOM      1  C   UNL     1      -0.956   5.276   0.061  0.00  0.00    +0.096 C 
ATOM      2  C   UNL     1      -0.528   5.859   1.376  0.00  0.00    +0.069 A 
ATOM      3  C   UNL     1      -0.473   5.090   2.497  0.00  0.00    +0.135 A 
ATOM      4  N   UNL     1      -0.088   5.658   3.683  0.00  0.00    -0.208 NA
ATOM      5  C   UNL     1       0.238   6.980   3.732  0.00  0.00    +0.171 A 
ATOM      6  N   UNL     1       0.192   7.734   2.654  0.00  0.00    -0.302 N 
ATOM      7  C   UNL     1      -0.179   7.223   1.469  0.00  0.00    +0.258 A 
ATOM      8  O   UNL     1      -0.215   7.936   0.477  0.00  0.00    -0.267 OA
ATOM      9  N   UNL     1      -0.802   3.756   2.437  0.00  0.00    -0.302 N 
ATOM     10  C   UNL     1      -0.805   3.091   1.241  0.00  0.00    +0.017 C 
ATOM     11  C   UNL     1      -0.867   3.771   0.076  0.00  0.00    +0.024 C 
ATOM     12  C   UNL     1      -0.855   3.097  -1.157  0.00  0.00    +0.162 C 
ATOM     13  O   UNL     1      -0.921   3.738  -2.187  0.00  0.00    -0.292 OA
ATOM     14  C   UNL     1      -0.762   1.597  -1.227  0.00  0.00    +0.080 C 
ATOM     15  C   UNL     1      -0.013   1.086   0.008  0.00  0.00    +0.014 C 
ATOM     16  C   UNL     1      -0.737   1.583   1.261  0.00  0.00    +0.051 C 
ATOM     17  H   UNL     1      -1.066   3.212   3.357  0.00  0.00    +0.153 HD
ATOM     18  H   UNL     1       0.460   8.799   2.715  0.00  0.00    +0.171 HD
ENDROOT
BRANCH   1  23
ATOM     19  C   UNL     1      -4.701   5.670   0.374  0.00  0.00    +0.121 A 
ATOM     20  C   UNL     1      -4.994   6.437  -0.744  0.00  0.00    +0.049 A 
ATOM     21  C   UNL     1      -3.981   6.828  -1.598  0.00  0.00    +0.049 A 
ATOM     22  C   UNL     1      -2.671   6.452  -1.338  0.00  0.00    +0.124 A 
ATOM     23  C   UNL     1      -2.379   5.684  -0.221  0.00  0.00    +0.010 A 
ATOM     24  C   UNL     1      -3.392   5.289   0.630  0.00  0.00    +0.053 A 
BRANCH  19  26
ATOM     25  C   UNL     1      -7.023   5.708   0.886  0.00  0.00    +0.277 C 
ATOM     26  O   UNL     1      -5.698   5.285   1.214  0.00  0.00    -0.495 OA
ENDBRANCH  19  26
BRANCH  22  27
ATOM     27  O   UNL     1      -1.674   6.837  -2.179  0.00  0.00    -0.495 OA
ATOM     28  C   UNL     1      -2.047   7.626  -3.310  0.00  0.00    +0.277 C 
ENDBRANCH  22  27
ENDBRANCH   1  23
BRANCH   5  29
ATOM     29  S   UNL     1       0.730   7.693   5.266  0.00  0.00    -0.084 S 
BRANCH  29  30
ATOM     30  C   UNL     1       1.027   9.399   4.739  0.00  0.00    +0.104 C 
BRANCH  30  31
ATOM     31  C   UNL     1       1.471  10.220   5.922  0.00  0.00    -0.023 C 
ATOM     32  C   UNL     1       2.677  10.730   5.950  0.00  0.00    +0.005 C 
ENDBRANCH  30  31
ENDBRANCH  29  30
ENDBRANCH   5  29
TORSDOF 6
