REMARK  Name = ZINC39469615
REMARK  5 active torsions:
REMARK  status: ('A' for Active; 'I' for Inactive)
REMARK    1  A    between atoms: C_4  and  C_7
REMARK    2  A    between atoms: C_7  and  C_8
REMARK    3  A    between atoms: P_17  and  S_27
REMARK    4  A    between atoms: S_27  and  O_30
REMARK    5  A    between atoms: O_30  and  C_31
REMARK                            x       y       z     vdW  Elec       q    Type
REMARK                         _______ _______ _______ _____ _____    ______ ____
ROOT
ATOM      1  C   UNL     1       4.164  -0.959   1.377  0.00  0.00    -0.012 C 
ATOM      2  C   UNL     1       3.892  -2.122   1.970  0.00  0.00    -0.016 C 
ATOM      3  C   UNL     1       4.370  -2.346   3.378  0.00  0.00    +0.016 C 
ATOM      4  C   UNL     1       4.487  -3.832   3.702  0.00  0.00    -0.003 C 
ATOM      5  C   UNL     1       5.013  -4.003   5.135  0.00  0.00    -0.020 C 
ATOM      6  C   UNL     1       5.134  -5.509   5.399  0.00  0.00    +0.158 C 
ATOM      7  O   UNL     1       5.540  -5.722   6.763  0.00  0.00    -0.301 OA
ATOM      8  P   UNL     1       6.830  -4.892   7.308  0.00  0.00    +0.431 P 
ATOM      9  O   UNL     1       8.083  -5.549   6.872  0.00  0.00    -0.246 OA
ATOM     10  N   UNL     1       6.702  -3.394   6.626  0.00  0.00    -0.271 NA
ATOM     11  N   UNL     1       6.307  -3.342   5.304  0.00  0.00    +0.398 N 
ATOM     12  C   UNL     1       6.228  -1.909   4.971  0.00  0.00    -0.046 C 
ATOM     13  C   UNL     1       5.761  -1.718   3.535  0.00  0.00    +0.007 C 
ATOM     14  C   UNL     1       5.685  -0.268   3.144  0.00  0.00    +0.014 C 
ATOM     15  C   UNL     1       4.916   0.077   2.110  0.00  0.00    +0.123 C 
ATOM     16  F   UNL     1       4.824   1.372   1.739  0.00  0.00    -0.206 F 
ATOM     17  H   UNL     1       6.905  -2.593   7.133  0.00  0.00    +0.113 HD
ATOM     18  H   UNL     1       6.993  -3.789   4.715  0.00  0.00    -0.055 HD
ENDROOT
BRANCH   8  19
ATOM     19  S   UNL     1       6.773  -4.750   9.422  0.00  0.00    +0.209 S 
ATOM     20  O   UNL     1       7.995  -4.144   9.821  0.00  0.00    -0.126 OA
ATOM     21  O   UNL     1       5.505  -4.201   9.758  0.00  0.00    -0.126 OA
BRANCH  19  22
ATOM     22  O   UNL     1       6.791  -6.169   9.970  0.00  0.00    -0.339 OA
BRANCH  22  23
ATOM     23  C   UNL     1       8.007  -6.773   9.899  0.00  0.00    +0.157 A 
ATOM     24  C   UNL     1       8.357  -7.501   8.771  0.00  0.00    +0.048 A 
ATOM     25  C   UNL     1       9.594  -8.113   8.702  0.00  0.00    +0.004 A 
ATOM     26  C   UNL     1      10.482  -8.001   9.756  0.00  0.00    +0.000 A 
ATOM     27  C   UNL     1      10.135  -7.277  10.882  0.00  0.00    +0.004 A 
ATOM     28  C   UNL     1       8.902  -6.658  10.953  0.00  0.00    +0.048 A 
ENDBRANCH  22  23
ENDBRANCH  19  22
ENDBRANCH   8  19
BRANCH   1  29
ATOM     29  C   UNL     1       3.711  -0.707  -0.038  0.00  0.00    +0.072 C 
BRANCH  29  33
ATOM     30  C   UNL     1      -0.017   1.378   0.010  0.00  0.00    +0.000 A 
ATOM     31  C   UNL     1       1.171   2.086   0.002  0.00  0.00    +0.000 A 
ATOM     32  C   UNL     1       2.377   1.411  -0.013  0.00  0.00    +0.004 A 
ATOM     33  C   UNL     1       2.396   0.029  -0.020  0.00  0.00    -0.043 A 
ATOM     34  C   UNL     1       1.208  -0.679  -0.012  0.00  0.00    +0.004 A 
ATOM     35  C   UNL     1       0.002  -0.004   0.002  0.00  0.00    +0.000 A 
ENDBRANCH  29  33
ENDBRANCH   1  29
TORSDOF 5
