REMARK  Name = ZINC22147048
REMARK  16 active torsions:
REMARK  status: ('A' for Active; 'I' for Inactive)
REMARK    1  A    between atoms: C_1  and  C_2
REMARK    2  A    between atoms: C_2  and  N_3
REMARK    3  A    between atoms: N_3  and  C_4
REMARK    4  A    between atoms: N_3  and  C_6
REMARK    5  A    between atoms: C_4  and  C_5
REMARK    6  A    between atoms: C_6  and  C_7
REMARK    7  A    between atoms: C_7  and  O_8
REMARK    8  A    between atoms: O_8  and  C_9
REMARK    9  A    between atoms: C_9  and  C_11
REMARK   10  A    between atoms: C_14  and  N_17
REMARK   11  A    between atoms: C_18  and  C_20
REMARK   12  A    between atoms: C_20  and  C_21
REMARK   13  A    between atoms: C_21  and  N_22
REMARK   14  A    between atoms: C_26  and  C_27
REMARK   15  A    between atoms: C_30  and  O_33
REMARK   16  A    between atoms: O_33  and  C_34
REMARK                            x       y       z     vdW  Elec       q    Type
REMARK                         _______ _______ _______ _____ _____    ______ ____
ROOT
ATOM      1  N   UNL     1      -3.480   5.851   0.653  0.00  0.00    -0.285 N 
ATOM      2  C   UNL     1      -3.588   7.194   0.690  0.00  0.00    +0.219 C 
ATOM      3  O   UNL     1      -2.625   7.886   0.437  0.00  0.00    -0.275 OA
ATOM      4  H   UNL     1      -4.370   5.223   0.806  0.00  0.00    +0.155 HD
ENDROOT
BRANCH   1   8
ATOM      5  C   UNL     1       0.225   4.078  -0.037  0.00  0.00    +0.059 A 
ATOM      6  C   UNL     1      -0.942   3.466  -0.504  0.00  0.00    +0.017 A 
ATOM      7  C   UNL     1      -2.165   4.052  -0.269  0.00  0.00    +0.024 A 
ATOM      8  C   UNL     1      -2.240   5.257   0.422  0.00  0.00    +0.033 A 
ATOM      9  C   UNL     1      -1.080   5.872   0.884  0.00  0.00    +0.024 A 
ATOM     10  C   UNL     1       0.146   5.289   0.657  0.00  0.00    +0.017 A 
BRANCH   5  11
ATOM     11  C   UNL     1       1.537   3.450  -0.283  0.00  0.00    +0.339 C 
ATOM     12  O   UNL     1       2.551   3.986   0.119  0.00  0.00    -0.245 OA
BRANCH  11  13
ATOM     13  O   UNL     1       1.611   2.280  -0.947  0.00  0.00    -0.463 OA
BRANCH  13  14
ATOM     14  C   UNL     1       2.934   1.718  -1.147  0.00  0.00    +0.214 C 
BRANCH  14  15
ATOM     15  C   UNL     1       2.810   0.345  -1.811  0.00  0.00    -0.037 C 
BRANCH  15  16
ATOM     16  N   UNL     1       2.187   0.495  -3.133  0.00  0.00    +0.382 N 
ATOM     17  H   UNL     1       1.360   1.214  -3.037  0.00  0.00    -0.082 HD
BRANCH  16  19
ATOM     18  C   UNL     1       2.404   1.411  -5.394  0.00  0.00    -0.017 C 
ATOM     19  C   UNL     1       3.144   1.035  -4.108  0.00  0.00    -0.082 C 
ENDBRANCH  16  19
BRANCH  16  20
ATOM     20  C   UNL     1       1.625  -0.780  -3.597  0.00  0.00    -0.082 C 
ATOM     21  C   UNL     1       0.314  -1.058  -2.860  0.00  0.00    -0.017 C 
ENDBRANCH  16  20
ENDBRANCH  15  16
ENDBRANCH  14  15
ENDBRANCH  13  14
ENDBRANCH  11  13
ENDBRANCH   5  11
ENDBRANCH   1   8
BRANCH   2  22
ATOM     22  C   UNL     1      -4.905   7.834   1.046  0.00  0.00    +0.115 C 
BRANCH  22  23
ATOM     23  C   UNL     1      -4.756   9.357   1.015  0.00  0.00    +0.127 C 
BRANCH  23  24
ATOM     24  N   UNL     1      -6.037   9.980   1.360  0.00  0.00    -0.228 N 
ATOM     25  C   UNL     1      -6.303  10.248   2.627  0.00  0.00    +0.260 C 
ATOM     26  O   UNL     1      -5.512   9.990   3.516  0.00  0.00    -0.269 OA
ATOM     27  C   UNL     1      -7.610  10.875   2.910  0.00  0.00    +0.080 C 
ATOM     28  C   UNL     1      -8.147  11.257   4.096  0.00  0.00    +0.028 C 
ATOM     29  S   UNL     1      -8.288  10.993   1.260  0.00  0.00    -0.026 S 
ATOM     30  C   UNL     1      -6.914  10.271   0.378  0.00  0.00    +0.286 C 
ATOM     31  O   UNL     1      -6.798  10.086  -0.818  0.00  0.00    -0.262 OA
BRANCH  28  32
ATOM     32  C   UNL     1      -9.391  12.038   4.121  0.00  0.00    -0.024 A 
ATOM     33  C   UNL     1      -9.823  12.708   2.969  0.00  0.00    +0.011 A 
ATOM     34  C   UNL     1     -10.992  13.435   2.997  0.00  0.00    +0.046 A 
ATOM     35  C   UNL     1     -11.737  13.514   4.168  0.00  0.00    +0.120 A 
ATOM     36  C   UNL     1     -11.310  12.855   5.315  0.00  0.00    +0.046 A 
ATOM     37  C   UNL     1     -10.145  12.121   5.298  0.00  0.00    +0.011 A 
BRANCH  35  38
ATOM     38  O   UNL     1     -12.886  14.236   4.191  0.00  0.00    -0.495 OA
ATOM     39  C   UNL     1     -13.267  14.887   2.978  0.00  0.00    +0.277 C 
ENDBRANCH  35  38
ENDBRANCH  28  32
ENDBRANCH  23  24
ENDBRANCH  22  23
ENDBRANCH   2  22
TORSDOF 13
