REMARK  Name = ZINC04935402
REMARK  9 active torsions:
REMARK  status: ('A' for Active; 'I' for Inactive)
REMARK    1  A    between atoms: C_1  and  C_2
REMARK    2  A    between atoms: C_2  and  C_3
REMARK    3  A    between atoms: C_3  and  N_4
REMARK    4  A    between atoms: C_8  and  C_10
REMARK    5  A    between atoms: C_10  and  S_11
REMARK    6  A    between atoms: S_11  and  C_12
REMARK    7  A    between atoms: C_20  and  C_24
REMARK    8  A    between atoms: N_27  and  C_28
REMARK    9  A    between atoms: C_28  and  C_29
REMARK                            x       y       z     vdW  Elec       q    Type
REMARK                         _______ _______ _______ _____ _____    ______ ____
ROOT
ATOM      1  C   UNL     1      -1.793   3.703   0.694  0.00  0.00    +0.173 A 
ATOM      2  N   UNL     1      -1.842   5.020   0.684  0.00  0.00    -0.216 NA
ATOM      3  C   UNL     1      -0.874   5.740   1.239  0.00  0.00    +0.117 A 
ATOM      4  C   UNL     1       0.238   5.145   1.859  0.00  0.00    +0.076 A 
ATOM      5  C   UNL     1       1.223   6.069   2.426  0.00  0.00    -0.023 A 
ATOM      6  C   UNL     1       0.969   7.387   2.300  0.00  0.00    -0.004 A 
ATOM      7  S   UNL     1      -0.573   7.478   1.431  0.00  0.00    -0.073 S 
ATOM      8  C   UNL     1       1.813   8.524   2.790  0.00  0.00    +0.046 C 
ATOM      9  C   UNL     1       2.838   7.971   3.791  0.00  0.00    -0.009 C 
ATOM     10  C   UNL     1       3.495   6.728   3.185  0.00  0.00    +0.008 C 
ATOM     11  C   UNL     1       2.485   5.581   3.132  0.00  0.00    +0.037 C 
ATOM     12  C   UNL     1       3.903   9.033   4.073  0.00  0.00    +0.008 C 
ATOM     13  C   UNL     1       0.261   3.715   1.860  0.00  0.00    +0.263 A 
ATOM     14  O   UNL     1       1.184   3.112   2.380  0.00  0.00    -0.267 OA
ATOM     15  N   UNL     1      -0.749   3.044   1.275  0.00  0.00    -0.288 N 
ENDROOT
BRANCH  15  16
ATOM     16  C   UNL     1      -0.729   1.579   1.267  0.00  0.00    +0.124 C 
ATOM     17  C   UNL     1      -0.013   1.086   0.008  0.00  0.00    +0.027 C 
ENDBRANCH  15  16
BRANCH   1  18
ATOM     18  S   UNL     1      -3.095   2.780  -0.054  0.00  0.00    -0.078 S 
BRANCH  18  19
ATOM     19  C   UNL     1      -4.149   4.133  -0.631  0.00  0.00    +0.173 C 
BRANCH  19  24
ATOM     20  N   UNL     1      -8.307   4.713  -2.972  0.00  0.00    -0.299 N 
ATOM     21  C   UNL     1      -7.376   3.885  -2.458  0.00  0.00    +0.306 C 
ATOM     22  O   UNL     1      -7.514   2.682  -2.552  0.00  0.00    -0.252 OA
ATOM     23  N   UNL     1      -6.292   4.393  -1.838  0.00  0.00    -0.240 N 
ATOM     24  C   UNL     1      -5.361   3.566  -1.324  0.00  0.00    +0.231 C 
ATOM     25  O   UNL     1      -5.499   2.365  -1.418  0.00  0.00    -0.274 OA
ATOM     26  H   UNL     1      -8.197   5.674  -2.897  0.00  0.00    +0.150 HD
ATOM     27  H   UNL     1      -6.182   5.354  -1.763  0.00  0.00    +0.159 HD
BRANCH  20  28
ATOM     28  C   UNL     1      -9.486   4.161  -3.646  0.00  0.00    +0.105 C 
BRANCH  28  30
ATOM     29  C   UNL     1     -11.607   4.729  -4.836  0.00  0.00    +0.005 C 
ATOM     30  C   UNL     1     -10.377   5.305  -4.133  0.00  0.00    +0.015 C 
ENDBRANCH  28  30
ENDBRANCH  20  28
ENDBRANCH  19  24
ENDBRANCH  18  19
ENDBRANCH   1  18
TORSDOF 6
