REMARK  Name = ZINC30911742
REMARK  6 active torsions:
REMARK  status: ('A' for Active; 'I' for Inactive)
REMARK    1  A    between atoms: C_4  and  C_7
REMARK    2  A    between atoms: C_7  and  C_9
REMARK    3  A    between atoms: C_7  and  N_18
REMARK    4  A    between atoms: N_11  and  C_12
REMARK    5  A    between atoms: N_21  and  C_24
REMARK    6  A    between atoms: C_29  and  N_30
REMARK                            x       y       z     vdW  Elec       q    Type
REMARK                         _______ _______ _______ _____ _____    ______ ____
ROOT
ATOM      1  C   UNL     1       6.484   0.538  -0.182  0.00  0.00    +0.050 C 
ENDROOT
BRANCH   1   2
ATOM      2  N   UNL     1       5.450   1.221  -0.970  0.00  0.00    +0.392 N 
ATOM      3  C   UNL     1       5.593   2.680  -0.876  0.00  0.00    -0.058 C 
ATOM      4  C   UNL     1       4.453   3.353  -1.644  0.00  0.00    +0.086 C 
ATOM      5  N   UNL     1       4.483   2.913  -3.046  0.00  0.00    -0.332 N 
ATOM      6  C   UNL     1       4.340   1.454  -3.140  0.00  0.00    +0.086 C 
ATOM      7  C   UNL     1       5.480   0.781  -2.372  0.00  0.00    -0.058 C 
ATOM      8  H   UNL     1       4.471   0.948  -0.550  0.00  0.00    -0.080 HD
BRANCH   5   9
ATOM      9  C   UNL     1       3.500   3.562  -3.795  0.00  0.00    +0.060 A 
ATOM     10  C   UNL     1       2.160   3.425  -3.454  0.00  0.00    +0.025 A 
ATOM     11  C   UNL     1       1.190   4.068  -4.197  0.00  0.00    +0.002 A 
ATOM     12  C   UNL     1       1.551   4.849  -5.280  0.00  0.00    +0.002 A 
ATOM     13  C   UNL     1       2.884   4.993  -5.619  0.00  0.00    +0.034 A 
ATOM     14  C   UNL     1       3.859   4.347  -4.883  0.00  0.00    +0.147 A 
BRANCH  14  15
ATOM     15  N   UNL     1       5.285   4.497  -5.250  0.00  0.00    +0.058 N 
ATOM     16  O   UNL     1       5.599   5.186  -6.205  0.00  0.00    -0.126 OA
ATOM     17  O   UNL     1       6.144   3.932  -4.598  0.00  0.00    -0.126 OA
ENDBRANCH  14  15
ENDBRANCH   5   9
ENDBRANCH   1   2
BRANCH   1  21
ATOM     18  C   UNL     1       6.281   1.853   3.877  0.00  0.00    +0.000 A 
ATOM     19  C   UNL     1       7.506   1.738   3.249  0.00  0.00    +0.000 A 
ATOM     20  C   UNL     1       7.572   1.312   1.935  0.00  0.00    +0.002 A 
ATOM     21  C   UNL     1       6.412   1.002   1.250  0.00  0.00    -0.052 A 
ATOM     22  C   UNL     1       5.186   1.122   1.877  0.00  0.00    +0.002 A 
ATOM     23  C   UNL     1       5.121   1.544   3.192  0.00  0.00    +0.000 A 
ENDBRANCH   1  21
BRANCH   1  24
ATOM     24  C   UNL     1       6.259  -0.951  -0.240  0.00  0.00    +0.208 C 
ATOM     25  O   UNL     1       5.141  -1.389  -0.414  0.00  0.00    -0.277 OA
ATOM     26  N   UNL     1       7.299  -1.796  -0.098  0.00  0.00    -0.287 N 
ATOM     27  H   UNL     1       8.321  -1.400  -0.010  0.00  0.00    +0.155 HD
BRANCH  26  28
ATOM     28  C   UNL     1       7.078  -3.178  -0.061  0.00  0.00    +0.033 A 
ATOM     29  C   UNL     1       5.909  -3.681   0.493  0.00  0.00    +0.023 A 
ATOM     30  C   UNL     1       5.692  -5.045   0.522  0.00  0.00    +0.002 A 
ATOM     31  C   UNL     1       6.642  -5.909   0.010  0.00  0.00    +0.000 A 
ATOM     32  C   UNL     1       7.810  -5.411  -0.538  0.00  0.00    +0.002 A 
ATOM     33  C   UNL     1       8.031  -4.048  -0.575  0.00  0.00    +0.023 A 
ENDBRANCH  26  28
ENDBRANCH   1  24
TORSDOF 6
