REMARK  Name = ZINC59148661
REMARK  5 active torsions:
REMARK  status: ('A' for Active; 'I' for Inactive)
REMARK    1  A    between atoms: N_9  and  C_12
REMARK    2  A    between atoms: C_12  and  C_13
REMARK    3  A    between atoms: C_13  and  N_14
REMARK    4  A    between atoms: N_22  and  N_23
REMARK    5  A    between atoms: C_24  and  C_26
REMARK                            x       y       z     vdW  Elec       q    Type
REMARK                         _______ _______ _______ _____ _____    ______ ____
ROOT
ATOM      1  N   UNL     1       4.718  -5.109  -1.515  0.00  0.00    -0.264 N 
ATOM      2  C   UNL     1       6.107  -5.183  -1.524  0.00  0.00    +0.046 A 
ATOM      3  C   UNL     1       7.085  -4.194  -1.522  0.00  0.00    +0.024 A 
ATOM      4  C   UNL     1       8.421  -4.540  -1.533  0.00  0.00    +0.002 A 
ATOM      5  C   UNL     1       8.804  -5.871  -1.546  0.00  0.00    +0.001 A 
ATOM      6  C   UNL     1       7.848  -6.866  -1.548  0.00  0.00    +0.012 A 
ATOM      7  C   UNL     1       6.499  -6.527  -1.536  0.00  0.00    +0.028 A 
ATOM      8  C   UNL     1       5.253  -7.327  -1.535  0.00  0.00    +0.153 C 
ATOM      9  N   UNL     1       5.142  -8.634  -1.544  0.00  0.00    -0.174 NA
ATOM     10  C   UNL     1       4.162  -6.332  -1.515  0.00  0.00    +0.271 C 
ATOM     11  O   UNL     1       2.969  -6.576  -1.504  0.00  0.00    -0.268 OA
ENDROOT
BRANCH   9  12
ATOM     12  N   UNL     1       3.874  -9.229  -1.541  0.00  0.00    -0.201 N 
ATOM     13  C   UNL     1       3.760 -10.572  -1.550  0.00  0.00    +0.288 C 
ATOM     14  O   UNL     1       4.757 -11.267  -1.561  0.00  0.00    -0.266 OA
ATOM     15  H   UNL     1       3.078  -8.675  -1.532  0.00  0.00    +0.178 HD
BRANCH  13  16
ATOM     16  C   UNL     1       2.423 -11.200  -1.547  0.00  0.00    +0.166 A 
ATOM     17  N   UNL     1       1.241 -10.624  -1.542  0.00  0.00    -0.234 NA
ATOM     18  C   UNL     1       0.098 -11.318  -1.540  0.00  0.00    +0.079 A 
ATOM     19  C   UNL     1      -1.230 -10.819  -1.534  0.00  0.00    +0.029 A 
ATOM     20  C   UNL     1      -2.291 -11.667  -1.532  0.00  0.00    +0.002 A 
ATOM     21  C   UNL     1      -2.124 -13.047  -1.535  0.00  0.00    +0.001 A 
ATOM     22  C   UNL     1      -0.849 -13.577  -1.541  0.00  0.00    +0.017 A 
ATOM     23  C   UNL     1       0.234 -12.730  -1.543  0.00  0.00    +0.040 A 
ATOM     24  S   UNL     1       1.998 -12.937  -1.557  0.00  0.00    -0.063 S 
ENDBRANCH  13  16
ENDBRANCH   9  12
BRANCH   1  25
ATOM     25  C   UNL     1       3.959  -3.857  -1.501  0.00  0.00    +0.133 C 
BRANCH  25  26
ATOM     26  C   UNL     1       3.709  -3.428  -0.053  0.00  0.00    +0.136 C 
BRANCH  26  35
ATOM     27  C   UNL     1      -0.017   1.382   0.010  0.00  0.00    +0.001 A 
ATOM     28  C   UNL     1       1.165   2.099   0.002  0.00  0.00    +0.001 A 
ATOM     29  C   UNL     1       2.385   1.442  -0.013  0.00  0.00    +0.014 A 
ATOM     30  C   UNL     1       2.420   0.056  -0.021  0.00  0.00    +0.049 A 
ATOM     31  C   UNL     1       1.215  -0.675  -0.013  0.00  0.00    +0.049 A 
ATOM     32  C   UNL     1       0.002  -0.004   0.002  0.00  0.00    +0.014 A 
ATOM     33  C   UNL     1       1.606  -2.100  -0.025  0.00  0.00    +0.254 C 
ATOM     34  O   UNL     1       0.843  -3.045  -0.023  0.00  0.00    -0.270 OA
ATOM     35  N   UNL     1       2.949  -2.175  -0.039  0.00  0.00    -0.233 N 
ATOM     36  C   UNL     1       3.503  -0.949  -0.038  0.00  0.00    +0.254 C 
ATOM     37  O   UNL     1       4.693  -0.709  -0.049  0.00  0.00    -0.270 OA
ENDBRANCH  26  35
ENDBRANCH  25  26
ENDBRANCH   1  25
TORSDOF 5
