REMARK  Name = ZINC35198305
REMARK  10 active torsions:
REMARK  status: ('A' for Active; 'I' for Inactive)
REMARK    1  A    between atoms: C_1  and  C_2
REMARK    2  A    between atoms: C_6  and  C_8
REMARK    3  A    between atoms: C_8  and  S_9
REMARK    4  A    between atoms: S_9  and  C_10
REMARK    5  A    between atoms: C_13  and  C_24
REMARK    6  A    between atoms: N_14  and  C_15
REMARK    7  A    between atoms: C_18  and  N_21
REMARK    8  A    between atoms: C_24  and  C_26
REMARK    9  A    between atoms: C_24  and  N_33
REMARK   10  A    between atoms: C_26  and  C_27
REMARK                            x       y       z     vdW  Elec       q    Type
REMARK                         _______ _______ _______ _____ _____    ______ ____
ROOT
ATOM      1  C   UNL     1       1.622  -4.015   4.517  0.00  0.00    +0.196 A 
ATOM      2  N   UNL     1       0.504  -4.376   5.104  0.00  0.00    -0.122 NA
ATOM      3  N   UNL     1       0.766  -5.007   6.192  0.00  0.00    -0.135 NA
ATOM      4  C   UNL     1       2.054  -5.088   6.366  0.00  0.00    +0.124 A 
ATOM      5  N   UNL     1       2.649  -4.463   5.301  0.00  0.00    -0.276 N 
ENDROOT
BRANCH   5   6
ATOM      6  C   UNL     1       4.023  -4.313   5.066  0.00  0.00    +0.050 A 
ATOM      7  C   UNL     1       4.813  -5.428   4.824  0.00  0.00    +0.028 A 
ATOM      8  C   UNL     1       6.167  -5.277   4.593  0.00  0.00    +0.035 A 
ATOM      9  C   UNL     1       6.734  -4.016   4.602  0.00  0.00    +0.126 A 
ATOM     10  C   UNL     1       5.950  -2.904   4.843  0.00  0.00    +0.035 A 
ATOM     11  C   UNL     1       4.595  -3.048   5.069  0.00  0.00    +0.028 A 
BRANCH   9  12
ATOM     12  N   UNL     1       8.185  -3.858   4.355  0.00  0.00    +0.056 N 
ATOM     13  O   UNL     1       8.873  -4.830   4.145  0.00  0.00    -0.126 OA
ATOM     14  O   UNL     1       8.683  -2.756   4.363  0.00  0.00    -0.126 OA
ENDBRANCH   9  12
ENDBRANCH   5   6
BRANCH   1  15
ATOM     15  S   UNL     1       1.770  -3.127   3.002  0.00  0.00    -0.081 S 
BRANCH  15  16
ATOM     16  C   UNL     1       0.054  -2.845   2.489  0.00  0.00    +0.112 C 
BRANCH  16  22
ATOM     17  C   UNL     1      -0.018   1.503   0.010  0.00  0.00    +0.044 C 
ATOM     18  C   UNL     1       0.002  -0.004   0.002  0.00  0.00    -0.050 A 
ATOM     19  C   UNL     1       0.006  -0.689  -1.199  0.00  0.00    +0.003 A 
ATOM     20  C   UNL     1       0.025  -2.071  -1.207  0.00  0.00    +0.001 A 
ATOM     21  C   UNL     1       0.040  -2.768  -0.013  0.00  0.00    +0.004 A 
ATOM     22  C   UNL     1       0.037  -2.084   1.188  0.00  0.00    -0.037 A 
ATOM     23  C   UNL     1       0.023  -0.702   1.195  0.00  0.00    +0.007 A 
ENDBRANCH  16  22
ENDBRANCH  15  16
ENDBRANCH   1  15
BRANCH   4  24
ATOM     24  C   UNL     1       2.761  -5.750   7.521  0.00  0.00    -0.001 C 
BRANCH  24  25
ATOM     25  N   UNL     1       2.111  -5.362   8.780  0.00  0.00    +0.385 N 
ATOM     26  H   UNL     1       1.145  -5.654   8.764  0.00  0.00    -0.089 HD
ATOM     27  H   UNL     1       2.584  -5.805   9.553  0.00  0.00    -0.089 HD
ATOM     28  H   UNL     1       2.158  -4.359   8.887  0.00  0.00    -0.089 HD
ENDBRANCH  24  25
BRANCH  24  29
ATOM     29  C   UNL     1       2.690  -7.270   7.358  0.00  0.00    +0.026 C 
BRANCH  29  30
ATOM     30  C   UNL     1       3.499  -7.930   8.445  0.00  0.00    -0.049 A 
ATOM     31  C   UNL     1       4.840  -8.197   8.242  0.00  0.00    +0.003 A 
ATOM     32  C   UNL     1       5.583  -8.802   9.239  0.00  0.00    +0.000 A 
ATOM     33  C   UNL     1       4.984  -9.140  10.438  0.00  0.00    +0.000 A 
ATOM     34  C   UNL     1       3.643  -8.871  10.641  0.00  0.00    +0.000 A 
ATOM     35  C   UNL     1       2.902  -8.262   9.646  0.00  0.00    +0.003 A 
ENDBRANCH  29  30
ENDBRANCH  24  29
ENDBRANCH   4  24
TORSDOF 9
