REMARK  Name = ZINC33250762
REMARK  10 active torsions:
REMARK  status: ('A' for Active; 'I' for Inactive)
REMARK    1  A    between atoms: C_1  and  C_2
REMARK    2  A    between atoms: C_4  and  C_37
REMARK    3  A    between atoms: C_5  and  N_9
REMARK    4  A    between atoms: C_6  and  C_8
REMARK    5  A    between atoms: C_10  and  C_12
REMARK    6  A    between atoms: N_17  and  S_19
REMARK    7  A    between atoms: S_19  and  C_22
REMARK    8  A    between atoms: C_23  and  C_36
REMARK    9  A    between atoms: C_26  and  C_27
REMARK   10  A    between atoms: C_28  and  C_29
REMARK                            x       y       z     vdW  Elec       q    Type
REMARK                         _______ _______ _______ _____ _____    ______ ____
ROOT
ATOM      1  C   UNL     1      -1.189   2.184  -0.637  0.00  0.00    +0.091 C 
ATOM      2  C   UNL     1      -1.005   3.646  -1.051  0.00  0.00    +0.015 C 
ATOM      3  C   UNL     1      -2.354   4.367  -0.995  0.00  0.00    +0.018 C 
ATOM      4  C   UNL     1      -3.323   3.705  -1.979  0.00  0.00    +0.109 C 
ATOM      5  N   UNL     1      -3.394   2.268  -1.678  0.00  0.00    -0.176 NA
ATOM      6  C   UNL     1      -2.145   1.497  -1.617  0.00  0.00    +0.122 C 
ENDROOT
BRANCH   1   8
ATOM      7  N   UNL     1       1.152   1.923   0.120  0.00  0.00    -0.285 N 
ATOM      8  C   UNL     1       0.145   1.483  -0.661  0.00  0.00    +0.222 C 
ATOM      9  O   UNL     1       0.315   0.526  -1.387  0.00  0.00    -0.275 OA
ATOM     10  H   UNL     1       1.017   2.826   0.734  0.00  0.00    +0.155 HD
BRANCH   7  15
ATOM     11  C   UNL     1       6.081  -0.883   0.243  0.00  0.00    +0.044 C 
ATOM     12  C   UNL     1       4.771  -0.138   0.211  0.00  0.00    -0.050 A 
ATOM     13  C   UNL     1       4.758   1.224  -0.033  0.00  0.00    +0.008 A 
ATOM     14  C   UNL     1       3.560   1.909  -0.064  0.00  0.00    -0.029 A 
ATOM     15  C   UNL     1       2.367   1.231   0.151  0.00  0.00    +0.039 A 
ATOM     16  C   UNL     1       2.384  -0.135   0.402  0.00  0.00    -0.029 A 
ATOM     17  C   UNL     1       3.586  -0.816   0.425  0.00  0.00    +0.008 A 
ATOM     18  C   UNL     1       1.093  -0.874   0.642  0.00  0.00    +0.045 C 
ATOM     19  C   UNL     1       3.546   3.393  -0.330  0.00  0.00    +0.045 C 
ENDBRANCH   7  15
ENDBRANCH   1   8
BRANCH   5  20
ATOM     20  S   UNL     1      -4.854   1.533  -1.413  0.00  0.00    +0.066 S 
ATOM     21  O   UNL     1      -4.589   0.376  -0.631  0.00  0.00    -0.153 OA
ATOM     22  O   UNL     1      -5.750   2.550  -0.988  0.00  0.00    -0.153 OA
BRANCH  20  23
ATOM     23  C   UNL     1      -5.441   0.963  -2.973  0.00  0.00    +0.174 A 
ATOM     24  C   UNL     1      -5.215  -0.285  -3.583  0.00  0.00    +0.107 A 
ATOM     25  N   UNL     1      -5.841  -0.262  -4.726  0.00  0.00    -0.081 NA
ATOM     26  O   UNL     1      -6.409   0.789  -4.912  0.00  0.00    -0.353 OA
ATOM     27  C   UNL     1      -6.233   1.632  -3.876  0.00  0.00    +0.187 A 
ATOM     28  C   UNL     1      -4.406  -1.427  -3.024  0.00  0.00    +0.071 C 
BRANCH  27  29
ATOM     29  C   UNL     1      -6.772   2.988  -3.741  0.00  0.00    +0.052 C 
ATOM     30  C   UNL     1      -7.538   3.509  -4.719  0.00  0.00    +0.014 C 
BRANCH  30  31
ATOM     31  C   UNL     1      -8.080   4.870  -4.584  0.00  0.00    +0.010 A 
ATOM     32  C   UNL     1      -7.803   5.627  -3.441  0.00  0.00    +0.011 A 
ATOM     33  C   UNL     1      -8.314   6.901  -3.321  0.00  0.00    +0.001 A 
ATOM     34  C   UNL     1      -9.101   7.435  -4.327  0.00  0.00    +0.003 A 
ATOM     35  C   UNL     1      -9.380   6.695  -5.462  0.00  0.00    +0.039 A 
ATOM     36  C   UNL     1      -8.871   5.418  -5.601  0.00  0.00    +0.131 A 
ATOM     37  F   UNL     1      -9.141   4.697  -6.712  0.00  0.00    -0.205 F 
ENDBRANCH  30  31
ENDBRANCH  27  29
ENDBRANCH  20  23
ENDBRANCH   5  20
TORSDOF 6
