REMARK  Name = ZINC36610013
REMARK  11 active torsions:
REMARK  status: ('A' for Active; 'I' for Inactive)
REMARK    1  A    between atoms: C_1  and  C_2
REMARK    2  A    between atoms: C_2  and  C_3
REMARK    3  A    between atoms: C_3  and  C_4
REMARK    4  A    between atoms: C_4  and  N_5
REMARK    5  A    between atoms: C_6  and  C_8
REMARK    6  A    between atoms: C_8  and  C_10
REMARK    7  A    between atoms: C_8  and  N_16
REMARK    8  A    between atoms: N_16  and  C_17
REMARK    9  A    between atoms: C_23  and  C_25
REMARK   10  A    between atoms: C_26  and  O_32
REMARK   11  A    between atoms: C_30  and  O_31
REMARK                            x       y       z     vdW  Elec       q    Type
REMARK                         _______ _______ _______ _____ _____    ______ ____
ROOT
ATOM      1  N   UNL     1      -4.531  -5.687   0.365  0.00  0.00    -0.255 N 
ATOM      2  C   UNL     1      -5.148  -6.529  -0.488  0.00  0.00    +0.259 C 
ATOM      3  O   UNL     1      -5.604  -6.109  -1.534  0.00  0.00    -0.269 OA
ENDROOT
BRANCH   1   4
ATOM      4  C   UNL     1      -3.927  -6.184   1.524  0.00  0.00    +0.037 A 
ATOM      5  C   UNL     1      -2.753  -6.922   1.435  0.00  0.00    +0.023 A 
ATOM      6  C   UNL     1      -2.159  -7.411   2.581  0.00  0.00    +0.002 A 
ATOM      7  C   UNL     1      -2.730  -7.168   3.816  0.00  0.00    +0.000 A 
ATOM      8  C   UNL     1      -3.899  -6.434   3.908  0.00  0.00    +0.002 A 
ATOM      9  C   UNL     1      -4.495  -5.936   2.766  0.00  0.00    +0.023 A 
ENDBRANCH   1   4
BRANCH   2  10
ATOM     10  C   UNL     1      -5.269  -7.957  -0.153  0.00  0.00    +0.120 A 
ATOM     11  C   UNL     1      -6.324  -8.406   0.656  0.00  0.00    +0.133 A 
ATOM     12  C   UNL     1      -6.428  -9.752   0.965  0.00  0.00    +0.046 A 
ATOM     13  C   UNL     1      -5.499 -10.653   0.478  0.00  0.00    +0.007 A 
ATOM     14  C   UNL     1      -4.456 -10.222  -0.320  0.00  0.00    +0.046 A 
ATOM     15  C   UNL     1      -4.335  -8.880  -0.646  0.00  0.00    +0.133 A 
BRANCH  15  16
ATOM     16  O   UNL     1      -3.314  -8.460  -1.434  0.00  0.00    -0.506 OA
ATOM     17  H   UNL     1      -2.493  -8.285  -0.954  0.00  0.00    +0.292 HD
ENDBRANCH  15  16
BRANCH  11  18
ATOM     18  O   UNL     1      -7.237  -7.525   1.135  0.00  0.00    -0.506 OA
ATOM     19  H   UNL     1      -8.000  -7.395   0.556  0.00  0.00    +0.292 HD
ENDBRANCH  11  18
ENDBRANCH   2  10
BRANCH   1  20
ATOM     20  C   UNL     1      -4.495  -4.251   0.077  0.00  0.00    +0.170 C 
BRANCH  20  21
ATOM     21  C   UNL     1      -5.295  -3.497   1.142  0.00  0.00    +0.019 C 
ATOM     22  C   UNL     1      -6.718  -4.056   1.199  0.00  0.00    +0.006 C 
ATOM     23  C   UNL     1      -7.519  -3.302   2.264  0.00  0.00    +0.000 C 
ATOM     24  C   UNL     1      -7.568  -1.815   1.907  0.00  0.00    +0.000 C 
ATOM     25  C   UNL     1      -6.145  -1.257   1.849  0.00  0.00    +0.000 C 
ATOM     26  C   UNL     1      -5.345  -2.010   0.785  0.00  0.00    +0.006 C 
ENDBRANCH  20  21
BRANCH  20  28
ATOM     27  N   UNL     1      -2.757  -2.558  -0.404  0.00  0.00    -0.314 N 
ATOM     28  C   UNL     1      -3.066  -3.772   0.091  0.00  0.00    +0.234 C 
ATOM     29  O   UNL     1      -2.193  -4.480   0.548  0.00  0.00    -0.274 OA
ATOM     30  H   UNL     1      -3.439  -2.025  -0.842  0.00  0.00    +0.149 HD
BRANCH  27  31
ATOM     31  C   UNL     1      -1.391  -2.042  -0.281  0.00  0.00    +0.104 C 
BRANCH  31  32
ATOM     32  C   UNL     1      -1.311  -0.654  -0.921  0.00  0.00    +0.018 C 
BRANCH  32  34
ATOM     33  C   UNL     1       0.196   1.272  -1.432  0.00  0.00    +0.004 C 
ATOM     34  C   UNL     1       0.115  -0.115  -0.792  0.00  0.00    -0.002 C 
ENDBRANCH  32  34
ENDBRANCH  31  32
ENDBRANCH  27  31
ENDBRANCH  20  28
ENDBRANCH   1  20
TORSDOF 10
