REMARK  Name = ZINC40391308
REMARK  11 active torsions:
REMARK  status: ('A' for Active; 'I' for Inactive)
REMARK    1  A    between atoms: C_1  and  C_2
REMARK    2  A    between atoms: C_2  and  O_3
REMARK    3  A    between atoms: O_3  and  C_4
REMARK    4  A    between atoms: C_4  and  C_6
REMARK    5  A    between atoms: C_7  and  C_23
REMARK    6  A    between atoms: N_8  and  C_22
REMARK    7  A    between atoms: C_12  and  C_14
REMARK    8  A    between atoms: C_17  and  O_20
REMARK    9  A    between atoms: O_20  and  C_21
REMARK   10  A    between atoms: C_23  and  N_24
REMARK   11  A    between atoms: C_27  and  C_30
REMARK                            x       y       z     vdW  Elec       q    Type
REMARK                         _______ _______ _______ _____ _____    ______ ____
ROOT
ATOM      1  C   UNL     1       1.135  -2.338  -2.473  0.00  0.00    +0.076 C 
ATOM      2  C   UNL     1       1.564  -3.603  -2.668  0.00  0.00    +0.010 C 
ATOM      3  N   UNL     1       2.495  -3.892  -3.624  0.00  0.00    -0.264 N 
ATOM      4  C   UNL     1       3.048  -2.971  -4.425  0.00  0.00    +0.307 C 
ATOM      5  O   UNL     1       3.870  -3.325  -5.247  0.00  0.00    -0.252 OA
ATOM      6  N   UNL     1       2.721  -1.666  -4.349  0.00  0.00    -0.288 N 
ATOM      7  C   UNL     1       1.719  -1.251  -3.353  0.00  0.00    +0.143 C 
ATOM      8  C   UNL     1       2.915  -5.287  -3.782  0.00  0.00    +0.139 C 
ATOM      9  H   UNL     1       3.134  -1.016  -4.939  0.00  0.00    +0.151 HD
ENDROOT
BRANCH   7  10
ATOM     10  C   UNL     1       2.359  -0.222  -2.458  0.00  0.00    -0.022 A 
ATOM     11  C   UNL     1       3.620  -0.449  -1.937  0.00  0.00    +0.009 A 
ATOM     12  C   UNL     1       4.209   0.493  -1.115  0.00  0.00    +0.046 A 
ATOM     13  C   UNL     1       3.535   1.667  -0.814  0.00  0.00    +0.120 A 
ATOM     14  C   UNL     1       2.270   1.893  -1.338  0.00  0.00    +0.046 A 
ATOM     15  C   UNL     1       1.688   0.950  -2.163  0.00  0.00    +0.009 A 
BRANCH  13  16
ATOM     16  O   UNL     1       4.112   2.595  -0.006  0.00  0.00    -0.495 OA
ATOM     17  C   UNL     1       3.360   3.780   0.262  0.00  0.00    +0.277 C 
ENDBRANCH  13  16
ENDBRANCH   7  10
BRANCH   1  18
ATOM     18  C   UNL     1       0.170  -2.037  -1.483  0.00  0.00    +0.339 C 
ATOM     19  O   UNL     1      -0.372  -2.937  -0.869  0.00  0.00    -0.245 OA
BRANCH  18  20
ATOM     20  O   UNL     1      -0.150  -0.753  -1.221  0.00  0.00    -0.462 OA
BRANCH  20  22
ATOM     21  C   UNL     1      -1.363   0.982  -0.054  0.00  0.00    +0.048 C 
ATOM     22  C   UNL     1      -1.133  -0.523  -0.209  0.00  0.00    +0.229 C 
ENDBRANCH  20  22
ENDBRANCH  18  20
ENDBRANCH   1  18
BRANCH   2  23
ATOM     23  C   UNL     1       1.005  -4.715  -1.818  0.00  0.00    -0.026 C 
BRANCH  23  24
ATOM     24  N   UNL     1      -0.285  -5.152  -2.369  0.00  0.00    +0.383 N 
ATOM     25  C   UNL     1      -0.074  -5.736  -3.699  0.00  0.00    -0.078 C 
ATOM     26  C   UNL     1      -1.423  -6.119  -4.311  0.00  0.00    -0.016 C 
ATOM     27  C   UNL     1      -2.116  -7.142  -3.407  0.00  0.00    -0.018 C 
ATOM     28  C   UNL     1      -2.264  -6.550  -2.002  0.00  0.00    -0.016 C 
ATOM     29  C   UNL     1      -0.884  -6.151  -1.476  0.00  0.00    -0.078 C 
ATOM     30  C   UNL     1      -3.500  -7.470  -3.972  0.00  0.00    +0.007 C 
ATOM     31  H   UNL     1      -0.903  -4.358  -2.447  0.00  0.00    -0.081 HD
ENDBRANCH  23  24
ENDBRANCH   2  23
TORSDOF 7
