REMARK  Name = ZINC08817094
REMARK  8 active torsions:
REMARK  status: ('A' for Active; 'I' for Inactive)
REMARK    1  A    between atoms: C_1  and  C_2
REMARK    2  A    between atoms: C_2  and  N_65
REMARK    3  A    between atoms: N_5  and  C_8
REMARK    4  A    between atoms: C_9  and  C_20
REMARK    5  A    between atoms: C_16  and  C_19
REMARK    6  A    between atoms: N_24  and  C_28
REMARK    7  A    between atoms: C_28  and  C_30
REMARK    8  A    between atoms: C_28  and  C_31
REMARK                            x       y       z     vdW  Elec       q    Type
REMARK                         _______ _______ _______ _____ _____    ______ ____
ROOT
ATOM      1  C   UNL     1      -0.908  -0.418   0.579  0.00  0.00    +0.136 A 
ATOM      2  C   UNL     1      -1.250  -1.676   0.029  0.00  0.00    +0.081 A 
ATOM      3  C   UNL     1      -2.617  -1.955  -0.211  0.00  0.00    +0.267 A 
ATOM      4  O   UNL     1      -2.957  -3.026  -0.684  0.00  0.00    -0.267 OA
ATOM      5  N   UNL     1      -3.538  -1.015   0.094  0.00  0.00    -0.267 N 
ATOM      6  C   UNL     1      -4.857  -1.275  -0.133  0.00  0.00    +0.096 A 
ATOM      7  C   UNL     1      -5.804  -0.356   0.159  0.00  0.00    +0.019 A 
ATOM      8  C   UNL     1      -5.437   0.882   0.704  0.00  0.00    +0.008 A 
ATOM      9  C   UNL     1      -4.121   1.152   0.935  0.00  0.00    -0.007 A 
ATOM     10  C   UNL     1      -3.149   0.183   0.624  0.00  0.00    +0.145 A 
ATOM     11  N   UNL     1      -1.865   0.455   0.858  0.00  0.00    -0.213 NA
ATOM     12  C   UNL     1      -3.710   2.478   1.522  0.00  0.00    +0.047 C 
ENDROOT
BRANCH   2  13
ATOM     13  C   UNL     1      -0.252  -2.631  -0.274  0.00  0.00    +0.037 C 
ATOM     14  C   UNL     1       0.767  -2.307  -1.123  0.00  0.00    +0.077 C 
ATOM     15  C   UNL     1       1.867  -3.098  -1.561  0.00  0.00    +0.259 C 
ATOM     16  O   UNL     1       2.007  -4.246  -1.175  0.00  0.00    -0.269 OA
ATOM     17  N   UNL     1       2.731  -2.554  -2.401  0.00  0.00    -0.248 N 
ATOM     18  C   UNL     1       2.580  -1.278  -2.822  0.00  0.00    +0.121 C 
ATOM     19  S   UNL     1       3.570  -0.377  -3.890  0.00  0.00    -0.027 S 
ATOM     20  S   UNL     1       1.086  -0.773  -1.983  0.00  0.00    -0.061 S 
BRANCH  17  21
ATOM     21  C   UNL     1       3.871  -3.341  -2.875  0.00  0.00    +0.110 C 
ATOM     22  C   UNL     1       3.937  -4.661  -2.103  0.00  0.00    +0.033 C 
BRANCH  21  23
ATOM     23  C   UNL     1       3.706  -3.628  -4.346  0.00  0.00    -0.027 A 
ATOM     24  C   UNL     1       2.449  -3.874  -4.865  0.00  0.00    +0.005 A 
ATOM     25  C   UNL     1       2.297  -4.132  -6.215  0.00  0.00    +0.000 A 
ATOM     26  C   UNL     1       3.404  -4.154  -7.043  0.00  0.00    +0.000 A 
ATOM     27  C   UNL     1       4.662  -3.913  -6.522  0.00  0.00    +0.000 A 
ATOM     28  C   UNL     1       4.813  -3.650  -5.174  0.00  0.00    +0.005 A 
ENDBRANCH  21  23
ENDBRANCH  17  21
ENDBRANCH   2  13
BRANCH   1  31
ATOM     29  C   UNL     1       2.039   1.636   1.384  0.00  0.00    -0.060 C 
ATOM     30  C   UNL     1       0.556   1.310   1.194  0.00  0.00    +0.088 C 
ATOM     31  N   UNL     1       0.410  -0.105   0.827  0.00  0.00    -0.318 N 
ATOM     32  C   UNL     1       0.971  -0.977   1.870  0.00  0.00    +0.088 C 
ATOM     33  C   UNL     1       2.454  -0.651   2.060  0.00  0.00    -0.060 C 
ATOM     34  N   UNL     1       2.584   0.769   2.449  0.00  0.00    +0.382 N 
ATOM     35  H   UNL     1       2.053   0.928   3.314  0.00  0.00    -0.082 HD
BRANCH  34  37
ATOM     36  C   UNL     1       4.091   2.497   3.306  0.00  0.00    -0.017 C 
ATOM     37  C   UNL     1       4.005   1.098   2.691  0.00  0.00    -0.082 C 
ENDBRANCH  34  37
ENDBRANCH   1  31
TORSDOF 5
