REMARK  Name = ZINC02385214
REMARK  8 active torsions:
REMARK  status: ('A' for Active; 'I' for Inactive)
REMARK    1  A    between atoms: C_1  and  C_2
REMARK    2  A    between atoms: C_2  and  C_4
REMARK    3  A    between atoms: C_4  and  N_5
REMARK    4  A    between atoms: C_6  and  C_26
REMARK    5  A    between atoms: C_9  and  S_10
REMARK    6  A    between atoms: S_10  and  C_11
REMARK    7  A    between atoms: C_11  and  C_12
REMARK    8  A    between atoms: N_14  and  N_15
REMARK                            x       y       z     vdW  Elec       q    Type
REMARK                         _______ _______ _______ _____ _____    ______ ____
ROOT
ATOM      1  S   UNL     1      -1.786   1.948  -2.453  0.00  0.00    -0.077 S 
ENDROOT
BRANCH   1   6
ATOM      2  N   UNL     1      -1.426  -0.555  -1.256  0.00  0.00    -0.298 N 
ATOM      3  C   UNL     1      -2.003  -1.799  -1.366  0.00  0.00    +0.165 A 
ATOM      4  N   UNL     1      -2.940  -1.710  -2.281  0.00  0.00    -0.128 NA
ATOM      5  N   UNL     1      -2.987  -0.512  -2.745  0.00  0.00    -0.122 NA
ATOM      6  C   UNL     1      -2.087   0.238  -2.150  0.00  0.00    +0.193 A 
BRANCH   3   7
ATOM      7  C   UNL     1      -1.638  -3.008  -0.598  0.00  0.00    +0.019 A 
ATOM      8  C   UNL     1      -2.620  -3.931  -0.234  0.00  0.00    +0.012 A 
ATOM      9  C   UNL     1      -2.272  -5.057   0.482  0.00  0.00    +0.016 A 
ATOM     10  C   UNL     1      -0.952  -5.274   0.840  0.00  0.00    +0.018 A 
ATOM     11  C   UNL     1       0.026  -4.362   0.482  0.00  0.00    +0.016 A 
ATOM     12  C   UNL     1      -0.308  -3.235  -0.239  0.00  0.00    +0.012 A 
ATOM     13 BR   UNL     1      -0.484  -6.821   1.822  0.00  0.00    -0.050 Br
ENDBRANCH   3   7
BRANCH   2  14
ATOM     14  C   UNL     1      -0.334  -0.162  -0.363  0.00  0.00    +0.155 C 
BRANCH  14  16
ATOM     15  C   UNL     1      -1.426   1.550   1.278  0.00  0.00    +0.040 C 
ATOM     16  C   UNL     1      -0.892   0.169   0.998  0.00  0.00    -0.060 C 
ATOM     17  C   UNL     1      -0.913  -0.745   1.936  0.00  0.00    +0.009 C 
ENDBRANCH  14  16
ENDBRANCH   2  14
ENDBRANCH   1   6
BRANCH   1  18
ATOM     18  C   UNL     1      -2.991   2.385  -3.736  0.00  0.00    +0.174 C 
BRANCH  18  19
ATOM     19  C   UNL     1      -2.839   3.841  -4.093  0.00  0.00    +0.242 C 
ATOM     20  O   UNL     1      -2.001   4.518  -3.535  0.00  0.00    -0.273 OA
ATOM     21  N   UNL     1      -3.635   4.392  -5.030  0.00  0.00    -0.206 N 
ATOM     22  H   UNL     1      -4.305   3.851  -5.476  0.00  0.00    +0.177 HD
BRANCH  21  23
ATOM     23  N   UNL     1      -3.494   5.746  -5.362  0.00  0.00    -0.175 NA
ATOM     24  C   UNL     1      -4.324   6.304  -6.209  0.00  0.00    +0.152 C 
ATOM     25  C   UNL     1      -5.380   5.639  -7.007  0.00  0.00    +0.028 A 
ATOM     26  C   UNL     1      -5.806   4.319  -7.112  0.00  0.00    +0.012 A 
ATOM     27  C   UNL     1      -6.844   4.000  -7.964  0.00  0.00    +0.001 A 
ATOM     28  C   UNL     1      -7.458   4.992  -8.711  0.00  0.00    +0.002 A 
ATOM     29  C   UNL     1      -7.044   6.304  -8.613  0.00  0.00    +0.024 A 
ATOM     30  C   UNL     1      -5.999   6.645  -7.760  0.00  0.00    +0.043 A 
ATOM     31  N   UNL     1      -5.397   7.866  -7.479  0.00  0.00    -0.280 N 
ATOM     32  C   UNL     1      -4.414   7.732  -6.573  0.00  0.00    +0.269 C 
ATOM     33  O   UNL     1      -3.718   8.629  -6.133  0.00  0.00    -0.268 OA
ATOM     34  H   UNL     1      -5.658   8.709  -7.881  0.00  0.00    +0.155 HD
ENDBRANCH  21  23
ENDBRANCH  18  19
ENDBRANCH   1  18
TORSDOF 7
