REMARK  Name = ZINC49521767
REMARK  9 active torsions:
REMARK  status: ('A' for Active; 'I' for Inactive)
REMARK    1  A    between atoms: C_1  and  N_2
REMARK    2  A    between atoms: C_6  and  C_7
REMARK    3  A    between atoms: C_7  and  N_8
REMARK    4  A    between atoms: N_8  and  C_9
REMARK    5  A    between atoms: C_9  and  C_10
REMARK    6  A    between atoms: C_15  and  C_17
REMARK    7  A    between atoms: C_17  and  N_18
REMARK    8  A    between atoms: N_25  and  C_30
REMARK    9  A    between atoms: N_28  and  C_29
REMARK                            x       y       z     vdW  Elec       q    Type
REMARK                         _______ _______ _______ _____ _____    ______ ____
ROOT
ATOM      1  N   UNL     1       1.407  -0.049   2.951  0.00  0.00    -0.289 N 
ATOM      2  C   UNL     1       2.160  -1.021   3.503  0.00  0.00    +0.236 C 
ATOM      3  O   UNL     1       1.698  -2.132   3.657  0.00  0.00    -0.274 OA
ENDROOT
BRANCH   1   4
ATOM      4  C   UNL     1       0.031  -0.335   2.538  0.00  0.00    +0.161 C 
BRANCH   4  10
ATOM      5  C   UNL     1      -0.018   1.461   0.010  0.00  0.00    +0.148 C 
ATOM      6  N   UNL     1       0.002  -0.004   0.002  0.00  0.00    -0.352 N 
ATOM      7  C   UNL     1       0.008  -0.792  -1.110  0.00  0.00    +0.085 A 
ATOM      8  C   UNL     1       0.027  -2.081  -0.714  0.00  0.00    +0.019 A 
ATOM      9  C   UNL     1       0.033  -2.089   0.695  0.00  0.00    +0.024 A 
ATOM     10  C   UNL     1       0.023  -0.804   1.106  0.00  0.00    +0.036 A 
ENDBRANCH   4  10
ENDBRANCH   1   4
BRANCH   1  11
ATOM     11  C   UNL     1       1.964   1.293   2.765  0.00  0.00    +0.150 C 
BRANCH  11  12
ATOM     12  C   UNL     1       1.690   2.125   3.991  0.00  0.00    +0.007 A 
ATOM     13  C   UNL     1       2.449   2.280   5.104  0.00  0.00    +0.013 A 
ATOM     14  C   UNL     1       1.994   3.105   6.116  0.00  0.00    +0.008 A 
ATOM     15  C   UNL     1       0.802   3.733   5.965  0.00  0.00    +0.045 A 
ATOM     16  S   UNL     1       0.287   3.168   4.352  0.00  0.00    -0.100 S 
ENDBRANCH  11  12
ENDBRANCH   1  11
BRANCH   2  17
ATOM     17  C   UNL     1       3.576  -0.728   3.928  0.00  0.00    +0.219 C 
BRANCH  17  18
ATOM     18  N   UNL     1       4.176  -1.938   4.493  0.00  0.00    -0.316 N 
ATOM     19  C   UNL     1       4.228  -2.274   5.797  0.00  0.00    +0.202 A 
ATOM     20  N   UNL     1       4.838  -3.423   5.934  0.00  0.00    -0.218 NA
ATOM     21  C   UNL     1       5.209  -3.884   4.736  0.00  0.00    +0.168 A 
ATOM     22  C   UNL     1       4.793  -2.954   3.791  0.00  0.00    +0.152 A 
ATOM     23  C   UNL     1       5.054  -3.198   2.425  0.00  0.00    +0.282 A 
ATOM     24  O   UNL     1       4.702  -2.397   1.578  0.00  0.00    -0.265 OA
ATOM     25  N   UNL     1       5.699  -4.329   2.070  0.00  0.00    -0.262 N 
ATOM     26  C   UNL     1       6.093  -5.221   2.994  0.00  0.00    +0.333 A 
ATOM     27  O   UNL     1       6.673  -6.228   2.637  0.00  0.00    -0.246 OA
ATOM     28  N   UNL     1       5.870  -5.023   4.308  0.00  0.00    -0.280 N 
ATOM     29  C   UNL     1       6.315  -6.021   5.283  0.00  0.00    +0.155 C 
ATOM     30  C   UNL     1       5.973  -4.588   0.654  0.00  0.00    +0.157 C 
ENDBRANCH  17  18
ENDBRANCH   2  17
TORSDOF 6
