REMARK  Name = ZINC02461856
REMARK  12 active torsions:
REMARK  status: ('A' for Active; 'I' for Inactive)
REMARK    1  A    between atoms: C_1  and  C_2
REMARK    2  A    between atoms: C_2  and  C_3
REMARK    3  A    between atoms: C_3  and  C_5
REMARK    4  A    between atoms: C_3  and  N_6
REMARK    5  A    between atoms: C_7  and  C_9
REMARK    6  A    between atoms: C_10  and  N_35
REMARK    7  A    between atoms: C_12  and  C_30
REMARK    8  A    between atoms: C_13  and  C_19
REMARK    9  A    between atoms: C_14  and  C_18
REMARK   10  A    between atoms: N_21  and  C_22
REMARK   11  A    between atoms: C_25  and  C_29
REMARK   12  A    between atoms: C_27  and  C_28
REMARK                            x       y       z     vdW  Elec       q    Type
REMARK                         _______ _______ _______ _____ _____    ______ ____
ROOT
ATOM      1  C   UNL     1      -0.013   0.047  -0.002  0.00  0.00    +0.097 A 
ATOM      2  C   UNL     1       1.331  -0.264  -0.017  0.00  0.00    +0.054 A 
ATOM      3  C   UNL     1       2.290   0.826  -0.018  0.00  0.00    +0.040 A 
ATOM      4  C   UNL     1       3.717   0.755  -0.032  0.00  0.00    +0.043 A 
ATOM      5  C   UNL     1       4.450   1.956  -0.031  0.00  0.00    +0.069 A 
ATOM      6  C   UNL     1       3.777   3.182  -0.016  0.00  0.00    +0.052 A 
ATOM      7  N   UNL     1       2.462   3.219  -0.003  0.00  0.00    -0.244 NA
ATOM      8  C   UNL     1       1.729   2.122  -0.004  0.00  0.00    +0.112 A 
ATOM      9  S   UNL     1      -0.023   1.829   0.010  0.00  0.00    -0.062 S 
ATOM     10  C   UNL     1       4.563   4.467  -0.014  0.00  0.00    +0.066 C 
ENDROOT
BRANCH   4  11
ATOM     11  C   UNL     1       4.403  -0.544  -0.048  0.00  0.00    +0.136 A 
ATOM     12  C   UNL     1       5.176  -1.031  -1.062  0.00  0.00    +0.050 A 
ATOM     13  C   UNL     1       5.630  -2.296  -0.652  0.00  0.00    +0.042 A 
ATOM     14  C   UNL     1       5.114  -2.526   0.574  0.00  0.00    +0.196 A 
ATOM     15  O   UNL     1       4.375  -1.467   0.935  0.00  0.00    -0.463 OA
ENDBRANCH   4  11
BRANCH   1  17
ATOM     16  N   UNL     1      -2.374  -0.347   0.016  0.00  0.00    -0.308 N 
ATOM     17  C   UNL     1      -1.119  -0.838   0.002  0.00  0.00    +0.253 C 
ATOM     18  O   UNL     1      -0.936  -2.042  -0.008  0.00  0.00    -0.270 OA
ATOM     19  H   UNL     1      -2.520   0.612   0.024  0.00  0.00    +0.149 HD
BRANCH  16  20
ATOM     20  C   UNL     1      -3.519  -1.262   0.021  0.00  0.00    +0.070 C 
ATOM     21  C   UNL     1      -3.851  -1.669  -1.416  0.00  0.00    +0.028 C 
BRANCH  20  23
ATOM     22  C   UNL     1      -4.441  -0.268   2.119  0.00  0.00    +0.005 C 
ATOM     23  C   UNL     1      -4.728  -0.564   0.646  0.00  0.00    +0.018 C 
ENDBRANCH  20  23
ENDBRANCH  16  20
ENDBRANCH   1  17
BRANCH   5  24
ATOM     24  C   UNL     1       5.921   1.922  -0.044  0.00  0.00    +0.251 C 
ATOM     25  O   UNL     1       6.539   1.900   1.004  0.00  0.00    -0.270 OA
ATOM     26  N   UNL     1       6.585   1.915  -1.218  0.00  0.00    -0.281 N 
ATOM     27  H   UNL     1       6.094   1.851  -2.052  0.00  0.00    +0.155 HD
BRANCH  26  28
ATOM     28  C   UNL     1       7.981   2.000  -1.232  0.00  0.00    +0.037 A 
ATOM     29  C   UNL     1       8.653   2.590  -0.170  0.00  0.00    +0.024 A 
ATOM     30  C   UNL     1      10.032   2.671  -0.187  0.00  0.00    +0.005 A 
ATOM     31  C   UNL     1      10.742   2.166  -1.261  0.00  0.00    -0.050 A 
ATOM     32  C   UNL     1      10.076   1.577  -2.320  0.00  0.00    +0.008 A 
ATOM     33  C   UNL     1       8.697   1.489  -2.306  0.00  0.00    -0.029 A 
ATOM     34  C   UNL     1       7.972   0.843  -3.458  0.00  0.00    +0.045 C 
ATOM     35  C   UNL     1      12.247   2.256  -1.276  0.00  0.00    +0.044 C 
ENDBRANCH  26  28
ENDBRANCH   5  24
BRANCH   2  36
ATOM     36  N   UNL     1       1.755  -1.585  -0.030  0.00  0.00    -0.356 N 
ATOM     37  H   UNL     1       1.104  -2.304  -0.029  0.00  0.00    +0.142 HD
ATOM     38  H   UNL     1       2.703  -1.790  -0.040  0.00  0.00    +0.142 HD
ENDBRANCH   2  36
TORSDOF 7
