REMARK  Name = ZINC39836289
REMARK  10 active torsions:
REMARK  status: ('A' for Active; 'I' for Inactive)
REMARK    1  A    between atoms: C_1  and  C_2
REMARK    2  A    between atoms: C_9  and  N_22
REMARK    3  A    between atoms: C_10  and  C_11
REMARK    4  A    between atoms: N_13  and  C_14
REMARK    5  A    between atoms: C_23  and  C_25
REMARK    6  A    between atoms: C_28  and  O_31
REMARK    7  A    between atoms: O_31  and  C_32
REMARK    8  A    between atoms: C_32  and  C_33
REMARK    9  A    between atoms: C_33  and  C_34
REMARK   10  A    between atoms: C_33  and  C_35
REMARK                            x       y       z     vdW  Elec       q    Type
REMARK                         _______ _______ _______ _____ _____    ______ ____
ROOT
ATOM      1  C   UNL     1      -0.019   1.526   0.010  0.00  0.00    +0.008 C 
ATOM      2  C   UNL     1       0.002  -0.004   0.002  0.00  0.00    -0.009 C 
ATOM      3  C   UNL     1      -1.434  -0.537   0.019  0.00  0.00    +0.008 C 
ATOM      4  C   UNL     1      -1.433  -2.045  -0.237  0.00  0.00    +0.037 C 
ATOM      5  C   UNL     1      -0.464  -2.704   0.734  0.00  0.00    -0.023 A 
ATOM      6  C   UNL     1       0.485  -1.986   1.374  0.00  0.00    -0.004 A 
ATOM      7  S   UNL     1       1.344  -3.167   2.372  0.00  0.00    -0.077 S 
ATOM      8  C   UNL     1       0.493  -4.557   1.968  0.00  0.00    +0.085 A 
ATOM      9  C   UNL     1      -0.459  -4.119   1.060  0.00  0.00    +0.069 A 
ATOM     10  C   UNL     1       0.739  -0.515   1.248  0.00  0.00    +0.046 C 
ENDROOT
BRANCH   9  11
ATOM     11  C   UNL     1      -1.421  -5.046   0.456  0.00  0.00    +0.247 C 
ATOM     12  O   UNL     1      -1.149  -5.610  -0.588  0.00  0.00    -0.270 OA
ATOM     13  N   UNL     1      -2.607  -5.272   1.055  0.00  0.00    -0.307 N 
ATOM     14  H   UNL     1      -2.824  -4.822   1.886  0.00  0.00    +0.149 HD
BRANCH  13  15
ATOM     15  C   UNL     1      -3.568  -6.197   0.450  0.00  0.00    +0.096 C 
ATOM     16  C   UNL     1      -3.246  -7.633   0.898  0.00  0.00    +0.046 C 
ATOM     17  C   UNL     1      -4.446  -8.543   0.509  0.00  0.00    +0.168 C 
ATOM     18  S   UNL     1      -5.858  -7.440   0.938  0.00  0.00    -0.029 S 
ATOM     19  O   UNL     1      -6.268  -7.712   2.272  0.00  0.00    -0.174 OA
ATOM     20  O   UNL     1      -6.816  -7.486  -0.111  0.00  0.00    -0.174 OA
ATOM     21  C   UNL     1      -5.000  -5.815   0.897  0.00  0.00    +0.188 C 
ENDBRANCH  13  15
ENDBRANCH   9  11
BRANCH   8  22
ATOM     22  N   UNL     1       0.697  -5.846   2.433  0.00  0.00    -0.275 N 
ATOM     23  C   UNL     1       1.679  -6.095   3.322  0.00  0.00    +0.249 C 
ATOM     24  O   UNL     1       2.386  -5.187   3.715  0.00  0.00    -0.270 OA
ATOM     25  H   UNL     1       0.133  -6.570   2.119  0.00  0.00    +0.156 HD
BRANCH  23  26
ATOM     26  C   UNL     1       1.896  -7.468   3.817  0.00  0.00    +0.037 A 
ATOM     27  C   UNL     1       1.088  -8.513   3.361  0.00  0.00    +0.016 A 
ATOM     28  C   UNL     1       1.294  -9.792   3.826  0.00  0.00    +0.046 A 
ATOM     29  C   UNL     1       2.304 -10.045   4.747  0.00  0.00    +0.121 A 
ATOM     30  C   UNL     1       3.110  -9.009   5.203  0.00  0.00    +0.046 A 
ATOM     31  C   UNL     1       2.914  -7.727   4.739  0.00  0.00    +0.016 A 
BRANCH  29  32
ATOM     32  O   UNL     1       2.503 -11.308   5.204  0.00  0.00    -0.492 OA
BRANCH  32  33
ATOM     33  C   UNL     1       3.558 -11.497   6.149  0.00  0.00    +0.232 C 
BRANCH  33  34
ATOM     34  C   UNL     1       3.629 -12.974   6.544  0.00  0.00    +0.020 C 
ATOM     35  C   UNL     1       4.024 -13.809   5.325  0.00  0.00    +0.010 C 
ATOM     36  C   UNL     1       4.674 -13.156   7.647  0.00  0.00    +0.010 C 
ENDBRANCH  33  34
ENDBRANCH  32  33
ENDBRANCH  29  32
ENDBRANCH  23  26
ENDBRANCH   8  22
TORSDOF 7
