REMARK  Name = ZINC53007220
REMARK  6 active torsions:
REMARK  status: ('A' for Active; 'I' for Inactive)
REMARK    1  A    between atoms: C_1  and  C_2
REMARK    2  A    between atoms: C_5  and  N_20
REMARK    3  A    between atoms: C_6  and  C_8
REMARK    4  A    between atoms: N_10  and  C_11
REMARK    5  A    between atoms: C_17  and  C_19
REMARK    6  A    between atoms: N_20  and  N_21
REMARK                            x       y       z     vdW  Elec       q    Type
REMARK                         _______ _______ _______ _____ _____    ______ ____
ROOT
ATOM      1  C   UNL     1       0.018   1.479   0.358  0.00  0.00    +0.044 C 
ATOM      2  C   UNL     1       0.019  -0.016   0.168  0.00  0.00    -0.050 A 
ATOM      3  C   UNL     1       0.015  -0.549  -1.111  0.00  0.00    +0.005 A 
ATOM      4  C   UNL     1       0.016  -1.915  -1.299  0.00  0.00    +0.025 A 
ATOM      5  C   UNL     1       0.021  -2.769  -0.203  0.00  0.00    +0.053 A 
ATOM      6  C   UNL     1       0.026  -2.233   1.094  0.00  0.00    +0.059 A 
ATOM      7  C   UNL     1       0.031  -0.846   1.268  0.00  0.00    +0.018 A 
ENDROOT
BRANCH   6   8
ATOM      8  C   UNL     1       0.032  -3.127   2.266  0.00  0.00    +0.246 C 
ATOM      9  O   UNL     1       0.132  -4.329   2.114  0.00  0.00    -0.270 OA
ATOM     10  N   UNL     1      -0.073  -2.612   3.507  0.00  0.00    -0.308 N 
ATOM     11  H   UNL     1      -0.153  -1.653   3.629  0.00  0.00    +0.149 HD
BRANCH  10  12
ATOM     12  C   UNL     1      -0.067  -3.500   4.672  0.00  0.00    +0.076 C 
ATOM     13  C   UNL     1       1.377  -3.800   5.078  0.00  0.00    +0.022 C 
ATOM     14  C   UNL     1       1.383  -4.728   6.294  0.00  0.00    +0.002 C 
ATOM     15  C   UNL     1       0.657  -4.049   7.457  0.00  0.00    +0.000 C 
ATOM     16  C   UNL     1      -0.787  -3.749   7.052  0.00  0.00    +0.005 C 
ATOM     17  C   UNL     1      -0.793  -2.821   5.835  0.00  0.00    +0.006 C 
ATOM     18  C   UNL     1      -2.238  -2.522   5.430  0.00  0.00    +0.009 C 
ENDBRANCH  10  12
ENDBRANCH   6   8
BRANCH   5  19
ATOM     19  N   UNL     1       0.021  -4.145  -0.389  0.00  0.00    -0.282 N 
ATOM     20  H   UNL     1       0.106  -4.738   0.374  0.00  0.00    +0.166 HD
BRANCH  19  21
ATOM     21  N   UNL     1      -0.097  -4.664  -1.648  0.00  0.00    -0.256 NA
ATOM     22  H   UNL     1      -0.081  -5.672  -1.626  0.00  0.00    +0.140 HD
ATOM     23  H   UNL     1      -0.932  -4.325  -2.101  0.00  0.00    +0.140 HD
ENDBRANCH  19  21
ENDBRANCH   5  19
TORSDOF 4
