REMARK  Name = ZINC39992703
REMARK  8 active torsions:
REMARK  status: ('A' for Active; 'I' for Inactive)
REMARK    1  A    between atoms: C_1  and  C_2
REMARK    2  A    between atoms: C_4  and  C_13
REMARK    3  A    between atoms: C_14  and  C_15
REMARK    4  A    between atoms: C_14  and  C_17
REMARK    5  A    between atoms: N_19  and  C_20
REMARK    6  A    between atoms: C_21  and  C_29
REMARK    7  A    between atoms: N_31  and  C_32
REMARK    8  A    between atoms: C_32  and  C_33
REMARK                            x       y       z     vdW  Elec       q    Type
REMARK                         _______ _______ _______ _____ _____    ______ ____
ROOT
ATOM      1  C   UNL     1      -2.867   2.387  -1.867  0.00  0.00    +0.259 C 
ATOM      2  O   UNL     1      -4.051   2.153  -1.710  0.00  0.00    -0.269 OA
ATOM      3  N   UNL     1      -2.480   3.493  -2.532  0.00  0.00    -0.275 N 
ATOM      4  H   UNL     1      -1.536   3.679  -2.657  0.00  0.00    +0.156 HD
ENDROOT
BRANCH   3   5
ATOM      5  C   UNL     1      -3.431   4.364  -3.038  0.00  0.00    +0.085 A 
ATOM      6  C   UNL     1      -3.220   5.537  -3.748  0.00  0.00    +0.069 A 
ATOM      7  C   UNL     1      -4.396   6.277  -4.170  0.00  0.00    -0.023 A 
ATOM      8  C   UNL     1      -5.567   5.710  -3.806  0.00  0.00    -0.004 A 
ATOM      9  S   UNL     1      -5.102   4.239  -2.940  0.00  0.00    -0.077 S 
ATOM     10  C   UNL     1      -6.943   6.227  -4.088  0.00  0.00    +0.043 C 
ATOM     11  C   UNL     1      -6.827   7.694  -4.528  0.00  0.00    +0.005 C 
ATOM     12  C   UNL     1      -5.732   7.807  -5.593  0.00  0.00    +0.005 C 
ATOM     13  C   UNL     1      -4.360   7.580  -4.956  0.00  0.00    +0.037 C 
BRANCH   6  14
ATOM     14  C   UNL     1      -1.868   6.010  -4.058  0.00  0.00    +0.247 C 
ATOM     15  O   UNL     1      -1.324   5.663  -5.090  0.00  0.00    -0.270 OA
ATOM     16  N   UNL     1      -1.227   6.828  -3.200  0.00  0.00    -0.309 N 
ATOM     17  H   UNL     1      -1.661   7.104  -2.378  0.00  0.00    +0.149 HD
BRANCH  16  18
ATOM     18  C   UNL     1       0.125   7.301  -3.510  0.00  0.00    +0.136 C 
BRANCH  18  19
ATOM     19  C   UNL     1       0.619   8.208  -2.382  0.00  0.00    +0.135 C 
ATOM     20  C   UNL     1       1.992   8.807  -2.756  0.00  0.00    +0.035 C 
ATOM     21  C   UNL     1       2.749   8.766  -1.400  0.00  0.00    +0.031 C 
ATOM     22  C   UNL     1       2.170   7.470  -0.779  0.00  0.00    +0.160 C 
ATOM     23  O   UNL     1       0.790   7.444  -1.183  0.00  0.00    -0.375 OA
ENDBRANCH  18  19
ENDBRANCH  16  18
ENDBRANCH   6  14
ENDBRANCH   3   5
BRANCH   1  25
ATOM     24  C   UNL     1      -2.258   0.324  -0.645  0.00  0.00    +0.031 C 
ATOM     25  C   UNL     1      -1.860   1.463  -1.330  0.00  0.00    +0.114 C 
BRANCH  24  28
ATOM     26  C   UNL     1      -1.726  -2.171  -1.804  0.00  0.00    +0.057 C 
ATOM     27  C   UNL     1      -1.224  -1.960  -0.375  0.00  0.00    +0.201 C 
ATOM     28  C   UNL     1      -1.300  -0.495  -0.031  0.00  0.00    -0.006 C 
ATOM     29  C   UNL     1      -0.430   0.030   0.881  0.00  0.00    +0.018 C 
ATOM     30  C   UNL     1       0.565  -0.871   1.476  0.00  0.00    +0.017 A 
ATOM     31  C   UNL     1       1.262  -0.523   2.634  0.00  0.00    +0.011 A 
ATOM     32  C   UNL     1       2.187  -1.401   3.158  0.00  0.00    +0.001 A 
ATOM     33  C   UNL     1       2.425  -2.620   2.541  0.00  0.00    +0.004 A 
ATOM     34  C   UNL     1       1.740  -2.975   1.394  0.00  0.00    +0.046 A 
ATOM     35  C   UNL     1       0.808  -2.109   0.852  0.00  0.00    +0.128 A 
ATOM     36  O   UNL     1       0.123  -2.423  -0.274  0.00  0.00    -0.484 OA
ENDBRANCH  24  28
BRANCH  25  37
ATOM     37  C   UNL     1      -0.466   1.738  -1.515  0.00  0.00    +0.104 C 
ATOM     38  N   UNL     1       0.639   1.955  -1.661  0.00  0.00    -0.191 NA
ENDBRANCH  25  37
ENDBRANCH   1  25
TORSDOF 7
