REMARK  Name = ZINC66704579
REMARK  9 active torsions:
REMARK  status: ('A' for Active; 'I' for Inactive)
REMARK    1  A    between atoms: C_1  and  C_2
REMARK    2  A    between atoms: C_2  and  C_3
REMARK    3  A    between atoms: C_3  and  C_4
REMARK    4  A    between atoms: C_4  and  N_5
REMARK    5  A    between atoms: C_10  and  C_12
REMARK    6  A    between atoms: C_12  and  N_13
REMARK    7  A    between atoms: N_16  and  N_17
REMARK    8  A    between atoms: C_18  and  C_20
REMARK    9  A    between atoms: C_22  and  C_26
REMARK                            x       y       z     vdW  Elec       q    Type
REMARK                         _______ _______ _______ _____ _____    ______ ____
ROOT
ATOM      1  N   UNL     1      -0.707  -3.901   1.001  0.00  0.00    -0.300 N 
ATOM      2  C   UNL     1      -2.013  -4.057   0.709  0.00  0.00    +0.316 C 
ATOM      3  O   UNL     1      -2.756  -4.594   1.508  0.00  0.00    -0.251 OA
ATOM      4  N   UNL     1      -2.497  -3.618  -0.470  0.00  0.00    -0.218 N 
ATOM      5  H   UNL     1      -0.115  -3.473   0.364  0.00  0.00    +0.150 HD
ATOM      6  H   UNL     1      -3.437  -3.730  -0.681  0.00  0.00    +0.174 HD
ENDROOT
BRANCH   4   7
ATOM      7  N   UNL     1      -1.642  -2.999  -1.391  0.00  0.00    -0.228 N 
ATOM      8  C   UNL     1      -2.125  -2.559  -2.570  0.00  0.00    +0.280 C 
ATOM      9  O   UNL     1      -3.304  -2.700  -2.834  0.00  0.00    -0.267 OA
ATOM     10  H   UNL     1      -0.701  -2.887  -1.181  0.00  0.00    +0.173 HD
BRANCH   8  11
ATOM     11  C   UNL     1      -1.223  -1.907  -3.541  0.00  0.00    +0.149 A 
ATOM     12  C   UNL     1      -1.586  -1.394  -4.806  0.00  0.00    +0.062 A 
ATOM     13  C   UNL     1      -0.432  -0.891  -5.339  0.00  0.00    +0.066 A 
ATOM     14  N   UNL     1       0.553  -1.105  -4.421  0.00  0.00    -0.276 N 
ATOM     15  N   UNL     1       0.068  -1.690  -3.385  0.00  0.00    -0.169 NA
ATOM     16  H   UNL     1       1.482  -0.849  -4.531  0.00  0.00    +0.189 HD
BRANCH  13  17
ATOM     17  C   UNL     1      -0.281  -0.240  -6.659  0.00  0.00    -0.000 A 
ATOM     18  C   UNL     1      -1.388  -0.085  -7.495  0.00  0.00    +0.010 A 
ATOM     19  C   UNL     1      -1.240   0.523  -8.725  0.00  0.00    +0.001 A 
ATOM     20  C   UNL     1       0.001   0.978  -9.130  0.00  0.00    +0.000 A 
ATOM     21  C   UNL     1       1.102   0.828  -8.306  0.00  0.00    +0.001 A 
ATOM     22  C   UNL     1       0.967   0.227  -7.071  0.00  0.00    +0.010 A 
ENDBRANCH  13  17
ENDBRANCH   8  11
ENDBRANCH   4   7
BRANCH   1  23
ATOM     23  C   UNL     1      -0.181  -4.379   2.283  0.00  0.00    +0.090 C 
BRANCH  23  29
ATOM     24  N   UNL     1       2.034  -4.463   1.245  0.00  0.00    +0.383 N 
ATOM     25  C   UNL     1       3.460  -4.147   1.397  0.00  0.00    -0.078 C 
ATOM     26  C   UNL     1       3.649  -2.630   1.436  0.00  0.00    -0.019 C 
ATOM     27  C   UNL     1       2.868  -2.054   2.621  0.00  0.00    -0.003 C 
ATOM     28  C   UNL     1       1.395  -2.452   2.491  0.00  0.00    -0.014 C 
ATOM     29  C   UNL     1       1.289  -3.976   2.413  0.00  0.00    -0.051 C 
ATOM     30  H   UNL     1       1.680  -4.017   0.412  0.00  0.00    -0.081 HD
BRANCH  24  31
ATOM     31  C   UNL     1       1.866  -5.918   1.130  0.00  0.00    -0.078 C 
BRANCH  31  32
ATOM     32  C   UNL     1       2.522  -6.407  -0.162  0.00  0.00    -0.019 C 
BRANCH  32  34
ATOM     33  C   UNL     1       3.004  -8.411  -1.574  0.00  0.00    +0.004 C 
ATOM     34  C   UNL     1       2.347  -7.922  -0.282  0.00  0.00    -0.005 C 
ENDBRANCH  32  34
ENDBRANCH  31  32
ENDBRANCH  24  31
ENDBRANCH  23  29
ENDBRANCH   1  23
TORSDOF 8
