REMARK  Name = ZINC39464587
REMARK  6 active torsions:
REMARK  status: ('A' for Active; 'I' for Inactive)
REMARK    1  A    between atoms: C_1  and  O_2
REMARK    2  A    between atoms: O_2  and  P_3
REMARK    3  A    between atoms: C_11  and  C_26
REMARK    4  A    between atoms: C_12  and  C_19
REMARK    5  A    between atoms: C_19  and  C_20
REMARK    6  A    between atoms: C_31  and  O_32
REMARK                            x       y       z     vdW  Elec       q    Type
REMARK                         _______ _______ _______ _____ _____    ______ ____
ROOT
ATOM      1  P   UNL     1       0.700  -0.878   1.160  0.00  0.00    +0.421 P 
ATOM      2  O   UNL     1       0.276  -0.392   2.492  0.00  0.00    -0.239 OA
ATOM      3  N   UNL     1       2.346  -0.803   1.019  0.00  0.00    -0.156 NA
ATOM      4  N   UNL     1       2.919  -1.612   0.063  0.00  0.00    -0.224 NA
ATOM      5  C   UNL     1       4.380  -1.443   0.078  0.00  0.00    +0.108 C 
ATOM      6  C   UNL     1       4.962  -2.076  -1.186  0.00  0.00    +0.052 C 
ATOM      7  C   UNL     1       4.455  -3.489  -1.325  0.00  0.00    -0.041 A 
ATOM      8  C   UNL     1       5.141  -4.357  -2.156  0.00  0.00    +0.013 A 
ATOM      9  C   UNL     1       4.705  -5.670  -2.312  0.00  0.00    -0.011 A 
ATOM     10  C   UNL     1       3.571  -6.103  -1.626  0.00  0.00    -0.035 A 
ATOM     11  C   UNL     1       2.896  -5.230  -0.802  0.00  0.00    +0.010 A 
ATOM     12  C   UNL     1       3.333  -3.920  -0.648  0.00  0.00    -0.023 A 
ATOM     13  C   UNL     1       2.553  -3.013   0.267  0.00  0.00    +0.130 C 
ATOM     14  C   UNL     1       1.056  -3.231   0.028  0.00  0.00    +0.196 C 
ATOM     15  O   UNL     1       0.317  -2.449   0.987  0.00  0.00    -0.294 OA
ATOM     16  H   UNL     1       2.880  -0.220   1.580  0.00  0.00    +0.153 HD
ENDROOT
BRANCH   9  17
ATOM     17  C   UNL     1       5.440  -6.600  -3.203  0.00  0.00    +0.024 A 
ATOM     18  C   UNL     1       6.743  -6.983  -2.892  0.00  0.00    +0.012 A 
ATOM     19  C   UNL     1       7.423  -7.849  -3.724  0.00  0.00    +0.001 A 
ATOM     20  C   UNL     1       6.815  -8.341  -4.866  0.00  0.00    +0.004 A 
ATOM     21  C   UNL     1       5.523  -7.967  -5.183  0.00  0.00    +0.046 A 
ATOM     22  C   UNL     1       4.827  -7.102  -4.354  0.00  0.00    +0.125 A 
BRANCH  22  23
ATOM     23  O   UNL     1       3.555  -6.739  -4.662  0.00  0.00    -0.506 OA
ATOM     24  H   UNL     1       3.495  -5.947  -5.215  0.00  0.00    +0.292 HD
ENDBRANCH  22  23
ENDBRANCH   9  17
BRANCH   1  26
ATOM     25  C   UNL     1      -0.017   1.425   0.010  0.00  0.00    +0.206 C 
ATOM     26  O   UNL     1       0.002  -0.004   0.002  0.00  0.00    -0.299 OA
ENDBRANCH   1  26
BRANCH  10  27
ATOM     27  C   UNL     1       3.087  -7.521  -1.786  0.00  0.00    +0.070 C 
BRANCH  27  28
ATOM     28  C   UNL     1       3.830  -8.416  -0.829  0.00  0.00    -0.043 A 
ATOM     29  C   UNL     1       5.013  -9.015  -1.220  0.00  0.00    +0.004 A 
ATOM     30  C   UNL     1       5.695  -9.837  -0.342  0.00  0.00    +0.000 A 
ATOM     31  C   UNL     1       5.194 -10.059   0.928  0.00  0.00    +0.000 A 
ATOM     32  C   UNL     1       4.012  -9.459   1.319  0.00  0.00    +0.000 A 
ATOM     33  C   UNL     1       3.332  -8.634   0.443  0.00  0.00    +0.004 A 
ENDBRANCH  27  28
ENDBRANCH  10  27
TORSDOF 5
