REMARK  Name = ZINC41584496
REMARK  10 active torsions:
REMARK  status: ('A' for Active; 'I' for Inactive)
REMARK    1  A    between atoms: C_1  and  C_2
REMARK    2  A    between atoms: C_2  and  C_3
REMARK    3  A    between atoms: C_3  and  N_4
REMARK    4  A    between atoms: N_4  and  C_5
REMARK    5  A    between atoms: N_4  and  C_8
REMARK    6  A    between atoms: C_5  and  C_6
REMARK    7  A    between atoms: C_6  and  C_7
REMARK    8  A    between atoms: C_8  and  C_9
REMARK    9  A    between atoms: C_10  and  O_32
REMARK   10  A    between atoms: C_19  and  C_20
REMARK                            x       y       z     vdW  Elec       q    Type
REMARK                         _______ _______ _______ _____ _____    ______ ____
ROOT
ATOM      1  C   UNL     1       0.153  -2.024   3.668  0.00  0.00    +0.020 A 
ATOM      2  C   UNL     1       0.435  -0.841   4.332  0.00  0.00    +0.122 A 
ATOM      3  C   UNL     1      -0.412  -0.373   5.333  0.00  0.00    +0.046 A 
ATOM      4  C   UNL     1      -1.534  -1.075   5.673  0.00  0.00    +0.016 A 
ATOM      5  C   UNL     1      -1.832  -2.269   5.013  0.00  0.00    +0.026 A 
ATOM      6  C   UNL     1      -0.985  -2.745   3.998  0.00  0.00    +0.144 A 
ATOM      7  O   UNL     1      -1.279  -3.897   3.358  0.00  0.00    -0.422 OA
ATOM      8  C   UNL     1      -2.373  -4.617   3.657  0.00  0.00    +0.338 A 
ATOM      9  O   UNL     1      -2.587  -5.649   3.046  0.00  0.00    -0.245 OA
ATOM     10  C   UNL     1      -3.275  -4.214   4.652  0.00  0.00    +0.101 A 
ATOM     11  C   UNL     1      -3.034  -3.047   5.360  0.00  0.00    +0.006 A 
ENDROOT
BRANCH  11  12
ATOM     12  C   UNL     1      -3.960  -2.590   6.413  0.00  0.00    +0.068 A 
ATOM     13  C   UNL     1      -4.210  -3.362   7.538  0.00  0.00    +0.027 A 
ATOM     14  C   UNL     1      -5.137  -2.870   8.493  0.00  0.00    +0.019 A 
ATOM     15  C   UNL     1      -5.280  -3.502   9.737  0.00  0.00    +0.026 A 
ATOM     16  C   UNL     1      -6.147  -2.992  10.661  0.00  0.00    +0.019 A 
ATOM     17  C   UNL     1      -6.894  -1.856  10.377  0.00  0.00    +0.019 A 
ATOM     18  C   UNL     1      -6.784  -1.231   9.153  0.00  0.00    +0.048 A 
ATOM     19  C   UNL     1      -5.915  -1.736   8.195  0.00  0.00    +0.139 A 
ATOM     20  O   UNL     1      -5.829  -1.155   6.974  0.00  0.00    -0.422 OA
ATOM     21  C   UNL     1      -4.653  -1.292   6.314  0.00  0.00    +0.345 A 
ATOM     22  O   UNL     1      -4.187  -0.379   5.659  0.00  0.00    -0.245 OA
ATOM     23 BR   UNL     1      -6.331  -3.839  12.342  0.00  0.00    -0.050 Br
ENDBRANCH  11  12
BRANCH   2  24
ATOM     24  O   UNL     1       1.546  -0.133   4.005  0.00  0.00    -0.506 OA
ATOM     25  H   UNL     1       1.405   0.521   3.307  0.00  0.00    +0.292 HD
ENDBRANCH   2  24
BRANCH   1  26
ATOM     26  C   UNL     1       1.076  -2.522   2.587  0.00  0.00    -0.036 C 
BRANCH  26  27
ATOM     27  N   UNL     1       0.653  -1.975   1.291  0.00  0.00    +0.383 N 
ATOM     28  H   UNL     1      -0.317  -2.204   1.130  0.00  0.00    -0.081 HD
BRANCH  27  29
ATOM     29  C   UNL     1       0.816  -0.515   1.299  0.00  0.00    -0.079 C 
BRANCH  29  31
ATOM     30  C   UNL     1       0.327   1.593   0.051  0.00  0.00    +0.002 C 
ATOM     31  C   UNL     1       0.281   0.065  -0.011  0.00  0.00    -0.022 C 
ENDBRANCH  29  31
ENDBRANCH  27  29
BRANCH  27  32
ATOM     32  C   UNL     1       1.477  -2.554   0.222  0.00  0.00    -0.079 C 
BRANCH  32  33
ATOM     33  C   UNL     1       1.198  -4.055   0.119  0.00  0.00    -0.022 C 
ATOM     34  C   UNL     1       1.955  -4.633  -1.079  0.00  0.00    +0.002 C 
ENDBRANCH  32  33
ENDBRANCH  27  32
ENDBRANCH  26  27
ENDBRANCH   1  26
TORSDOF 8
