REMARK  Name = ZINC64890602
REMARK  11 active torsions:
REMARK  status: ('A' for Active; 'I' for Inactive)
REMARK    1  A    between atoms: C_1  and  C_2
REMARK    2  A    between atoms: C_2  and  N_3
REMARK    3  A    between atoms: C_7  and  C_16
REMARK    4  A    between atoms: C_18  and  C_22
REMARK    5  A    between atoms: C_22  and  C_24
REMARK    6  A    between atoms: C_22  and  N_27
REMARK    7  A    between atoms: C_24  and  C_25
REMARK    8  A    between atoms: C_24  and  C_26
REMARK    9  A    between atoms: N_27  and  S_28
REMARK   10  A    between atoms: S_28  and  C_31
REMARK   11  A    between atoms: C_34  and  C_37
REMARK                            x       y       z     vdW  Elec       q    Type
REMARK                         _______ _______ _______ _____ _____    ______ ____
ROOT
ATOM      1  C   UNL     1      -4.117  -1.456   5.046  0.00  0.00    +0.134 C 
ATOM      2  N   UNL     1      -3.545  -1.881   6.131  0.00  0.00    -0.341 N 
ATOM      3  C   UNL     1      -4.523  -1.843   7.225  0.00  0.00    +0.262 C 
ATOM      4  O   UNL     1      -5.734  -1.343   6.638  0.00  0.00    -0.246 OA
ATOM      5  N   UNL     1      -5.426  -1.110   5.272  0.00  0.00    -0.247 N 
ATOM      6  H   UNL     1      -6.042  -0.765   4.607  0.00  0.00    +0.196 HD
ATOM      7  H   UNL     1      -2.624  -2.176   6.206  0.00  0.00    +0.164 HD
ENDROOT
BRANCH   1  12
ATOM      8  N   UNL     1      -1.516  -1.056   0.050  0.00  0.00    -0.303 N 
ATOM      9  C   UNL     1      -2.166  -1.156   1.274  0.00  0.00    +0.068 A 
ATOM     10  C   UNL     1      -1.438  -1.011   2.452  0.00  0.00    +0.028 A 
ATOM     11  C   UNL     1      -2.068  -1.108   3.672  0.00  0.00    +0.013 A 
ATOM     12  C   UNL     1      -3.442  -1.352   3.734  0.00  0.00    +0.019 A 
ATOM     13  C   UNL     1      -4.176  -1.498   2.559  0.00  0.00    +0.039 A 
ATOM     14  C   UNL     1      -3.541  -1.400   1.329  0.00  0.00    +0.067 A 
ATOM     15  N   UNL     1      -4.283  -1.546   0.159  0.00  0.00    -0.316 N 
ATOM     16  H   UNL     1      -5.237  -1.715   0.208  0.00  0.00    +0.169 HD
ATOM     17  C   UNL     1      -3.676  -1.454  -1.042  0.00  0.00    +0.314 A 
ATOM     18  O   UNL     1      -4.317  -1.581  -2.065  0.00  0.00    -0.262 OA
ATOM     19  C   UNL     1      -2.209  -1.189  -1.099  0.00  0.00    +0.316 A 
ATOM     20  O   UNL     1      -1.644  -1.097  -2.170  0.00  0.00    -0.262 OA
BRANCH   8  22
ATOM     21  C   UNL     1       0.175   0.710  -0.019  0.00  0.00    +0.027 C 
ATOM     22  C   UNL     1      -0.074  -0.800   0.007  0.00  0.00    +0.122 C 
ENDBRANCH   8  22
ENDBRANCH   1  12
BRANCH   3  23
ATOM     23  C   UNL     1      -4.042  -0.904   8.333  0.00  0.00    +0.131 C 
BRANCH  23  24
ATOM     24  C   UNL     1      -5.011  -0.973   9.515  0.00  0.00    +0.006 C 
ATOM     25  C   UNL     1      -4.989  -2.381  10.112  0.00  0.00    +0.009 C 
ATOM     26  C   UNL     1      -4.586   0.039  10.582  0.00  0.00    +0.009 C 
ENDBRANCH  23  24
BRANCH  23  27
ATOM     27  N   UNL     1      -3.991   0.468   7.822  0.00  0.00    -0.182 NA
ATOM     28  H   UNL     1      -4.714   0.808   7.271  0.00  0.00    +0.148 HD
BRANCH  27  29
ATOM     29  S   UNL     1      -2.700   1.439   8.185  0.00  0.00    +0.059 S 
ATOM     30  O   UNL     1      -2.933   2.684   7.540  0.00  0.00    -0.153 OA
ATOM     31  O   UNL     1      -2.494   1.335   9.587  0.00  0.00    -0.153 OA
BRANCH  29  32
ATOM     32  C   UNL     1      -1.282   0.731   7.414  0.00  0.00    +0.105 A 
ATOM     33  C   UNL     1      -0.519  -0.200   8.094  0.00  0.00    +0.029 A 
ATOM     34  C   UNL     1       0.593  -0.755   7.489  0.00  0.00    +0.005 A 
ATOM     35  C   UNL     1       0.941  -0.381   6.205  0.00  0.00    -0.050 A 
ATOM     36  C   UNL     1       0.177   0.549   5.525  0.00  0.00    +0.005 A 
ATOM     37  C   UNL     1      -0.937   1.101   6.128  0.00  0.00    +0.029 A 
ATOM     38  C   UNL     1       2.154  -0.986   5.546  0.00  0.00    +0.044 C 
ENDBRANCH  29  32
ENDBRANCH  27  29
ENDBRANCH  23  27
ENDBRANCH   3  23
TORSDOF 7
