REMARK  Name = ZINC20590097
REMARK  8 active torsions:
REMARK  status: ('A' for Active; 'I' for Inactive)
REMARK    1  A    between atoms: C_1  and  C_2
REMARK    2  A    between atoms: C_2  and  C_29
REMARK    3  A    between atoms: C_4  and  N_10
REMARK    4  A    between atoms: C_6  and  C_8
REMARK    5  A    between atoms: C_6  and  C_9
REMARK    6  A    between atoms: N_10  and  C_11
REMARK    7  A    between atoms: C_11  and  C_12
REMARK    8  A    between atoms: C_13  and  O_28
REMARK                            x       y       z     vdW  Elec       q    Type
REMARK                         _______ _______ _______ _____ _____    ______ ____
ROOT
ATOM      1  C   UNL     1      -5.855  -0.884   1.756  0.00  0.00    +0.052 A 
ATOM      2  C   UNL     1      -6.736  -0.311   0.853  0.00  0.00    +0.143 A 
ATOM      3  C   UNL     1      -8.009  -0.848   0.667  0.00  0.00    +0.083 A 
ATOM      4  C   UNL     1      -8.407  -1.947   1.375  0.00  0.00    +0.035 A 
ATOM      5  C   UNL     1      -7.528  -2.538   2.290  0.00  0.00    +0.023 A 
ATOM      6  C   UNL     1      -6.241  -2.003   2.477  0.00  0.00    +0.147 A 
ATOM      7  O   UNL     1      -5.401  -2.582   3.361  0.00  0.00    -0.422 OA
ATOM      8  C   UNL     1      -5.761  -3.670   4.055  0.00  0.00    +0.341 A 
ATOM      9  O   UNL     1      -4.963  -4.163   4.833  0.00  0.00    -0.245 OA
ATOM     10  C   UNL     1      -7.039  -4.266   3.914  0.00  0.00    +0.041 A 
ATOM     11  C   UNL     1      -7.934  -3.719   3.063  0.00  0.00    -0.027 A 
ATOM     12  C   UNL     1      -9.319  -4.268   2.861  0.00  0.00    +0.036 C 
ATOM     13  C   UNL     1      -9.415  -5.698   3.392  0.00  0.00    +0.005 C 
ATOM     14  C   UNL     1      -8.857  -5.718   4.821  0.00  0.00    +0.005 C 
ATOM     15  C   UNL     1      -7.342  -5.490   4.736  0.00  0.00    +0.042 C 
ATOM     16 CL   UNL     1      -9.097  -0.114  -0.469  0.00  0.00    -0.080 Cl
ENDROOT
BRANCH   2  17
ATOM     17  O   UNL     1      -6.356   0.781   0.142  0.00  0.00    -0.505 OA
ATOM     18  H   UNL     1      -5.932   0.574  -0.702  0.00  0.00    +0.292 HD
ENDBRANCH   2  17
BRANCH   1  19
ATOM     19  C   UNL     1      -4.481  -0.297   1.949  0.00  0.00    +0.124 C 
BRANCH  19  20
ATOM     20  N   UNL     1      -3.544  -0.923   1.006  0.00  0.00    -0.309 NA
ATOM     21  H   UNL     1      -3.866  -0.822   0.055  0.00  0.00    +0.123 HD
BRANCH  20  25
ATOM     22  C   UNL     1      -0.019   1.528   0.010  0.00  0.00    -0.010 C 
ATOM     23  C   UNL     1       0.002  -0.004   0.002  0.00  0.00    -0.072 C 
ATOM     24  C   UNL     1      -1.419  -0.538  -0.145  0.00  0.00    +0.006 C 
ATOM     25  C   UNL     1      -2.188  -0.373   1.166  0.00  0.00    +0.051 C 
ATOM     26  C   UNL     1      -1.451  -1.156   2.253  0.00  0.00    +0.006 C 
ATOM     27  C   UNL     1      -0.030  -0.627   2.418  0.00  0.00    -0.072 C 
ATOM     28  N   UNL     1       0.697  -0.529   1.164  0.00  0.00    +0.386 N 
ATOM     29  C   UNL     1       0.730  -1.621   3.326  0.00  0.00    -0.010 C 
ATOM     30  C   UNL     1      -0.059   0.718   3.151  0.00  0.00    -0.010 C 
ATOM     31  C   UNL     1       0.791  -0.440  -1.254  0.00  0.00    -0.010 C 
ATOM     32  H   UNL     1       1.056  -1.460   0.929  0.00  0.00    -0.084 HD
ATOM     33  H   UNL     1       1.534   0.040   1.322  0.00  0.00    -0.084 HD
ENDBRANCH  20  25
ENDBRANCH  19  20
ENDBRANCH   1  19
TORSDOF 4
