REMARK  Name = ZINC03009753
REMARK  6 active torsions:
REMARK  status: ('A' for Active; 'I' for Inactive)
REMARK    1  A    between atoms: C_1  and  C_2
REMARK    2  A    between atoms: C_2  and  O_3
REMARK    3  A    between atoms: O_3  and  C_4
REMARK    4  A    between atoms: C_12  and  C_14
REMARK    5  A    between atoms: C_14  and  S_15
REMARK    6  A    between atoms: S_15  and  C_16
REMARK                            x       y       z     vdW  Elec       q    Type
REMARK                         _______ _______ _______ _____ _____    ______ ____
ROOT
ATOM      1  C   UNL     1      -1.499  13.923  -0.752  0.00  0.00    +0.403 C 
ATOM      2  O   UNL     1      -2.159  14.943  -0.722  0.00  0.00    -0.226 OA
ATOM      3  N   UNL     1      -2.113  12.724  -0.798  0.00  0.00    -0.264 N 
ATOM      4  C   UNL     1      -3.579  12.634  -0.813  0.00  0.00    +0.130 C 
ATOM      5  C   UNL     1      -4.027  11.736   0.347  0.00  0.00    +0.127 C 
ATOM      6  N   UNL     1      -3.242  10.495   0.310  0.00  0.00    -0.298 N 
ATOM      7  C   UNL     1      -1.775  10.584   0.331  0.00  0.00    +0.127 C 
ATOM      8  C   UNL     1      -1.327  11.482  -0.835  0.00  0.00    +0.130 C 
ATOM      9  C   UNL     1      -3.855   9.296   0.264  0.00  0.00    +0.226 C 
ATOM     10  O   UNL     1      -5.066   9.234   0.252  0.00  0.00    -0.275 OA
ENDROOT
BRANCH   1  11
ATOM     11  O   UNL     1      -0.154  13.991  -0.739  0.00  0.00    -0.451 OA
BRANCH  11  13
ATOM     12  C   UNL     1       1.963  15.192  -0.680  0.00  0.00    +0.048 C 
ATOM     13  C   UNL     1       0.438  15.316  -0.688  0.00  0.00    +0.230 C 
ENDBRANCH  11  13
ENDBRANCH   1  11
BRANCH   9  14
ATOM     14  C   UNL     1      -3.036   8.031   0.226  0.00  0.00    +0.172 C 
BRANCH  14  15
ATOM     15  S   UNL     1      -4.141   6.598   0.168  0.00  0.00    -0.088 S 
BRANCH  15  16
ATOM     16  C   UNL     1      -2.953   5.297   0.133  0.00  0.00    +0.156 C 
ATOM     17  N   UNL     1      -1.655   5.371   0.145  0.00  0.00    -0.164 NA
ATOM     18  N   UNL     1      -0.876   4.208   0.112  0.00  0.00    -0.202 N 
ATOM     19  C   UNL     1       0.592   4.325   0.130  0.00  0.00    +0.134 C 
ATOM     20  C   UNL     1       1.289   3.183   0.803  0.00  0.00    +0.030 C 
ATOM     21  C   UNL     1       1.301   1.908  -0.000  0.00  0.00    +0.099 C 
ATOM     22  C   UNL     1      -0.014   1.212   0.009  0.00  0.00    +0.238 C 
ATOM     23  O   UNL     1       0.002  -0.004   0.002  0.00  0.00    -0.274 OA
ATOM     24  N   UNL     1      -1.174   1.786   0.018  0.00  0.00    -0.157 NA
ATOM     25  C   UNL     1      -1.550   3.038   0.065  0.00  0.00    +0.175 C 
ATOM     26  S   UNL     1      -3.216   3.537   0.070  0.00  0.00    -0.027 S 
ENDBRANCH  15  16
ENDBRANCH  14  15
ENDBRANCH   9  14
TORSDOF 5
