REMARK  Name = ZINC08826946
REMARK  12 active torsions:
REMARK  status: ('A' for Active; 'I' for Inactive)
REMARK    1  A    between atoms: C_1  and  C_2
REMARK    2  A    between atoms: C_9  and  C_33
REMARK    3  A    between atoms: C_10  and  C_11
REMARK    4  A    between atoms: C_11  and  C_13
REMARK    5  A    between atoms: C_14  and  O_32
REMARK    6  A    between atoms: N_17  and  C_27
REMARK    7  A    between atoms: C_18  and  C_20
REMARK    8  A    between atoms: C_27  and  C_28
REMARK    9  A    between atoms: C_28  and  C_29
REMARK   10  A    between atoms: C_29  and  N_60
REMARK   11  A    between atoms: C_30  and  N_60
REMARK   12  A    between atoms: C_31  and  N_60
REMARK                            x       y       z     vdW  Elec       q    Type
REMARK                         _______ _______ _______ _____ _____    ______ ____
ROOT
ATOM      1  C   UNL     1       2.223  -1.299  -2.959  0.00  0.00    +0.073 C 
ATOM      2  C   UNL     1       1.088  -0.910  -3.583  0.00  0.00    +0.188 C 
ATOM      3  C   UNL     1       0.134  -0.395  -2.582  0.00  0.00    +0.282 C 
ATOM      4  O   UNL     1      -0.978   0.026  -2.831  0.00  0.00    -0.267 OA
ATOM      5  N   UNL     1       0.679  -0.458  -1.353  0.00  0.00    -0.284 N 
ATOM      6  C   UNL     1       2.024  -1.030  -1.485  0.00  0.00    +0.145 C 
ENDROOT
BRANCH   6   7
ATOM      7  C   UNL     1       3.055  -0.047  -0.994  0.00  0.00    -0.022 A 
ATOM      8  C   UNL     1       3.017   1.267  -1.422  0.00  0.00    +0.007 A 
ATOM      9  C   UNL     1       3.959   2.171  -0.967  0.00  0.00    +0.020 A 
ATOM     10  C   UNL     1       4.948   1.757  -0.093  0.00  0.00    +0.041 A 
ATOM     11  C   UNL     1       4.990   0.440   0.330  0.00  0.00    +0.020 A 
ATOM     12  C   UNL     1       4.043  -0.461  -0.120  0.00  0.00    +0.007 A 
ATOM     13 CL   UNL     1       6.136   2.889   0.473  0.00  0.00    -0.084 Cl
ENDBRANCH   6   7
BRANCH   1  14
ATOM     14  C   UNL     1       3.417  -1.872  -3.591  0.00  0.00    +0.213 C 
ATOM     15  O   UNL     1       4.396  -1.173  -3.793  0.00  0.00    -0.285 OA
BRANCH  14  25
ATOM     16  C   UNL     1       4.465  -7.559  -5.580  0.00  0.00    +0.047 C 
ATOM     17  C   UNL     1       4.906  -6.131  -5.383  0.00  0.00    -0.008 A 
ATOM     18  C   UNL     1       6.139  -5.728  -5.804  0.00  0.00    +0.008 A 
ATOM     19  C   UNL     1       6.534  -4.397  -5.614  0.00  0.00    +0.018 A 
ATOM     20  C   UNL     1       5.696  -3.519  -5.015  0.00  0.00    +0.093 A 
ATOM     21  N   UNL     1       4.463  -3.913  -4.597  0.00  0.00    -0.296 N 
ATOM     22  C   UNL     1       4.051  -5.204  -4.764  0.00  0.00    +0.141 A 
ATOM     23  N   UNL     1       2.819  -5.325  -4.267  0.00  0.00    -0.232 NA
ATOM     24  C   UNL     1       2.415  -4.165  -3.780  0.00  0.00    +0.068 A 
ATOM     25  C   UNL     1       3.433  -3.239  -3.967  0.00  0.00    +0.116 A 
ATOM     26  C   UNL     1       1.081  -3.894  -3.134  0.00  0.00    +0.068 C 
ENDBRANCH  14  25
ENDBRANCH   1  14
BRANCH   2  27
ATOM     27  O   UNL     1       0.861  -0.986  -4.916  0.00  0.00    -0.502 OA
ATOM     28  H   UNL     1      -0.053  -0.635  -5.119  0.00  0.00    +0.292 HD
ENDBRANCH   2  27
BRANCH   5  29
ATOM     29  C   UNL     1       0.040  -0.036  -0.104  0.00  0.00    +0.107 C 
BRANCH  29  30
ATOM     30  C   UNL     1       0.363   1.435   0.164  0.00  0.00    +0.000 C 
BRANCH  30  31
ATOM     31  C   UNL     1      -0.304   1.875   1.468  0.00  0.00    -0.078 C 
BRANCH  31  34
ATOM     32  C   UNL     1      -0.606   4.154   0.709  0.00  0.00    -0.097 C 
ATOM     33  C   UNL     1      -0.413   3.682   3.076  0.00  0.00    -0.097 C 
ATOM     34  N   UNL     1       0.035   3.291   1.723  0.00  0.00    +0.376 N 
ATOM     35  H   UNL     1       1.054   3.405   1.663  0.00  0.00    -0.083 HD
ENDBRANCH  31  34
ENDBRANCH  30  31
ENDBRANCH  29  30
ENDBRANCH   5  29
TORSDOF 8
