REMARK  Name = ZINC39727299
REMARK  8 active torsions:
REMARK  status: ('A' for Active; 'I' for Inactive)
REMARK    1  A    between atoms: C_1  and  C_2
REMARK    2  A    between atoms: C_4  and  S_9
REMARK    3  A    between atoms: C_5  and  C_8
REMARK    4  A    between atoms: S_9  and  N_12
REMARK    5  A    between atoms: N_15  and  C_18
REMARK    6  A    between atoms: C_18  and  C_20
REMARK    7  A    between atoms: C_18  and  C_26
REMARK    8  A    between atoms: C_26  and  C_28
REMARK                            x       y       z     vdW  Elec       q    Type
REMARK                         _______ _______ _______ _____ _____    ______ ____
ROOT
ATOM      1  C   UNL     1      -3.071  -2.647  -6.338  0.00  0.00    +0.159 C 
ENDROOT
BRANCH   1   5
ATOM      2  N   UNL     1      -2.300  -1.212  -2.470  0.00  0.00    -0.174 NA
ATOM      3  C   UNL     1      -1.454  -0.693  -3.556  0.00  0.00    +0.125 C 
ATOM      4  C   UNL     1      -2.174  -0.927  -4.888  0.00  0.00    +0.102 C 
ATOM      5  N   UNL     1      -2.533  -2.347  -5.004  0.00  0.00    -0.286 NA
ATOM      6  C   UNL     1      -3.480  -2.745  -3.954  0.00  0.00    +0.102 C 
ATOM      7  C   UNL     1      -2.808  -2.587  -2.580  0.00  0.00    +0.125 C 
BRANCH   2   8
ATOM      8  S   UNL     1      -2.666  -0.273  -1.156  0.00  0.00    +0.061 S 
ATOM      9  O   UNL     1      -3.870  -0.792  -0.609  0.00  0.00    -0.153 OA
ATOM     10  O   UNL     1      -2.539   1.079  -1.574  0.00  0.00    -0.153 OA
BRANCH   8  13
ATOM     11  C   UNL     1      -0.019   1.526   0.010  0.00  0.00    +0.047 C 
ATOM     12  C   UNL     1       0.002  -0.004   0.002  0.00  0.00    +0.196 C 
ATOM     13  C   UNL     1      -1.407  -0.548   0.046  0.00  0.00    +0.134 C 
ATOM     14  C   UNL     1      -1.526  -1.263   1.145  0.00  0.00    +0.061 C 
ATOM     15  N   UNL     1      -0.345  -1.271   1.865  0.00  0.00    -0.268 N 
ATOM     16  O   UNL     1       0.636  -0.500   1.190  0.00  0.00    -0.265 OA
ATOM     17  C   UNL     1      -2.784  -1.980   1.564  0.00  0.00    +0.067 C 
ATOM     18  H   UNL     1      -0.208  -1.735   2.706  0.00  0.00    +0.194 HD
ENDBRANCH   8  13
ENDBRANCH   2   8
ENDBRANCH   1   5
BRANCH   1  19
ATOM     19  C   UNL     1      -3.427  -4.109  -6.419  0.00  0.00    -0.023 A 
ATOM     20  C   UNL     1      -2.604  -5.054  -5.836  0.00  0.00    +0.005 A 
ATOM     21  C   UNL     1      -2.930  -6.395  -5.910  0.00  0.00    +0.000 A 
ATOM     22  C   UNL     1      -4.080  -6.791  -6.568  0.00  0.00    +0.000 A 
ATOM     23  C   UNL     1      -4.904  -5.846  -7.150  0.00  0.00    +0.000 A 
ATOM     24  C   UNL     1      -4.579  -4.505  -7.072  0.00  0.00    +0.005 A 
ENDBRANCH   1  19
BRANCH   1  25
ATOM     25  C   UNL     1      -2.033  -2.324  -7.382  0.00  0.00    +0.183 C 
ATOM     26  O   UNL     1      -0.862  -2.240  -7.069  0.00  0.00    -0.290 OA
BRANCH  25  27
ATOM     27  C   UNL     1      -2.421  -2.119  -8.723  0.00  0.00    +0.025 C 
ATOM     28  C   UNL     1      -1.599  -1.823  -9.796  0.00  0.00    +0.006 A 
ATOM     29  C   UNL     1      -0.202  -1.637  -9.915  0.00  0.00    +0.010 A 
ATOM     30  C   UNL     1       0.347  -1.348 -11.116  0.00  0.00    +0.001 A 
ATOM     31  C   UNL     1      -0.421  -1.220 -12.285  0.00  0.00    +0.002 A 
ATOM     32  C   UNL     1      -1.763  -1.378 -12.279  0.00  0.00    +0.026 A 
ATOM     33  C   UNL     1      -2.441  -1.695 -11.011  0.00  0.00    +0.043 A 
ATOM     34  N   UNL     1      -3.695  -1.895 -10.722  0.00  0.00    -0.380 N 
ATOM     35  C   UNL     1      -3.822  -2.183  -9.290  0.00  0.00    +0.152 C 
ATOM     36  H   UNL     1      -4.428  -1.863 -11.355  0.00  0.00    +0.160 HD
ENDBRANCH  25  27
ENDBRANCH   1  25
TORSDOF 6
