REMARK  Name = ZINC30287426
REMARK  7 active torsions:
REMARK  status: ('A' for Active; 'I' for Inactive)
REMARK    1  A    between atoms: C_4  and  N_7
REMARK    2  A    between atoms: C_10  and  C_28
REMARK    3  A    between atoms: C_11  and  N_12
REMARK    4  A    between atoms: C_13  and  C_15
REMARK    5  A    between atoms: C_15  and  N_16
REMARK    6  A    between atoms: C_19  and  N_22
REMARK    7  A    between atoms: C_23  and  C_25
REMARK                            x       y       z     vdW  Elec       q    Type
REMARK                         _______ _______ _______ _____ _____    ______ ____
ROOT
ATOM      1  N   UNL     1      -0.870   2.146  -4.699  0.00  0.00    -0.272 N 
ATOM      2  C   UNL     1      -1.726   2.793  -5.514  0.00  0.00    +0.202 C 
ATOM      3  O   UNL     1      -2.705   3.341  -5.053  0.00  0.00    -0.278 OA
ATOM      4  H   UNL     1       0.022   1.655  -5.117  0.00  0.00    +0.156 HD
ENDROOT
BRANCH   1   9
ATOM      5  N   UNL     1      -2.329   1.940  -2.742  0.00  0.00    -0.300 N 
ATOM      6  C   UNL     1      -2.192   1.939  -1.381  0.00  0.00    +0.030 A 
ATOM      7  C   UNL     1      -0.891   2.098  -1.071  0.00  0.00    -0.007 A 
ATOM      8  C   UNL     1      -0.158   2.205  -2.330  0.00  0.00    +0.095 A 
ATOM      9  C   UNL     1      -1.113   2.099  -3.335  0.00  0.00    +0.128 A 
ATOM     10  C   UNL     1      -0.343   2.150   0.331  0.00  0.00    +0.038 C 
ATOM     11  C   UNL     1      -1.506   2.404   1.298  0.00  0.00    +0.005 C 
ATOM     12  C   UNL     1      -2.642   1.423   0.992  0.00  0.00    +0.006 C 
ATOM     13  C   UNL     1      -3.287   1.786  -0.351  0.00  0.00    +0.054 C 
BRANCH   5  17
ATOM     14  C   UNL     1      -5.941   1.516  -4.779  0.00  0.00    +0.000 A 
ATOM     15  C   UNL     1      -4.957   0.554  -4.912  0.00  0.00    +0.002 A 
ATOM     16  C   UNL     1      -3.759   0.692  -4.239  0.00  0.00    +0.026 A 
ATOM     17  C   UNL     1      -3.543   1.797  -3.427  0.00  0.00    +0.048 A 
ATOM     18  C   UNL     1      -4.536   2.759  -3.291  0.00  0.00    +0.026 A 
ATOM     19  C   UNL     1      -5.729   2.618  -3.971  0.00  0.00    +0.002 A 
ENDBRANCH   5  17
BRANCH   8  20
ATOM     20  C   UNL     1       1.253   2.383  -2.495  0.00  0.00    +0.103 C 
ATOM     21  N   UNL     1       2.373   2.525  -2.626  0.00  0.00    -0.191 NA
ENDBRANCH   8  20
ENDBRANCH   1   9
BRANCH   2  22
ATOM     22  C   UNL     1      -1.468   2.836  -6.998  0.00  0.00    +0.019 C 
BRANCH  22  23
ATOM     23  N   UNL     1      -2.610   3.463  -7.676  0.00  0.00    +0.386 N 
ATOM     24  C   UNL     1      -2.294   3.754  -9.081  0.00  0.00    -0.076 C 
ATOM     25  C   UNL     1      -3.448   4.534  -9.714  0.00  0.00    +0.003 C 
ATOM     26  C   UNL     1      -4.730   3.703  -9.622  0.00  0.00    +0.069 C 
ATOM     27  C   UNL     1      -5.011   3.372  -8.154  0.00  0.00    +0.003 C 
ATOM     28  C   UNL     1      -3.812   2.625  -7.566  0.00  0.00    -0.076 C 
ATOM     29  H   UNL     1      -2.821   4.419  -7.175  0.00  0.00    -0.081 HD
BRANCH  26  30
ATOM     30  N   UNL     1      -5.851   4.468 -10.175  0.00  0.00    -0.312 N 
ATOM     31  C   UNL     1      -6.093   4.447 -11.500  0.00  0.00    +0.216 C 
ATOM     32  O   UNL     1      -5.384   3.794 -12.236  0.00  0.00    -0.276 OA
ATOM     33  H   UNL     1      -6.494   5.060  -9.507  0.00  0.00    +0.149 HD
BRANCH  31  34
ATOM     34  C   UNL     1      -7.246   5.234 -12.068  0.00  0.00    +0.075 C 
ATOM     35  C   UNL     1      -8.430   4.447 -12.631  0.00  0.00    +0.013 C 
ATOM     36  C   UNL     1      -7.470   5.168 -13.580  0.00  0.00    +0.013 C 
ENDBRANCH  31  34
ENDBRANCH  26  30
ENDBRANCH  22  23
ENDBRANCH   2  22
TORSDOF 7
