REMARK  Name = ZINC39888068
REMARK  8 active torsions:
REMARK  status: ('A' for Active; 'I' for Inactive)
REMARK    1  A    between atoms: C_1  and  O_2
REMARK    2  A    between atoms: O_2  and  C_3
REMARK    3  A    between atoms: C_6  and  C_9
REMARK    4  A    between atoms: C_10  and  C_20
REMARK    5  A    between atoms: N_12  and  C_14
REMARK    6  A    between atoms: N_21  and  N_22
REMARK    7  A    between atoms: C_27  and  C_30
REMARK    8  A    between atoms: C_30  and  C_31
REMARK                            x       y       z     vdW  Elec       q    Type
REMARK                         _______ _______ _______ _____ _____    ______ ____
ROOT
ATOM      1  C   UNL     1      -4.530  -3.648   0.930  0.00  0.00    +0.102 A 
ATOM      2  C   UNL     1      -5.081  -4.364  -0.225  0.00  0.00    +0.041 A 
ATOM      3  C   UNL     1      -6.417  -4.572   0.046  0.00  0.00    +0.124 A 
ATOM      4  N   UNL     1      -6.681  -4.037   1.256  0.00  0.00    -0.239 N 
ATOM      5  N   UNL     1      -5.514  -3.480   1.786  0.00  0.00    -0.166 NA
ENDROOT
BRANCH   1   9
ATOM      6  C   UNL     1      -0.503  -2.374   1.426  0.00  0.00    +0.120 A 
ATOM      7  C   UNL     1      -1.546  -1.500   1.703  0.00  0.00    +0.046 A 
ATOM      8  C   UNL     1      -2.852  -1.910   1.543  0.00  0.00    +0.013 A 
ATOM      9  C   UNL     1      -3.127  -3.204   1.103  0.00  0.00    +0.003 A 
ATOM     10  C   UNL     1      -2.077  -4.080   0.826  0.00  0.00    +0.013 A 
ATOM     11  C   UNL     1      -0.773  -3.662   0.983  0.00  0.00    +0.046 A 
BRANCH   6  13
ATOM     12  C   UNL     1       0.989  -0.630   2.044  0.00  0.00    +0.277 C 
ATOM     13  O   UNL     1       0.783  -1.967   1.585  0.00  0.00    -0.495 OA
ENDBRANCH   6  13
ENDBRANCH   1   9
BRANCH   4  14
ATOM     14  C   UNL     1      -7.932  -4.043   1.887  0.00  0.00    +0.065 A 
ATOM     15  C   UNL     1      -9.022  -4.638   1.265  0.00  0.00    +0.028 A 
ATOM     16  C   UNL     1     -10.254  -4.642   1.890  0.00  0.00    +0.002 A 
ATOM     17  C   UNL     1     -10.402  -4.055   3.133  0.00  0.00    +0.000 A 
ATOM     18  C   UNL     1      -9.319  -3.461   3.755  0.00  0.00    +0.002 A 
ATOM     19  C   UNL     1      -8.083  -3.459   3.138  0.00  0.00    +0.028 A 
ENDBRANCH   4  14
BRANCH   2  20
ATOM     20  C   UNL     1      -4.353  -4.779  -1.434  0.00  0.00    +0.146 C 
ATOM     21  N   UNL     1      -3.111  -4.415  -1.605  0.00  0.00    -0.155 NA
BRANCH  21  22
ATOM     22  N   UNL     1      -2.380  -4.908  -2.693  0.00  0.00    -0.127 NA
ATOM     23  C   UNL     1      -1.142  -4.510  -2.889  0.00  0.00    +0.183 C 
ATOM     24  N   UNL     1      -0.439  -3.543  -2.199  0.00  0.00    -0.263 N 
ATOM     25  C   UNL     1       0.811  -3.230  -2.493  0.00  0.00    +0.232 C 
ATOM     26  O   UNL     1       1.423  -2.379  -1.883  0.00  0.00    -0.274 OA
ATOM     27  C   UNL     1       1.434  -4.003  -3.645  0.00  0.00    +0.144 C 
ATOM     28  S   UNL     1       0.027  -5.097  -4.106  0.00  0.00    -0.075 S 
ATOM     29  H   UNL     1      -0.878  -3.076  -1.471  0.00  0.00    +0.157 HD
BRANCH  27  30
ATOM     30  C   UNL     1       1.817  -3.070  -4.795  0.00  0.00    +0.059 C 
BRANCH  30  31
ATOM     31  C   UNL     1       2.539  -3.855  -5.860  0.00  0.00    -0.046 A 
ATOM     32  C   UNL     1       3.915  -3.987  -5.808  0.00  0.00    +0.005 A 
ATOM     33  C   UNL     1       4.577  -4.708  -6.784  0.00  0.00    +0.020 A 
ATOM     34  C   UNL     1       3.864  -5.296  -7.813  0.00  0.00    +0.041 A 
ATOM     35  C   UNL     1       2.488  -5.163  -7.864  0.00  0.00    +0.020 A 
ATOM     36  C   UNL     1       1.826  -4.448  -6.885  0.00  0.00    +0.005 A 
ATOM     37 CL   UNL     1       4.696  -6.201  -9.039  0.00  0.00    -0.084 Cl
ENDBRANCH  30  31
ENDBRANCH  27  30
ENDBRANCH  21  22
ENDBRANCH   2  20
TORSDOF 7
