REMARK  Name = ZINC64965573
REMARK  9 active torsions:
REMARK  status: ('A' for Active; 'I' for Inactive)
REMARK    1  A    between atoms: C_1  and  C_2
REMARK    2  A    between atoms: C_2  and  C_3
REMARK    3  A    between atoms: C_6  and  N_9
REMARK    4  A    between atoms: C_10  and  C_12
REMARK    5  A    between atoms: C_12  and  N_13
REMARK    6  A    between atoms: C_16  and  S_27
REMARK    7  A    between atoms: C_21  and  C_26
REMARK    8  A    between atoms: S_27  and  N_30
REMARK    9  A    between atoms: C_33  and  C_36
REMARK                            x       y       z     vdW  Elec       q    Type
REMARK                         _______ _______ _______ _____ _____    ______ ____
ROOT
ATOM      1  N   UNL     1      -7.949  -2.595  -2.470  0.00  0.00    -0.261 N 
ATOM      2  C   UNL     1      -8.518  -1.460  -3.070  0.00  0.00    +0.052 A 
ATOM      3  C   UNL     1      -7.852  -0.246  -3.058  0.00  0.00    +0.053 A 
ATOM      4  C   UNL     1      -8.429   0.859  -3.658  0.00  0.00    +0.107 A 
ATOM      5  C   UNL     1      -9.666   0.756  -4.268  0.00  0.00    +0.030 A 
ATOM      6  C   UNL     1     -10.338  -0.453  -4.283  0.00  0.00    +0.018 A 
ATOM      7  C   UNL     1      -9.765  -1.562  -3.683  0.00  0.00    +0.030 A 
ATOM      8  S   UNL     1     -10.601  -3.116  -3.680  0.00  0.00    -0.120 S 
ATOM      9  C   UNL     1      -9.637  -4.109  -4.868  0.00  0.00    +0.057 C 
ATOM     10  C   UNL     1      -8.149  -3.807  -4.619  0.00  0.00    +0.110 C 
ATOM     11  C   UNL     1      -7.861  -3.745  -3.149  0.00  0.00    +0.221 C 
ATOM     12  O   UNL     1      -7.544  -4.759  -2.563  0.00  0.00    -0.275 OA
ATOM     13  C   UNL     1      -9.911  -5.598  -4.645  0.00  0.00    +0.020 C 
ENDROOT
BRANCH   4  14
ATOM     14  S   UNL     1      -7.585   2.405  -3.643  0.00  0.00    +0.061 S 
ATOM     15  O   UNL     1      -8.577   3.411  -3.793  0.00  0.00    -0.153 OA
ATOM     16  O   UNL     1      -6.694   2.372  -2.536  0.00  0.00    -0.153 OA
BRANCH  14  17
ATOM     17  N   UNL     1      -6.644   2.462  -5.005  0.00  0.00    -0.177 NA
ATOM     18  C   UNL     1      -5.266   1.954  -4.985  0.00  0.00    +0.110 C 
ATOM     19  C   UNL     1      -4.328   3.052  -5.498  0.00  0.00    +0.020 C 
ATOM     20  C   UNL     1      -4.804   3.521  -6.875  0.00  0.00    -0.012 C 
ATOM     21  C   UNL     1      -6.214   4.106  -6.756  0.00  0.00    +0.020 C 
ATOM     22  C   UNL     1      -7.175   3.015  -6.259  0.00  0.00    +0.110 C 
ATOM     23  C   UNL     1      -3.851   4.593  -7.406  0.00  0.00    +0.007 C 
ENDBRANCH  14  17
ENDBRANCH   4  14
BRANCH   1  24
ATOM     24  C   UNL     1      -7.446  -2.518  -1.097  0.00  0.00    +0.209 C 
BRANCH  24  26
ATOM     25  N   UNL     1      -5.320  -1.968   0.042  0.00  0.00    -0.284 N 
ATOM     26  C   UNL     1      -5.997  -2.104  -1.115  0.00  0.00    +0.235 C 
ATOM     27  O   UNL     1      -5.440  -1.894  -2.172  0.00  0.00    -0.274 OA
ATOM     28  H   UNL     1      -5.745  -2.200   0.883  0.00  0.00    +0.155 HD
BRANCH  25  32
ATOM     29  C   UNL     1      -1.405  -0.545   0.010  0.00  0.00    -0.048 A 
ATOM     30  C   UNL     1      -1.855  -1.348  -1.022  0.00  0.00    +0.005 A 
ATOM     31  C   UNL     1      -3.153  -1.821  -1.014  0.00  0.00    +0.023 A 
ATOM     32  C   UNL     1      -4.005  -1.490   0.032  0.00  0.00    +0.033 A 
ATOM     33  C   UNL     1      -3.549  -0.684   1.067  0.00  0.00    +0.023 A 
ATOM     34  C   UNL     1      -2.249  -0.218   1.055  0.00  0.00    +0.005 A 
BRANCH  29  36
ATOM     35  C   UNL     1       0.924  -1.032   0.711  0.00  0.00    +0.009 C 
ATOM     36  C   UNL     1       0.012  -0.031  -0.002  0.00  0.00    +0.032 C 
ENDBRANCH  29  36
ENDBRANCH  25  32
ENDBRANCH  24  26
ENDBRANCH   1  24
TORSDOF 6
