REMARK  Name = ZINC39659746
REMARK  5 active torsions:
REMARK  status: ('A' for Active; 'I' for Inactive)
REMARK    1  A    between atoms: C_4  and  C_7
REMARK    2  A    between atoms: C_7  and  C_8
REMARK    3  A    between atoms: C_8  and  C_9
REMARK    4  A    between atoms: C_13  and  C_22
REMARK    5  A    between atoms: N_24  and  C_25
REMARK                            x       y       z     vdW  Elec       q    Type
REMARK                         _______ _______ _______ _____ _____    ______ ____
ROOT
ATOM      1  C   UNL     1       5.311  -1.471   1.515  0.00  0.00    +0.216 C 
ATOM      2  O   UNL     1       5.769  -1.688   0.413  0.00  0.00    -0.276 OA
ATOM      3  N   UNL     1       5.972  -1.886   2.613  0.00  0.00    -0.300 N 
ATOM      4  C   UNL     1       5.572  -1.721   4.031  0.00  0.00    +0.121 C 
ATOM      5  C   UNL     1       5.966  -3.055   4.705  0.00  0.00    +0.100 C 
ATOM      6  C   UNL     1       7.078  -3.632   3.813  0.00  0.00    -0.004 C 
ATOM      7  C   UNL     1       7.261  -2.616   2.676  0.00  0.00    +0.115 C 
ATOM      8  C   UNL     1       8.372  -3.777   4.608  0.00  0.00    -0.010 C 
ATOM      9  C   UNL     1       9.446  -4.407   3.716  0.00  0.00    -0.082 C 
ATOM     10  N   UNL     1       8.987  -5.720   3.248  0.00  0.00    +0.379 N 
ATOM     11  C   UNL     1       7.794  -5.562   2.406  0.00  0.00    -0.082 C 
ATOM     12  C   UNL     1       6.650  -4.981   3.243  0.00  0.00    -0.010 C 
ATOM     13  H   UNL     1       9.720  -6.159   2.711  0.00  0.00    -0.086 HD
ATOM     14  H   UNL     1       8.762  -6.299   4.042  0.00  0.00    -0.086 HD
ENDROOT
BRANCH   5  15
ATOM     15  C   UNL     1       4.785  -3.990   4.747  0.00  0.00    +0.218 C 
ATOM     16  O   UNL     1       3.937  -3.935   3.882  0.00  0.00    -0.275 OA
ATOM     17  N   UNL     1       4.671  -4.887   5.746  0.00  0.00    -0.312 N 
ATOM     18  H   UNL     1       5.350  -4.931   6.438  0.00  0.00    +0.149 HD
BRANCH  17  19
ATOM     19  C   UNL     1       3.523  -5.796   5.787  0.00  0.00    +0.073 C 
ATOM     20  C   UNL     1       2.347  -5.101   6.475  0.00  0.00    +0.022 C 
ATOM     21  C   UNL     1       1.056  -5.867   6.175  0.00  0.00    +0.002 C 
ATOM     22  C   UNL     1       1.018  -6.242   4.692  0.00  0.00    +0.000 C 
ATOM     23  C   UNL     1       1.123  -7.761   4.547  0.00  0.00    +0.000 C 
ATOM     24  C   UNL     1       2.570  -8.197   4.786  0.00  0.00    +0.000 C 
ATOM     25  C   UNL     1       2.874  -8.157   6.285  0.00  0.00    +0.002 C 
ATOM     26  C   UNL     1       3.899  -7.057   6.569  0.00  0.00    +0.022 C 
ENDBRANCH  17  19
ENDBRANCH   5  15
BRANCH   1  27
ATOM     27  C   UNL     1       4.002  -0.738   1.656  0.00  0.00    +0.100 C 
BRANCH  27  28
ATOM     28  C   UNL     1       3.465  -0.382   0.268  0.00  0.00    +0.044 C 
BRANCH  28  32
ATOM     29  C   UNL     1      -0.246   1.697   0.665  0.00  0.00    +0.000 A 
ATOM     30  C   UNL     1       0.943   2.402   0.641  0.00  0.00    +0.000 A 
ATOM     31  C   UNL     1       2.143   1.730   0.513  0.00  0.00    +0.003 A 
ATOM     32  C   UNL     1       2.156   0.351   0.409  0.00  0.00    -0.047 A 
ATOM     33  C   UNL     1       0.967  -0.354   0.433  0.00  0.00    +0.003 A 
ATOM     34  C   UNL     1      -0.234   0.319   0.560  0.00  0.00    +0.000 A 
ENDBRANCH  28  32
ENDBRANCH  27  28
ENDBRANCH   1  27
TORSDOF 5
