REMARK  Name = ZINC39684066
REMARK  10 active torsions:
REMARK  status: ('A' for Active; 'I' for Inactive)
REMARK    1  A    between atoms: C_1  and  C_2
REMARK    2  A    between atoms: C_7  and  C_11
REMARK    3  A    between atoms: C_11  and  C_12
REMARK    4  A    between atoms: C_12  and  N_13
REMARK    5  A    between atoms: C_14  and  C_16
REMARK    6  A    between atoms: C_27  and  C_29
REMARK    7  A    between atoms: C_31  and  O_37
REMARK    8  A    between atoms: C_33  and  O_35
REMARK    9  A    between atoms: O_35  and  C_36
REMARK   10  A    between atoms: O_37  and  C_38
REMARK                            x       y       z     vdW  Elec       q    Type
REMARK                         _______ _______ _______ _____ _____    ______ ____
ROOT
ATOM      1  C   UNL     1      -9.141   2.158  -6.489  0.00  0.00    +0.100 C 
ATOM      2  C   UNL     1      -8.327   3.155  -7.344  0.00  0.00    +0.121 C 
ATOM      3  N   UNL     1      -7.939   2.386  -8.549  0.00  0.00    -0.296 N 
ATOM      4  C   UNL     1      -9.134   1.568  -8.866  0.00  0.00    +0.115 C 
ATOM      5  C   UNL     1      -9.671   1.119  -7.492  0.00  0.00    -0.004 C 
ATOM      6  C   UNL     1      -9.140  -0.269  -7.147  0.00  0.00    -0.010 C 
ATOM      7  C   UNL     1      -9.726  -1.292  -8.123  0.00  0.00    -0.082 C 
ATOM      8  N   UNL     1     -11.191  -1.271  -8.036  0.00  0.00    +0.379 N 
ATOM      9  C   UNL     1     -11.700   0.039  -8.459  0.00  0.00    -0.082 C 
ATOM     10  C   UNL     1     -11.197   1.119  -7.496  0.00  0.00    -0.010 C 
ATOM     11  C   UNL     1      -6.764   2.421  -9.209  0.00  0.00    +0.247 C 
ATOM     12  O   UNL     1      -5.830   3.051  -8.753  0.00  0.00    -0.270 OA
ATOM     13  H   UNL     1     -11.573  -1.988  -8.635  0.00  0.00    -0.086 HD
ATOM     14  H   UNL     1     -11.473  -1.448  -7.083  0.00  0.00    -0.086 HD
ENDROOT
BRANCH  11  15
ATOM     15  C   UNL     1      -6.611   1.694 -10.487  0.00  0.00    +0.044 A 
ATOM     16  C   UNL     1      -7.738   1.345 -11.232  0.00  0.00    +0.059 A 
ATOM     17  C   UNL     1      -7.590   0.664 -12.429  0.00  0.00    +0.124 A 
ATOM     18  C   UNL     1      -6.324   0.328 -12.887  0.00  0.00    +0.091 A 
ATOM     19  C   UNL     1      -5.201   0.673 -12.149  0.00  0.00    +0.124 A 
ATOM     20  C   UNL     1      -5.340   1.360 -10.954  0.00  0.00    +0.059 A 
BRANCH  19  21
ATOM     21  O   UNL     1      -3.963   0.343 -12.602  0.00  0.00    -0.495 OA
ATOM     22  C   UNL     1      -3.894  -0.360 -13.845  0.00  0.00    +0.277 C 
ENDBRANCH  19  21
BRANCH  17  23
ATOM     23  O   UNL     1      -8.687   0.323 -13.156  0.00  0.00    -0.495 OA
ATOM     24  C   UNL     1      -8.462  -0.378 -14.381  0.00  0.00    +0.277 C 
ENDBRANCH  17  23
ENDBRANCH  11  15
BRANCH   1  26
ATOM     25  N   UNL     1      -8.786   0.978  -4.344  0.00  0.00    -0.315 N 
ATOM     26  C   UNL     1      -8.252   1.495  -5.468  0.00  0.00    +0.218 C 
ATOM     27  O   UNL     1      -7.056   1.427  -5.659  0.00  0.00    -0.275 OA
ATOM     28  H   UNL     1      -9.743   1.032  -4.192  0.00  0.00    +0.149 HD
BRANCH  25  29
ATOM     29  C   UNL     1      -7.922   0.334  -3.352  0.00  0.00    +0.109 C 
BRANCH  29  30
ATOM     30  C   UNL     1      -8.773  -0.164  -2.181  0.00  0.00    +0.056 C 
BRANCH  30  37
ATOM     31  C   UNL     1      -4.924  -1.922   2.447  0.00  0.00    +0.046 C 
ATOM     32  C   UNL     1      -5.663  -0.846   1.694  0.00  0.00    -0.027 A 
ATOM     33  C   UNL     1      -5.548   0.472   2.081  0.00  0.00    +0.005 A 
ATOM     34  C   UNL     1      -6.223   1.472   1.396  0.00  0.00    +0.001 A 
ATOM     35  C   UNL     1      -7.014   1.168   0.324  0.00  0.00    +0.010 A 
ATOM     36  C   UNL     1      -7.144  -0.160  -0.086  0.00  0.00    +0.003 A 
ATOM     37  C   UNL     1      -7.884  -0.826  -1.161  0.00  0.00    -0.021 A 
ATOM     38  C   UNL     1      -7.622  -2.139  -1.063  0.00  0.00    +0.087 A 
ATOM     39  N   UNL     1      -6.773  -2.368  -0.014  0.00  0.00    -0.360 N 
ATOM     40  C   UNL     1      -6.457  -1.178   0.602  0.00  0.00    +0.050 A 
ATOM     41  H   UNL     1      -6.441  -3.239   0.254  0.00  0.00    +0.165 HD
ENDBRANCH  30  37
ENDBRANCH  29  30
ENDBRANCH  25  29
ENDBRANCH   1  26
TORSDOF 7
