REMARK  Name = ZINC20136786
REMARK  13 active torsions:
REMARK  status: ('A' for Active; 'I' for Inactive)
REMARK    1  A    between atoms: C_1  and  C_2
REMARK    2  A    between atoms: C_2  and  O_3
REMARK    3  A    between atoms: O_3  and  C_4
REMARK    4  A    between atoms: C_4  and  C_6
REMARK    5  A    between atoms: C_7  and  C_33
REMARK    6  A    between atoms: C_9  and  S_20
REMARK    7  A    between atoms: C_10  and  C_18
REMARK    8  A    between atoms: C_11  and  C_13
REMARK    9  A    between atoms: S_20  and  C_21
REMARK   10  A    between atoms: C_21  and  C_22
REMARK   11  A    between atoms: N_24  and  C_25
REMARK   12  A    between atoms: C_29  and  C_32
REMARK   13  A    between atoms: C_30  and  C_31
REMARK                            x       y       z     vdW  Elec       q    Type
REMARK                         _______ _______ _______ _____ _____    ______ ____
ROOT
ATOM      1  C   UNL     1      -4.301  -0.647  -0.676  0.00  0.00    +0.074 C 
ATOM      2  C   UNL     1      -3.973   0.483   0.003  0.00  0.00    +0.050 C 
ATOM      3  N   UNL     1      -2.822   0.541   0.758  0.00  0.00    -0.308 N 
ATOM      4  C   UNL     1      -1.817  -0.376   0.550  0.00  0.00    +0.080 C 
ATOM      5  C   UNL     1      -2.063  -1.539  -0.109  0.00  0.00    +0.072 C 
ATOM      6  C   UNL     1      -3.432  -1.871  -0.630  0.00  0.00    +0.136 C 
ATOM      7  H   UNL     1      -2.707   1.320   1.527  0.00  0.00    +0.153 HD
ENDROOT
BRANCH   2   8
ATOM      8  C   UNL     1      -4.864   1.660  -0.064  0.00  0.00    -0.003 A 
ATOM      9  C   UNL     1      -4.433   2.830  -0.692  0.00  0.00    +0.010 A 
ATOM     10  C   UNL     1      -5.272   3.923  -0.756  0.00  0.00    +0.001 A 
ATOM     11  C   UNL     1      -6.533   3.866  -0.189  0.00  0.00    +0.000 A 
ATOM     12  C   UNL     1      -6.964   2.711   0.440  0.00  0.00    +0.001 A 
ATOM     13  C   UNL     1      -6.138   1.609   0.506  0.00  0.00    +0.010 A 
ENDBRANCH   2   8
BRANCH   6  14
ATOM     14  C   UNL     1      -4.070  -2.896   0.272  0.00  0.00    +0.118 A 
ATOM     15  C   UNL     1      -4.480  -4.123  -0.097  0.00  0.00    +0.045 A 
ATOM     16  C   UNL     1      -5.014  -4.741   1.057  0.00  0.00    +0.041 A 
ATOM     17  C   UNL     1      -4.897  -3.855   2.063  0.00  0.00    +0.195 A 
ATOM     18  O   UNL     1      -4.320  -2.742   1.583  0.00  0.00    -0.467 OA
ENDBRANCH   6  14
BRANCH   1  19
ATOM     19  C   UNL     1      -5.482  -0.671  -1.442  0.00  0.00    +0.338 C 
ATOM     20  O   UNL     1      -6.133   0.348  -1.589  0.00  0.00    -0.245 OA
BRANCH  19  21
ATOM     21  O   UNL     1      -5.893  -1.823  -2.013  0.00  0.00    -0.462 OA
BRANCH  21  23
ATOM     22  C   UNL     1      -7.403  -3.164  -3.341  0.00  0.00    +0.048 C 
ATOM     23  C   UNL     1      -7.100  -1.775  -2.776  0.00  0.00    +0.229 C 
ENDBRANCH  21  23
ENDBRANCH  19  21
ENDBRANCH   1  19
BRANCH   5  24
ATOM     24  C   UNL     1      -0.993  -2.468  -0.311  0.00  0.00    +0.098 C 
ATOM     25  N   UNL     1      -0.144  -3.205  -0.472  0.00  0.00    -0.191 NA
ENDBRANCH   5  24
BRANCH   4  26
ATOM     26  S   UNL     1      -0.195  -0.042   1.152  0.00  0.00    -0.100 S 
BRANCH  26  27
ATOM     27  C   UNL     1      -0.467   1.581   1.907  0.00  0.00    +0.171 C 
BRANCH  27  28
ATOM     28  C   UNL     1       0.823   2.080   2.504  0.00  0.00    +0.227 C 
ATOM     29  O   UNL     1       1.828   1.405   2.427  0.00  0.00    -0.275 OA
ATOM     30  N   UNL     1       0.860   3.276   3.125  0.00  0.00    -0.285 N 
ATOM     31  H   UNL     1      -0.066   3.853   3.262  0.00  0.00    +0.155 HD
BRANCH  30  32
ATOM     32  C   UNL     1       2.077   3.783   3.594  0.00  0.00    +0.037 A 
ATOM     33  C   UNL     1       3.052   2.918   4.076  0.00  0.00    +0.023 A 
ATOM     34  C   UNL     1       4.252   3.422   4.539  0.00  0.00    +0.002 A 
ATOM     35  C   UNL     1       4.483   4.785   4.523  0.00  0.00    +0.004 A 
ATOM     36  C   UNL     1       3.515   5.648   4.044  0.00  0.00    -0.046 A 
ATOM     37  C   UNL     1       2.315   5.151   3.575  0.00  0.00    -0.026 A 
ATOM     38  C   UNL     1       1.262   6.092   3.047  0.00  0.00    +0.046 C 
ATOM     39  C   UNL     1       3.771   7.133   4.029  0.00  0.00    +0.044 C 
ENDBRANCH  30  32
ENDBRANCH  27  28
ENDBRANCH  26  27
ENDBRANCH   4  26
TORSDOF 10
