REMARK  Name = ZINC48533018
REMARK  11 active torsions:
REMARK  status: ('A' for Active; 'I' for Inactive)
REMARK    1  A    between atoms: C_1  and  C_2
REMARK    2  A    between atoms: C_2  and  O_4
REMARK    3  A    between atoms: O_4  and  C_5
REMARK    4  A    between atoms: C_9  and  C_43
REMARK    5  A    between atoms: C_14  and  C_42
REMARK    6  A    between atoms: C_25  and  C_26
REMARK    7  A    between atoms: C_25  and  O_41
REMARK    8  A    between atoms: C_26  and  C_27
REMARK    9  A    between atoms: C_27  and  C_28
REMARK   10  A    between atoms: C_27  and  C_34
REMARK   11  A    between atoms: C_27  and  O_40
REMARK                            x       y       z     vdW  Elec       q    Type
REMARK                         _______ _______ _______ _____ _____    ______ ____
ROOT
ATOM      1  C   UNL     1      -0.344  -2.991   3.416  0.00  0.00    +0.180 C 
ATOM      2  C   UNL     1      -1.154  -3.385   2.182  0.00  0.00    +0.046 C 
ATOM      3  C   UNL     1      -2.561  -2.798   2.249  0.00  0.00    +0.015 C 
ATOM      4  C   UNL     1      -3.299  -3.284   3.500  0.00  0.00    -0.008 C 
ATOM      5  C   UNL     1      -4.678  -2.664   3.577  0.00  0.00    +0.003 C 
ATOM      6  C   UNL     1      -4.772  -1.340   2.833  0.00  0.00    +0.005 C 
ATOM      7  C   UNL     1      -6.234  -0.854   2.790  0.00  0.00    +0.010 C 
ATOM      8  C   UNL     1      -6.728  -0.674   4.202  0.00  0.00    -0.000 C 
ATOM      9  C   UNL     1      -6.577  -1.986   4.991  0.00  0.00    +0.001 C 
ATOM     10  C   UNL     1      -5.186  -2.546   5.016  0.00  0.00    +0.000 C 
ATOM     11  C   UNL     1      -4.199  -1.777   5.877  0.00  0.00    +0.031 C 
ATOM     12  C   UNL     1      -2.836  -2.409   5.769  0.00  0.00    -0.027 C 
ATOM     13  C   UNL     1      -2.445  -3.047   4.708  0.00  0.00    -0.064 C 
ATOM     14  C   UNL     1      -1.012  -3.556   4.674  0.00  0.00    +0.075 C 
ATOM     15  C   UNL     1      -7.252  -1.631   6.321  0.00  0.00    +0.007 C 
ATOM     16  C   UNL     1      -8.504  -0.832   5.856  0.00  0.00    +0.036 C 
ATOM     17  C   UNL     1      -8.227  -0.388   4.394  0.00  0.00    +0.075 C 
ATOM     18  C   UNL     1      -6.001   0.509   4.853  0.00  0.00    +0.014 C 
ATOM     19  C   UNL     1      -3.501  -4.801   3.362  0.00  0.00    +0.016 C 
ENDROOT
BRANCH  17  20
ATOM     20  O   UNL     1      -8.466   1.014   4.255  0.00  0.00    -0.388 OA
ATOM     21  H   UNL     1      -9.346   1.294   4.542  0.00  0.00    +0.210 HD
ENDBRANCH  17  20
BRANCH   1  22
ATOM     22  O   UNL     1      -0.276  -1.567   3.511  0.00  0.00    -0.461 OA
BRANCH  22  24
ATOM     23  C   UNL     1       0.960   0.449   4.223  0.00  0.00    +0.136 C 
ATOM     24  C   UNL     1       0.819  -1.046   4.087  0.00  0.00    +0.304 C 
ATOM     25  O   UNL     1       1.691  -1.775   4.497  0.00  0.00    -0.251 OA
ENDBRANCH  22  24
ENDBRANCH   1  22
BRANCH  17  26
ATOM     26  C   UNL     1      -9.087  -1.178   3.417  0.00  0.00    +0.079 C 
BRANCH  26  27
ATOM     27  C   UNL     1     -10.547  -0.745   3.557  0.00  0.00    +0.118 C 
BRANCH  27  28
ATOM     28  C   UNL     1     -10.684   0.699   3.150  0.00  0.00    -0.012 A 
ATOM     29  C   UNL     1     -10.023   1.167   2.030  0.00  0.00    +0.007 A 
ATOM     30  C   UNL     1     -10.149   2.492   1.657  0.00  0.00    +0.000 A 
ATOM     31  C   UNL     1     -10.936   3.349   2.404  0.00  0.00    +0.000 A 
ATOM     32  C   UNL     1     -11.597   2.881   3.523  0.00  0.00    +0.000 A 
ATOM     33  C   UNL     1     -11.475   1.555   3.894  0.00  0.00    +0.007 A 
ENDBRANCH  27  28
BRANCH  27  34
ATOM     34  C   UNL     1     -11.412  -1.602   2.668  0.00  0.00    -0.012 A 
ATOM     35  C   UNL     1     -10.895  -2.128   1.500  0.00  0.00    +0.007 A 
ATOM     36  C   UNL     1     -11.688  -2.913   0.684  0.00  0.00    +0.000 A 
ATOM     37  C   UNL     1     -12.999  -3.173   1.038  0.00  0.00    +0.000 A 
ATOM     38  C   UNL     1     -13.516  -2.648   2.208  0.00  0.00    +0.000 A 
ATOM     39  C   UNL     1     -12.722  -1.866   3.025  0.00  0.00    +0.007 A 
ENDBRANCH  27  34
BRANCH  27  40
ATOM     40  O   UNL     1     -10.962  -0.899   4.916  0.00  0.00    -0.379 OA
ATOM     41  H   UNL     1     -10.900  -1.806   5.246  0.00  0.00    +0.211 HD
ENDBRANCH  27  40
ENDBRANCH  26  27
ENDBRANCH  17  26
TORSDOF 8
