REMARK  Name = ZINC01799969
REMARK  5 active torsions:
REMARK  status: ('A' for Active; 'I' for Inactive)
REMARK    1  A    between atoms: C_3  and  C_8
REMARK    2  A    between atoms: C_5  and  O_7
REMARK    3  A    between atoms: N_12  and  N_16
REMARK    4  A    between atoms: C_17  and  C_19
REMARK    5  A    between atoms: C_23  and  N_25
REMARK                            x       y       z     vdW  Elec       q    Type
REMARK                         _______ _______ _______ _____ _____    ______ ____
ROOT
ATOM      1  C   UNL     1       3.771   2.734  -2.481  0.00  0.00    +0.025 C 
ATOM      2  C   UNL     1       4.956   3.394  -2.483  0.00  0.00    +0.048 C 
ATOM      3  C   UNL     1       5.808   3.800  -1.348  0.00  0.00    +0.114 C 
ATOM      4  S   UNL     1       5.372   3.459   0.272  0.00  0.00    -0.032 S 
ATOM      5  N   UNL     1       6.926   4.441  -1.646  0.00  0.00    -0.170 N 
ATOM      6  C   UNL     1       7.267   4.707  -2.923  0.00  0.00    +0.300 C 
ATOM      7  O   UNL     1       8.256   5.281  -3.337  0.00  0.00    -0.260 OA
ATOM      8  S   UNL     1       5.919   4.005  -3.860  0.00  0.00    -0.027 S 
ENDROOT
BRANCH   1  11
ATOM      9  C   UNL     1       2.199   3.398   0.859  0.00  0.00    +0.004 A 
ATOM     10  C   UNL     1       2.882   3.593  -0.324  0.00  0.00    +0.008 A 
ATOM     11  C   UNL     1       3.044   2.531  -1.220  0.00  0.00    -0.020 A 
ATOM     12  C   UNL     1       2.511   1.276  -0.910  0.00  0.00    +0.053 A 
ATOM     13  C   UNL     1       1.828   1.094   0.280  0.00  0.00    +0.117 A 
ATOM     14  C   UNL     1       1.668   2.157   1.160  0.00  0.00    +0.045 A 
BRANCH  13  15
ATOM     15  O   UNL     1       1.308  -0.124   0.585  0.00  0.00    -0.507 OA
ATOM     16  H   UNL     1       1.913  -0.699   1.073  0.00  0.00    +0.292 HD
ENDBRANCH  13  15
ENDBRANCH   1  11
BRANCH   5  17
ATOM     17  N   UNL     1       7.776   4.852  -0.611  0.00  0.00    -0.222 N 
ATOM     18  C   UNL     1       8.923   4.184  -0.375  0.00  0.00    +0.261 C 
ATOM     19  O   UNL     1       9.220   3.225  -1.060  0.00  0.00    -0.269 OA
ATOM     20  H   UNL     1       7.540   5.617  -0.064  0.00  0.00    +0.174 HD
BRANCH  18  21
ATOM     21  C   UNL     1       9.820   4.617   0.717  0.00  0.00    +0.040 A 
ATOM     22  C   UNL     1       9.482   5.718   1.506  0.00  0.00    +0.013 A 
ATOM     23  C   UNL     1      10.323   6.118   2.524  0.00  0.00    +0.003 A 
ATOM     24  C   UNL     1      11.500   5.430   2.763  0.00  0.00    +0.033 A 
ATOM     25  C   UNL     1      11.840   4.338   1.985  0.00  0.00    +0.127 A 
ATOM     26  C   UNL     1      11.005   3.925   0.968  0.00  0.00    +0.045 A 
BRANCH  25  27
ATOM     27  N   UNL     1      13.101   3.607   2.249  0.00  0.00    +0.056 N 
ATOM     28  O   UNL     1      13.837   3.968   3.150  0.00  0.00    -0.126 OA
ATOM     29  O   UNL     1      13.402   2.646   1.565  0.00  0.00    -0.126 OA
ENDBRANCH  25  27
ENDBRANCH  18  21
ENDBRANCH   5  17
TORSDOF 5
