REMARK  Name = ZINC45143571
REMARK  9 active torsions:
REMARK  status: ('A' for Active; 'I' for Inactive)
REMARK    1  A    between atoms: C_1  and  C_2
REMARK    2  A    between atoms: C_4  and  N_19
REMARK    3  A    between atoms: C_5  and  S_9
REMARK    4  A    between atoms: C_7  and  C_8
REMARK    5  A    between atoms: S_9  and  N_12
REMARK    6  A    between atoms: N_12  and  C_13
REMARK    7  A    between atoms: N_12  and  C_14
REMARK    8  A    between atoms: C_14  and  C_16
REMARK    9  A    between atoms: C_14  and  C_17
REMARK                            x       y       z     vdW  Elec       q    Type
REMARK                         _______ _______ _______ _____ _____    ______ ____
ROOT
ATOM      1  C   UNL     1      -0.511   1.421   0.692  0.00  0.00    +0.044 C 
ATOM      2  C   UNL     1      -0.228  -0.035   0.420  0.00  0.00    -0.045 A 
ATOM      3  C   UNL     1      -0.168  -0.496  -0.881  0.00  0.00    +0.038 A 
ATOM      4  C   UNL     1       0.092  -1.831  -1.130  0.00  0.00    +0.153 A 
ATOM      5  C   UNL     1       0.292  -2.704  -0.077  0.00  0.00    +0.136 A 
ATOM      6  C   UNL     1       0.232  -2.242   1.225  0.00  0.00    +0.034 A 
ATOM      7  C   UNL     1      -0.023  -0.907   1.473  0.00  0.00    -0.046 A 
ATOM      8  C   UNL     1      -0.083  -0.402   2.892  0.00  0.00    +0.044 C 
ENDROOT
BRANCH   5   9
ATOM      9  S   UNL     1       0.621  -4.406  -0.394  0.00  0.00    +0.064 S 
ATOM     10  O   UNL     1      -0.632  -5.019  -0.663  0.00  0.00    -0.153 OA
ATOM     11  O   UNL     1       1.703  -4.445  -1.315  0.00  0.00    -0.153 OA
BRANCH   9  12
ATOM     12  N   UNL     1       1.178  -5.068   1.018  0.00  0.00    -0.163 NA
ATOM     13  C   UNL     1       0.244  -5.717   1.942  0.00  0.00    +0.133 C 
BRANCH  12  14
ATOM     14  C   UNL     1       2.605  -5.005   1.345  0.00  0.00    +0.178 C 
ATOM     15  C   UNL     1       3.157  -6.424   1.493  0.00  0.00    +0.042 C 
BRANCH  14  16
ATOM     16  C   UNL     1       2.788  -4.273   2.608  0.00  0.00    +0.083 C 
ATOM     17  N   UNL     1       2.929  -3.708   3.584  0.00  0.00    -0.195 NA
ENDBRANCH  14  16
ENDBRANCH  12  14
ENDBRANCH   9  12
ENDBRANCH   5   9
BRANCH   4  18
ATOM     18  N   UNL     1       0.155  -2.325  -2.524  0.00  0.00    +0.058 N 
ATOM     19  O   UNL     1       0.111  -1.544  -3.445  0.00  0.00    -0.126 OA
ATOM     20  O   UNL     1       0.251  -3.511  -2.741  0.00  0.00    -0.126 OA
ENDBRANCH   4  18
TORSDOF 5
