REMARK  Name = ZINC02351695
REMARK  11 active torsions:
REMARK  status: ('A' for Active; 'I' for Inactive)
REMARK    1  A    between atoms: C_1  and  C_2
REMARK    2  A    between atoms: C_2  and  O_3
REMARK    3  A    between atoms: O_3  and  C_4
REMARK    4  A    between atoms: C_9  and  C_10
REMARK    5  A    between atoms: C_12  and  C_35
REMARK    6  A    between atoms: C_13  and  S_22
REMARK    7  A    between atoms: S_22  and  C_23
REMARK    8  A    between atoms: C_23  and  C_24
REMARK    9  A    between atoms: N_26  and  C_27
REMARK   10  A    between atoms: C_30  and  C_34
REMARK   11  A    between atoms: C_32  and  C_33
REMARK                            x       y       z     vdW  Elec       q    Type
REMARK                         _______ _______ _______ _____ _____    ______ ____
ROOT
ATOM      1  C   UNL     1       1.994  -1.358  -3.518  0.00  0.00    +0.100 C 
ATOM      2  C   UNL     1       3.472  -1.597  -3.610  0.00  0.00    +0.069 C 
ATOM      3  C   UNL     1       4.004  -2.315  -4.636  0.00  0.00    +0.080 C 
ATOM      4  N   UNL     1       3.186  -2.829  -5.615  0.00  0.00    -0.311 N 
ATOM      5  C   UNL     1       1.931  -2.321  -5.811  0.00  0.00    +0.016 C 
ATOM      6  C   UNL     1       1.320  -1.606  -4.843  0.00  0.00    +0.025 C 
ATOM      7  C   UNL     1       0.036  -1.068  -5.043  0.00  0.00    +0.162 C 
ATOM      8  O   UNL     1      -0.490  -0.434  -4.150  0.00  0.00    -0.292 OA
ATOM      9  C   UNL     1      -0.698  -1.263  -6.341  0.00  0.00    +0.080 C 
ATOM     10  C   UNL     1       0.323  -1.421  -7.473  0.00  0.00    +0.014 C 
ATOM     11  C   UNL     1       1.248  -2.586  -7.130  0.00  0.00    +0.051 C 
ATOM     12  H   UNL     1       3.502  -3.557  -6.172  0.00  0.00    +0.152 HD
ENDROOT
BRANCH   1  18
ATOM     13  C   UNL     1       0.768  -1.763  -1.368  0.00  0.00    +0.125 A 
ATOM     14  C   UNL     1       0.224  -2.618  -0.420  0.00  0.00    +0.046 A 
ATOM     15  C   UNL     1       0.324  -3.985  -0.588  0.00  0.00    +0.004 A 
ATOM     16  C   UNL     1       0.966  -4.502  -1.698  0.00  0.00    +0.001 A 
ATOM     17  C   UNL     1       1.509  -3.652  -2.643  0.00  0.00    +0.008 A 
ATOM     18  C   UNL     1       1.407  -2.284  -2.484  0.00  0.00    +0.007 A 
BRANCH  13  19
ATOM     19  O   UNL     1       0.670  -0.417  -1.206  0.00  0.00    -0.492 OA
BRANCH  19  21
ATOM     20  C   UNL     1      -0.011   1.578  -0.025  0.00  0.00    +0.048 C 
ATOM     21  C   UNL     1      -0.001   0.048  -0.033  0.00  0.00    +0.225 C 
ENDBRANCH  19  21
ENDBRANCH  13  19
ENDBRANCH   1  18
BRANCH   2  22
ATOM     22  C   UNL     1       4.337  -1.062  -2.602  0.00  0.00    +0.098 C 
ATOM     23  N   UNL     1       5.023  -0.637  -1.802  0.00  0.00    -0.191 NA
ENDBRANCH   2  22
BRANCH   3  24
ATOM     24  S   UNL     1       5.744  -2.586  -4.710  0.00  0.00    -0.100 S 
BRANCH  24  25
ATOM     25  C   UNL     1       5.970  -3.569  -6.218  0.00  0.00    +0.171 C 
BRANCH  25  26
ATOM     26  C   UNL     1       7.434  -3.874  -6.403  0.00  0.00    +0.227 C 
ATOM     27  O   UNL     1       8.245  -3.468  -5.598  0.00  0.00    -0.275 OA
ATOM     28  N   UNL     1       7.842  -4.598  -7.465  0.00  0.00    -0.285 N 
ATOM     29  H   UNL     1       7.189  -4.990  -8.065  0.00  0.00    +0.155 HD
BRANCH  28  30
ATOM     30  C   UNL     1       9.209  -4.784  -7.700  0.00  0.00    +0.036 A 
ATOM     31  C   UNL     1      10.130  -3.865  -7.214  0.00  0.00    +0.024 A 
ATOM     32  C   UNL     1      11.479  -4.051  -7.449  0.00  0.00    +0.005 A 
ATOM     33  C   UNL     1      11.911  -5.151  -8.167  0.00  0.00    -0.050 A 
ATOM     34  C   UNL     1      10.997  -6.067  -8.652  0.00  0.00    +0.008 A 
ATOM     35  C   UNL     1       9.647  -5.890  -8.416  0.00  0.00    -0.029 A 
ATOM     36  C   UNL     1       8.652  -6.893  -8.939  0.00  0.00    +0.045 C 
ATOM     37  C   UNL     1      13.383  -5.351  -8.421  0.00  0.00    +0.044 C 
ENDBRANCH  28  30
ENDBRANCH  25  26
ENDBRANCH  24  25
ENDBRANCH   3  24
TORSDOF 8
