REMARK  Name = ZINC24194309
REMARK  11 active torsions:
REMARK  status: ('A' for Active; 'I' for Inactive)
REMARK    1  A    between atoms: C_1  and  C_2
REMARK    2  A    between atoms: C_3  and  C_28
REMARK    3  A    between atoms: N_4  and  C_24
REMARK    4  A    between atoms: C_5  and  S_7
REMARK    5  A    between atoms: S_7  and  C_8
REMARK    6  A    between atoms: C_8  and  C_9
REMARK    7  A    between atoms: C_11  and  O_12
REMARK    8  A    between atoms: C_21  and  C_23
REMARK    9  A    between atoms: C_24  and  C_25
REMARK   10  A    between atoms: C_25  and  C_26
REMARK   11  A    between atoms: C_25  and  C_27
REMARK                            x       y       z     vdW  Elec       q    Type
REMARK                         _______ _______ _______ _____ _____    ______ ____
ROOT
ATOM      1  C   UNL     1       0.016  -3.796   4.588  0.00  0.00    -0.020 A 
ATOM      2  C   UNL     1      -1.065  -4.642   4.735  0.00  0.00    +0.092 A 
ATOM      3  C   UNL     1      -0.962  -5.763   5.546  0.00  0.00    +0.285 A 
ATOM      4  O   UNL     1       0.170  -6.049   6.197  0.00  0.00    -0.425 OA
ATOM      5  C   UNL     1       1.257  -5.257   6.090  0.00  0.00    +0.141 A 
ATOM      6  C   UNL     1       1.210  -4.105   5.273  0.00  0.00    +0.022 A 
ATOM      7  C   UNL     1       2.343  -3.280   5.154  0.00  0.00    +0.013 A 
ATOM      8  C   UNL     1       3.484  -3.593   5.821  0.00  0.00    +0.024 A 
ATOM      9  C   UNL     1       3.541  -4.741   6.632  0.00  0.00    +0.037 A 
ATOM     10  C   UNL     1       2.422  -5.564   6.769  0.00  0.00    +0.070 A 
ATOM     11  N   UNL     1       4.690  -5.044   7.296  0.00  0.00    -0.286 N 
ATOM     12  C   UNL     1       4.865  -6.253   7.793  0.00  0.00    +0.214 C 
ATOM     13  O   UNL     1       4.056  -7.133   7.555  0.00  0.00    -0.276 OA
ATOM     14  C   UNL     1       6.065  -6.547   8.655  0.00  0.00    +0.109 C 
ATOM     15  H   UNL     1       5.380  -4.372   7.403  0.00  0.00    +0.155 HD
ENDROOT
BRANCH   3  16
ATOM     16  O   UNL     1      -2.024  -6.580   5.680  0.00  0.00    -0.480 OA
ATOM     17  H   UNL     1      -1.868  -7.336   6.262  0.00  0.00    +0.295 HD
ENDBRANCH   3  16
BRANCH   1  18
ATOM     18  C   UNL     1      -0.075  -2.574   3.712  0.00  0.00    +0.113 C 
BRANCH  18  19
ATOM     19  S   UNL     1      -0.020  -3.074   1.969  0.00  0.00    -0.085 S 
BRANCH  19  24
ATOM     20  C   UNL     1      -0.424   2.050   0.844  0.00  0.00    +0.065 C 
ATOM     21  C   UNL     1      -0.303   0.561   0.645  0.00  0.00    +0.034 A 
ATOM     22  C   UNL     1      -0.242  -0.072  -0.539  0.00  0.00    +0.037 A 
ATOM     23  N   UNL     1      -0.135  -1.418  -0.269  0.00  0.00    -0.324 N 
ATOM     24  C   UNL     1      -0.136  -1.554   1.085  0.00  0.00    +0.148 A 
ATOM     25  N   UNL     1      -0.232  -0.360   1.621  0.00  0.00    -0.338 N 
ATOM     26  C   UNL     1      -0.282   0.569  -1.902  0.00  0.00    +0.065 C 
ATOM     27  H   UNL     1      -0.251  -0.172   2.573  0.00  0.00    +0.168 HD
BRANCH  23  28
ATOM     28  C   UNL     1      -0.040  -2.499  -1.253  0.00  0.00    +0.127 C 
BRANCH  28  29
ATOM     29  C   UNL     1       1.431  -2.759  -1.584  0.00  0.00    +0.003 C 
ATOM     30  C   UNL     1       2.150  -3.282  -0.338  0.00  0.00    +0.009 C 
ATOM     31  C   UNL     1       1.527  -3.800  -2.702  0.00  0.00    +0.009 C 
ENDBRANCH  28  29
ENDBRANCH  23  28
ENDBRANCH  19  24
ENDBRANCH  18  19
ENDBRANCH   1  18
TORSDOF 6
