REMARK  Name = ZINC53278153
REMARK  3 active torsions:
REMARK  status: ('A' for Active; 'I' for Inactive)
REMARK    1  A    between atoms: C_3  and  N_22
REMARK    2  A    between atoms: C_4  and  N_7
REMARK    3  A    between atoms: C_17  and  C_19
REMARK                            x       y       z     vdW  Elec       q    Type
REMARK                         _______ _______ _______ _____ _____    ______ ____
ROOT
ATOM      1  N   UNL     1       3.388  -1.016   0.065  0.00  0.00    -0.365 NA
ATOM      2  C   UNL     1       3.782  -2.172  -0.788  0.00  0.00    +0.061 C 
ATOM      3  C   UNL     1       2.485  -2.890  -1.170  0.00  0.00    +0.021 C 
ATOM      4  C   UNL     1       2.775  -4.280  -1.729  0.00  0.00    +0.002 C 
ATOM      5  C   UNL     1       3.453  -5.112  -0.634  0.00  0.00    +0.000 C 
ATOM      6  C   UNL     1       4.798  -4.464  -0.307  0.00  0.00    +0.005 C 
ATOM      7  C   UNL     1       4.650  -3.027   0.153  0.00  0.00    +0.010 C 
ATOM      8  C   UNL     1       3.884  -2.927   1.488  0.00  0.00    +0.038 C 
ATOM      9  C   UNL     1       3.389  -1.462   1.472  0.00  0.00    +0.172 C 
ATOM     10  H   UNL     1       4.050  -0.264  -0.055  0.00  0.00    +0.129 HD
ENDROOT
BRANCH   1  14
ATOM     11  C   UNL     1      -0.395   0.237  -0.971  0.00  0.00    +0.022 A 
ATOM     12  C   UNL     1       0.689   0.994  -1.389  0.00  0.00    +0.037 A 
ATOM     13  C   UNL     1       1.962   0.572  -1.040  0.00  0.00    +0.164 A 
ATOM     14  C   UNL     1       2.108  -0.582  -0.292  0.00  0.00    +0.136 A 
ATOM     15  N   UNL     1       1.054  -1.277   0.088  0.00  0.00    -0.239 NA
ATOM     16  C   UNL     1      -0.172  -0.905  -0.225  0.00  0.00    +0.113 A 
BRANCH  13  17
ATOM     17  N   UNL     1       3.151   1.346  -1.463  0.00  0.00    +0.060 N 
ATOM     18  O   UNL     1       3.013   2.366  -2.097  0.00  0.00    -0.126 OA
ATOM     19  O   UNL     1       4.259   0.958  -1.175  0.00  0.00    -0.126 OA
ENDBRANCH  13  17
ENDBRANCH   1  14
BRANCH   9  20
ATOM     20  C   UNL     1       1.993  -1.386   2.035  0.00  0.00    +0.375 C 
ATOM     21  O   UNL     1       1.343  -2.406   2.193  0.00  0.00    -0.244 OA
ATOM     22  O   UNL     1       1.513  -0.305   2.332  0.00  0.00    -0.244 OA
ENDBRANCH   9  20
TORSDOF 3
