REMARK  Name = ZINC09725930
REMARK  6 active torsions:
REMARK  status: ('A' for Active; 'I' for Inactive)
REMARK    1  A    between atoms: C_2  and  C_3
REMARK    2  A    between atoms: C_3  and  N_4
REMARK    3  A    between atoms: C_8  and  S_23
REMARK    4  A    between atoms: N_13  and  C_14
REMARK    5  A    between atoms: C_14  and  C_16
REMARK    6  A    between atoms: S_23  and  N_26
REMARK                            x       y       z     vdW  Elec       q    Type
REMARK                         _______ _______ _______ _____ _____    ______ ____
ROOT
ATOM      1  N   UNL     1       3.551   1.770  -0.022  0.00  0.00    -0.310 N 
ATOM      2  C   UNL     1       4.648   0.929  -0.037  0.00  0.00    +0.059 A 
ATOM      3  C   UNL     1       6.009   1.273  -0.048  0.00  0.00    +0.029 A 
ATOM      4  C   UNL     1       6.980   0.300  -0.061  0.00  0.00    +0.030 A 
ATOM      5  C   UNL     1       6.649  -1.045  -0.064  0.00  0.00    +0.106 A 
ATOM      6  C   UNL     1       5.315  -1.413  -0.054  0.00  0.00    +0.045 A 
ATOM      7  C   UNL     1       4.343  -0.440  -0.041  0.00  0.00    +0.041 A 
ATOM      8  S   UNL     1       2.568  -0.462  -0.017  0.00  0.00    -0.052 S 
ATOM      9  C   UNL     1       2.294   1.250  -0.013  0.00  0.00    +0.168 A 
ATOM     10  N   UNL     1       1.134   1.899   0.001  0.00  0.00    -0.152 NA
ENDROOT
BRANCH   5  11
ATOM     11  S   UNL     1       7.911  -2.274  -0.082  0.00  0.00    +0.056 S 
ATOM     12  O   UNL     1       7.329  -3.447  -0.633  0.00  0.00    -0.153 OA
ATOM     13  O   UNL     1       9.066  -1.662  -0.640  0.00  0.00    -0.153 OA
BRANCH  11  14
ATOM     14  N   UNL     1       8.277  -2.623   1.495  0.00  0.00    -0.204 NA
ATOM     15  H   UNL     1       8.587  -3.510   1.736  0.00  0.00    +0.144 HD
ATOM     16  H   UNL     1       8.180  -1.941   2.178  0.00  0.00    +0.144 HD
ENDBRANCH  11  14
ENDBRANCH   5  11
BRANCH  10  17
ATOM     17  C   UNL     1      -0.015   1.215   0.009  0.00  0.00    +0.269 C 
ATOM     18  O   UNL     1       0.002  -0.004   0.002  0.00  0.00    -0.268 OA
BRANCH  17  19
ATOM     19  C   UNL     1      -1.307   1.938   0.019  0.00  0.00    +0.039 A 
ATOM     20  C   UNL     1      -1.329   3.332   0.032  0.00  0.00    +0.014 A 
ATOM     21  C   UNL     1      -2.535   4.000   0.037  0.00  0.00    +0.016 A 
ATOM     22  C   UNL     1      -3.724   3.289   0.038  0.00  0.00    +0.018 A 
ATOM     23  C   UNL     1      -3.708   1.905   0.030  0.00  0.00    +0.016 A 
ATOM     24  C   UNL     1      -2.507   1.226   0.021  0.00  0.00    +0.014 A 
ATOM     25 BR   UNL     1      -5.374   4.213   0.053  0.00  0.00    -0.050 Br
ENDBRANCH  17  19
ENDBRANCH  10  17
BRANCH   1  26
ATOM     26  C   UNL     1       3.742   3.222  -0.017  0.00  0.00    +0.212 C 
BRANCH  26  28
ATOM     27  C   UNL     1       3.882   4.085   2.480  0.00  0.00    +0.005 C 
ATOM     28  C   UNL     1       3.820   3.702   1.372  0.00  0.00    -0.084 C 
ENDBRANCH  26  28
ENDBRANCH   1  26
TORSDOF 6
