REMARK  Name = ZINC21246130
REMARK  8 active torsions:
REMARK  status: ('A' for Active; 'I' for Inactive)
REMARK    1  A    between atoms: C_1  and  C_2
REMARK    2  A    between atoms: C_11  and  N_30
REMARK    3  A    between atoms: C_13  and  S_15
REMARK    4  A    between atoms: S_15  and  C_16
REMARK    5  A    between atoms: C_16  and  C_18
REMARK    6  A    between atoms: C_16  and  C_19
REMARK    7  A    between atoms: N_21  and  C_22
REMARK    8  A    between atoms: C_27  and  C_28
REMARK                            x       y       z     vdW  Elec       q    Type
REMARK                         _______ _______ _______ _____ _____    ______ ____
ROOT
ATOM      1  C   UNL     1      -3.608  -4.728  -0.519  0.00  0.00    +0.008 C 
ATOM      2  C   UNL     1      -3.238  -3.253  -0.689  0.00  0.00    -0.009 C 
ATOM      3  C   UNL     1      -2.041  -2.914   0.204  0.00  0.00    +0.008 C 
ATOM      4  C   UNL     1      -1.513  -1.521  -0.142  0.00  0.00    +0.037 C 
ATOM      5  C   UNL     1      -2.672  -0.529  -0.096  0.00  0.00    -0.025 A 
ATOM      6  C   UNL     1      -3.949  -0.958  -0.157  0.00  0.00    -0.004 A 
ATOM      7  S   UNL     1      -4.936   0.512  -0.072  0.00  0.00    -0.073 S 
ATOM      8  C   UNL     1      -3.629   1.706   0.046  0.00  0.00    +0.115 A 
ATOM      9  C   UNL     1      -2.462   0.916   0.015  0.00  0.00    +0.051 A 
ATOM     10  C   UNL     1      -1.235   1.633   0.097  0.00  0.00    +0.129 A 
ATOM     11  N   UNL     1      -1.261   2.951   0.199  0.00  0.00    -0.207 NA
ATOM     12  C   UNL     1      -2.399   3.635   0.215  0.00  0.00    +0.192 A 
ATOM     13  N   UNL     1      -3.572   3.020   0.143  0.00  0.00    -0.214 NA
ATOM     14  C   UNL     1      -4.426  -2.373  -0.274  0.00  0.00    +0.046 C 
ENDROOT
BRANCH  10  15
ATOM     15  N   UNL     1      -0.028   0.957   0.076  0.00  0.00    -0.343 N 
ATOM     16  H   UNL     1       0.917   1.516   0.140  0.00  0.00    +0.144 HD
ATOM     17  H   UNL     1      -0.013  -0.140  -0.004  0.00  0.00    +0.144 HD
ENDBRANCH  10  15
BRANCH  12  18
ATOM     18  S   UNL     1      -2.350   5.391   0.344  0.00  0.00    -0.073 S 
BRANCH  18  19
ATOM     19  C   UNL     1      -0.560   5.652   0.405  0.00  0.00    +0.137 C 
ATOM     20  C   UNL     1       0.064   5.219  -0.923  0.00  0.00    +0.029 C 
BRANCH  19  21
ATOM     21  C   UNL     1      -0.273   7.113   0.642  0.00  0.00    +0.230 C 
ATOM     22  O   UNL     1      -1.123   7.944   0.402  0.00  0.00    -0.274 OA
ATOM     23  N   UNL     1       0.927   7.495   1.120  0.00  0.00    -0.284 N 
ATOM     24  H   UNL     1       1.729   6.753   1.248  0.00  0.00    +0.155 HD
BRANCH  23  25
ATOM     25  C   UNL     1       1.153   8.830   1.452  0.00  0.00    +0.051 A 
ATOM     26  C   UNL     1       0.123   9.602   1.972  0.00  0.00    +0.024 A 
ATOM     27  C   UNL     1       0.350  10.923   2.305  0.00  0.00    +0.002 A 
ATOM     28  C   UNL     1       1.600  11.490   2.115  0.00  0.00    +0.001 A 
ATOM     29  C   UNL     1       2.632  10.739   1.595  0.00  0.00    +0.021 A 
ATOM     30  C   UNL     1       2.420   9.400   1.258  0.00  0.00    +0.073 A 
BRANCH  30  31
ATOM     31  C   UNL     1       3.488   8.615   0.717  0.00  0.00    +0.101 C 
ATOM     32  N   UNL     1       4.335   7.992   0.287  0.00  0.00    -0.191 NA
ENDBRANCH  30  31
ENDBRANCH  23  25
ENDBRANCH  19  21
ENDBRANCH  18  19
ENDBRANCH  12  18
TORSDOF 6
