REMARK  Name = ZINC62900207
REMARK  7 active torsions:
REMARK  status: ('A' for Active; 'I' for Inactive)
REMARK    1  A    between atoms: C_1  and  C_2
REMARK    2  A    between atoms: C_5  and  C_29
REMARK    3  A    between atoms: C_6  and  N_8
REMARK    4  A    between atoms: C_13  and  C_15
REMARK    5  A    between atoms: N_17  and  C_18
REMARK    6  A    between atoms: C_18  and  C_19
REMARK    7  A    between atoms: C_21  and  C_24
REMARK                            x       y       z     vdW  Elec       q    Type
REMARK                         _______ _______ _______ _____ _____    ______ ____
ROOT
ATOM      1  N   UNL     1       0.051  -2.798   2.393  0.00  0.00    -0.160 N 
ATOM      2  C   UNL     1       1.007  -2.542   3.308  0.00  0.00    +0.240 C 
ATOM      3  O   UNL     1       1.854  -1.704   3.085  0.00  0.00    -0.273 OA
ATOM      4  C   UNL     1       1.018  -3.301   4.611  0.00  0.00    +0.104 C 
ATOM      5  C   UNL     1      -0.422  -3.612   5.025  0.00  0.00    +0.071 C 
ATOM      6  C   UNL     1      -1.176  -4.173   3.849  0.00  0.00    +0.122 C 
ATOM      7  N   UNL     1      -0.929  -3.763   2.645  0.00  0.00    -0.172 NA
ENDROOT
BRANCH   1  13
ATOM      8  C   UNL     1      -0.018   1.503   0.010  0.00  0.00    +0.044 C 
ATOM      9  C   UNL     1       0.002  -0.004   0.002  0.00  0.00    -0.049 A 
ATOM     10  C   UNL     1       0.006  -0.688  -1.200  0.00  0.00    +0.004 A 
ATOM     11  C   UNL     1       0.025  -2.071  -1.212  0.00  0.00    +0.005 A 
ATOM     12  C   UNL     1       0.040  -2.773  -0.023  0.00  0.00    -0.027 A 
ATOM     13  C   UNL     1       0.036  -2.089   1.186  0.00  0.00    +0.063 A 
ATOM     14  C   UNL     1       0.023  -0.700   1.194  0.00  0.00    +0.029 A 
ATOM     15  C   UNL     1       0.059  -4.280  -0.036  0.00  0.00    +0.046 C 
ENDBRANCH   1  13
BRANCH   6  16
ATOM     16  C   UNL     1      -2.207  -5.192   4.071  0.00  0.00    +0.260 C 
ATOM     17  O   UNL     1      -2.448  -5.579   5.199  0.00  0.00    -0.269 OA
ATOM     18  N   UNL     1      -2.888  -5.701   3.024  0.00  0.00    -0.303 N 
ATOM     19  H   UNL     1      -2.696  -5.392   2.125  0.00  0.00    +0.149 HD
BRANCH  18  20
ATOM     20  C   UNL     1      -3.918  -6.719   3.245  0.00  0.00    +0.184 C 
BRANCH  20  21
ATOM     21  C   UNL     1      -4.523  -7.117   1.924  0.00  0.00    +0.189 A 
ATOM     22  N   UNL     1      -5.579  -6.536   1.352  0.00  0.00    -0.188 NA
ATOM     23  C   UNL     1      -5.848  -7.125   0.203  0.00  0.00    +0.294 A 
ATOM     24  O   UNL     1      -4.949  -8.110   0.022  0.00  0.00    -0.330 OA
ATOM     25  N   UNL     1      -4.095  -8.079   1.156  0.00  0.00    -0.059 NA
BRANCH  23  26
ATOM     26  C   UNL     1      -6.937  -6.769  -0.715  0.00  0.00    +0.192 A 
ATOM     27  C   UNL     1      -7.218  -7.383  -1.901  0.00  0.00    +0.055 A 
ATOM     28  C   UNL     1      -8.334  -6.723  -2.444  0.00  0.00    +0.042 A 
ATOM     29  C   UNL     1      -8.679  -5.749  -1.576  0.00  0.00    +0.196 A 
ATOM     30  O   UNL     1      -7.838  -5.783  -0.532  0.00  0.00    -0.458 OA
ENDBRANCH  23  26
ENDBRANCH  20  21
ENDBRANCH  18  20
ENDBRANCH   6  16
TORSDOF 5
