REMARK  Name = ZINC09815506
REMARK  8 active torsions:
REMARK  status: ('A' for Active; 'I' for Inactive)
REMARK    1  A    between atoms: C_1  and  C_2
REMARK    2  A    between atoms: C_2  and  C_3
REMARK    3  A    between atoms: C_2  and  S_4
REMARK    4  A    between atoms: S_4  and  C_5
REMARK    5  A    between atoms: C_8  and  C_11
REMARK    6  A    between atoms: C_17  and  C_19
REMARK    7  A    between atoms: C_22  and  S_25
REMARK    8  A    between atoms: S_25  and  N_28
REMARK                            x       y       z     vdW  Elec       q    Type
REMARK                         _______ _______ _______ _____ _____    ______ ____
ROOT
ATOM      1  C   UNL     1      -3.958   5.716   0.021  0.00  0.00    +0.250 A 
ATOM      2  N   UNL     1      -4.522   4.550  -0.190  0.00  0.00    -0.106 NA
ATOM      3  N   UNL     1      -3.628   3.627  -0.135  0.00  0.00    -0.092 NA
ATOM      4  C   UNL     1      -2.459   4.166   0.115  0.00  0.00    +0.315 A 
ATOM      5  O   UNL     1      -2.642   5.495   0.225  0.00  0.00    -0.405 OA
ATOM      6  N   UNL     1      -1.257   3.490   0.247  0.00  0.00    -0.234 N 
ATOM      7  C   UNL     1      -1.220   2.149   0.117  0.00  0.00    +0.252 C 
ATOM      8  O   UNL     1      -2.241   1.532  -0.116  0.00  0.00    -0.270 OA
ATOM      9  H   UNL     1      -0.442   3.982   0.433  0.00  0.00    +0.160 HD
ENDROOT
BRANCH   1  13
ATOM     10  C   UNL     1      -5.917   9.486   0.076  0.00  0.00    +0.008 A 
ATOM     11  C   UNL     1      -6.649   8.326  -0.163  0.00  0.00    +0.015 A 
ATOM     12  C   UNL     1      -6.016   7.103  -0.181  0.00  0.00    +0.014 A 
ATOM     13  C   UNL     1      -4.639   7.026   0.040  0.00  0.00    +0.039 A 
ATOM     14  C   UNL     1      -3.908   8.191   0.285  0.00  0.00    +0.014 A 
ATOM     15  C   UNL     1      -4.545   9.412   0.298  0.00  0.00    +0.015 A 
BRANCH  10  16
ATOM     16  S   UNL     1      -6.729  11.049   0.100  0.00  0.00    -0.122 S 
BRANCH  16  18
ATOM     17  C   UNL     1      -4.569  12.266  -1.056  0.00  0.00    +0.019 C 
ATOM     18  C   UNL     1      -5.374  12.245   0.245  0.00  0.00    +0.045 C 
ATOM     19  C   UNL     1      -5.949  13.638   0.511  0.00  0.00    +0.019 C 
ENDBRANCH  16  18
ENDBRANCH  10  16
ENDBRANCH   1  13
BRANCH   7  20
ATOM     20  C   UNL     1       0.062   1.428   0.258  0.00  0.00    +0.037 A 
ATOM     21  C   UNL     1       1.238   2.134   0.520  0.00  0.00    +0.015 A 
ATOM     22  C   UNL     1       2.433   1.455   0.644  0.00  0.00    +0.029 A 
ATOM     23  C   UNL     1       2.467   0.078   0.511  0.00  0.00    +0.106 A 
ATOM     24  C   UNL     1       1.306  -0.627   0.251  0.00  0.00    +0.029 A 
ATOM     25  C   UNL     1       0.104   0.039   0.124  0.00  0.00    +0.015 A 
BRANCH  23  26
ATOM     26  S   UNL     1       3.997  -0.781   0.672  0.00  0.00    +0.061 S 
ATOM     27  O   UNL     1       4.847   0.047   1.455  0.00  0.00    -0.153 OA
ATOM     28  O   UNL     1       3.677  -2.114   1.046  0.00  0.00    -0.153 OA
BRANCH  26  29
ATOM     29  N   UNL     1       4.675  -0.862  -0.837  0.00  0.00    -0.177 NA
ATOM     30  C   UNL     1       4.392  -1.998  -1.724  0.00  0.00    +0.109 C 
ATOM     31  C   UNL     1       3.887  -1.454  -3.069  0.00  0.00    +0.017 C 
ATOM     32  C   UNL     1       4.908  -0.461  -3.627  0.00  0.00    +0.003 C 
ATOM     33  C   UNL     1       5.060   0.715  -2.659  0.00  0.00    +0.017 C 
ATOM     34  C   UNL     1       5.574   0.198  -1.311  0.00  0.00    +0.109 C 
ENDBRANCH  26  29
ENDBRANCH  23  26
ENDBRANCH   7  20
TORSDOF 6
