REMARK  Name = ZINC09124116
REMARK  11 active torsions:
REMARK  status: ('A' for Active; 'I' for Inactive)
REMARK    1  A    between atoms: C_1  and  C_2
REMARK    2  A    between atoms: C_2  and  O_3
REMARK    3  A    between atoms: O_3  and  C_4
REMARK    4  A    between atoms: C_6  and  C_11
REMARK    5  A    between atoms: C_9  and  O_10
REMARK    6  A    between atoms: C_14  and  C_28
REMARK    7  A    between atoms: N_21  and  C_22
REMARK    8  A    between atoms: C_22  and  C_23
REMARK    9  A    between atoms: C_30  and  C_36
REMARK   10  A    between atoms: C_32  and  C_35
REMARK   11  A    between atoms: C_33  and  O_34
REMARK                            x       y       z     vdW  Elec       q    Type
REMARK                         _______ _______ _______ _____ _____    ______ ____
ROOT
ATOM      1  C   UNL     1      -0.384  -4.892   0.350  0.00  0.00    +0.142 C 
ATOM      2  C   UNL     1      -1.583  -5.628  -0.181  0.00  0.00    +0.035 A 
ATOM      3  C   UNL     1      -2.878  -5.551  -0.706  0.00  0.00    +0.102 A 
ATOM      4  N   UNL     1      -3.283  -6.784  -0.941  0.00  0.00    -0.173 NA
ATOM      5  N   UNL     1      -2.372  -7.631  -0.617  0.00  0.00    -0.272 N 
ATOM      6  H   UNL     1      -2.451  -8.594  -0.704  0.00  0.00    +0.189 HD
ATOM      7  C   UNL     1      -1.277  -6.975  -0.132  0.00  0.00    +0.126 A 
ATOM      8  C   UNL     1       0.077  -7.125   0.413  0.00  0.00    +0.266 C 
ATOM      9  O   UNL     1       0.642  -8.189   0.585  0.00  0.00    -0.268 OA
ATOM     10  N   UNL     1       0.605  -5.920   0.698  0.00  0.00    -0.278 N 
ENDROOT
BRANCH   3  11
ATOM     11  C   UNL     1      -3.653  -4.310  -0.953  0.00  0.00    +0.044 A 
ATOM     12  C   UNL     1      -3.150  -3.078  -0.543  0.00  0.00    +0.017 A 
ATOM     13  C   UNL     1      -3.874  -1.926  -0.775  0.00  0.00    -0.049 A 
ATOM     14  C   UNL     1      -5.100  -1.991  -1.413  0.00  0.00    +0.010 A 
ATOM     15  C   UNL     1      -5.609  -3.208  -1.823  0.00  0.00    -0.008 A 
ATOM     16  C   UNL     1      -4.889  -4.372  -1.603  0.00  0.00    +0.129 A 
ATOM     17  C   UNL     1      -6.945  -3.271  -2.517  0.00  0.00    +0.047 C 
ATOM     18  C   UNL     1      -3.329  -0.593  -0.330  0.00  0.00    +0.044 C 
BRANCH  16  19
ATOM     19  O   UNL     1      -5.385  -5.568  -2.011  0.00  0.00    -0.506 OA
ATOM     20  H   UNL     1      -5.933  -6.013  -1.350  0.00  0.00    +0.292 HD
ENDBRANCH  16  19
ENDBRANCH   3  11
BRANCH   1  23
ATOM     21  C   UNL     1       1.300  -3.660  -2.799  0.00  0.00    +0.162 A 
ATOM     22  C   UNL     1       0.789  -4.503  -1.825  0.00  0.00    +0.055 A 
ATOM     23  C   UNL     1       0.171  -3.974  -0.708  0.00  0.00    -0.019 A 
ATOM     24  C   UNL     1       0.062  -2.603  -0.558  0.00  0.00    +0.009 A 
ATOM     25  C   UNL     1       0.570  -1.757  -1.526  0.00  0.00    +0.049 A 
ATOM     26  C   UNL     1       1.196  -2.281  -2.646  0.00  0.00    +0.158 A 
BRANCH  26  27
ATOM     27  O   UNL     1       1.701  -1.450  -3.596  0.00  0.00    -0.503 OA
ATOM     28  H   UNL     1       1.072  -1.221  -4.294  0.00  0.00    +0.292 HD
ENDBRANCH  26  27
BRANCH  21  29
ATOM     29  O   UNL     1       1.908  -4.180  -3.899  0.00  0.00    -0.489 OA
BRANCH  29  31
ATOM     30  C   UNL     1       2.563  -5.994  -5.356  0.00  0.00    +0.048 C 
ATOM     31  C   UNL     1       1.903  -5.603  -4.032  0.00  0.00    +0.226 C 
ENDBRANCH  29  31
ENDBRANCH  21  29
ENDBRANCH   1  23
BRANCH  10  32
ATOM     32  C   UNL     1       1.937  -5.675   1.257  0.00  0.00    +0.183 C 
BRANCH  32  33
ATOM     33  C   UNL     1       1.856  -5.665   2.762  0.00  0.00    +0.122 A 
ATOM     34  C   UNL     1       2.009  -6.732   3.565  0.00  0.00    +0.046 A 
ATOM     35  C   UNL     1       1.855  -6.271   4.893  0.00  0.00    +0.041 A 
ATOM     36  C   UNL     1       1.617  -4.949   4.821  0.00  0.00    +0.195 A 
ATOM     37  O   UNL     1       1.625  -4.586   3.528  0.00  0.00    -0.466 OA
ENDBRANCH  32  33
ENDBRANCH  10  32
TORSDOF 8
