REMARK  Name = ZINC01334239
REMARK  9 active torsions:
REMARK  status: ('A' for Active; 'I' for Inactive)
REMARK    1  A    between atoms: C_1  and  C_2
REMARK    2  A    between atoms: C_5  and  C_8
REMARK    3  A    between atoms: C_8  and  N_9
REMARK    4  A    between atoms: C_14  and  C_16
REMARK    5  A    between atoms: C_23  and  C_25
REMARK    6  A    between atoms: C_28  and  C_31
REMARK    7  A    between atoms: C_31  and  C_32
REMARK    8  A    between atoms: C_31  and  C_33
REMARK    9  A    between atoms: C_31  and  C_34
REMARK                            x       y       z     vdW  Elec       q    Type
REMARK                         _______ _______ _______ _____ _____    ______ ____
ROOT
ATOM      1  N   UNL     1       2.968  -3.218  -0.660  0.00  0.00    -0.222 N 
ATOM      2  C   UNL     1       3.506  -3.730  -1.802  0.00  0.00    +0.186 A 
ATOM      3  C   UNL     1       4.807  -4.128  -1.473  0.00  0.00    +0.195 A 
ATOM      4  C   UNL     1       5.628  -4.723  -2.531  0.00  0.00    +0.281 A 
ATOM      5  N   UNL     1       5.073  -4.849  -3.759  0.00  0.00    -0.309 N 
ATOM      6  C   UNL     1       3.802  -4.433  -3.982  0.00  0.00    +0.117 A 
ATOM      7  N   UNL     1       3.059  -3.903  -3.054  0.00  0.00    -0.213 NA
ATOM      8  O   UNL     1       6.769  -5.091  -2.313  0.00  0.00    -0.265 OA
ATOM      9  N   UNL     1       5.012  -3.853  -0.177  0.00  0.00    -0.122 NA
ATOM     10  N   UNL     1       3.958  -3.314   0.330  0.00  0.00    -0.063 NA
ATOM     11  H   UNL     1       5.588  -5.238  -4.483  0.00  0.00    +0.170 HD
ENDROOT
BRANCH   6  12
ATOM     12  C   UNL     1       3.224  -4.591  -5.365  0.00  0.00    +0.072 C 
ATOM     13  C   UNL     1       2.112  -3.561  -5.575  0.00  0.00    +0.014 C 
ATOM     14  C   UNL     1       1.547  -3.699  -6.990  0.00  0.00    +0.020 C 
ATOM     15  C   UNL     1       0.949  -5.099  -7.163  0.00  0.00    +0.108 C 
ATOM     16  N   UNL     1       1.972  -6.096  -6.821  0.00  0.00    -0.297 N 
ATOM     17  C   UNL     1       2.646  -6.001  -5.519  0.00  0.00    +0.119 C 
ATOM     18  C   UNL     1       2.288  -7.080  -7.687  0.00  0.00    +0.247 C 
ATOM     19  O   UNL     1       1.677  -7.190  -8.732  0.00  0.00    -0.270 OA
BRANCH  18  20
ATOM     20  C   UNL     1       3.378  -8.026  -7.365  0.00  0.00    +0.037 A 
ATOM     21  C   UNL     1       3.398  -8.679  -6.132  0.00  0.00    +0.013 A 
ATOM     22  C   UNL     1       4.418  -9.561  -5.838  0.00  0.00    +0.005 A 
ATOM     23  C   UNL     1       5.419  -9.797  -6.763  0.00  0.00    -0.042 A 
ATOM     24  C   UNL     1       5.406  -9.153  -7.987  0.00  0.00    +0.005 A 
ATOM     25  C   UNL     1       4.388  -8.274  -8.296  0.00  0.00    +0.013 A 
BRANCH  23  26
ATOM     26  C   UNL     1       6.530 -10.761  -6.435  0.00  0.00    -0.013 C 
ATOM     27  C   UNL     1       5.940 -12.147  -6.164  0.00  0.00    +0.015 C 
ATOM     28  C   UNL     1       7.500 -10.843  -7.616  0.00  0.00    +0.015 C 
ATOM     29  C   UNL     1       7.279 -10.274  -5.193  0.00  0.00    +0.015 C 
ENDBRANCH  23  26
ENDBRANCH  18  20
ENDBRANCH   6  12
BRANCH   1  30
ATOM     30  C   UNL     1       1.619  -2.668  -0.498  0.00  0.00    +0.182 C 
BRANCH  30  35
ATOM     31  C   UNL     1       1.692   2.993  -1.653  0.00  0.00    +0.044 C 
ATOM     32  C   UNL     1       1.673   1.517  -1.352  0.00  0.00    -0.050 A 
ATOM     33  C   UNL     1       1.433   0.608  -2.365  0.00  0.00    +0.004 A 
ATOM     34  C   UNL     1       1.415  -0.747  -2.089  0.00  0.00    +0.006 A 
ATOM     35  C   UNL     1       1.639  -1.192  -0.799  0.00  0.00    -0.026 A 
ATOM     36  C   UNL     1       1.880  -0.283   0.214  0.00  0.00    +0.006 A 
ATOM     37  C   UNL     1       1.902   1.071  -0.064  0.00  0.00    +0.004 A 
ENDBRANCH  30  35
ENDBRANCH   1  30
TORSDOF 5
