REMARK  Name = ZINC39836270
REMARK  10 active torsions:
REMARK  status: ('A' for Active; 'I' for Inactive)
REMARK    1  A    between atoms: C_1  and  C_2
REMARK    2  A    between atoms: C_2  and  C_3
REMARK    3  A    between atoms: C_3  and  C_4
REMARK    4  A    between atoms: C_4  and  O_5
REMARK    5  A    between atoms: O_5  and  C_6
REMARK    6  A    between atoms: C_9  and  C_12
REMARK    7  A    between atoms: N_14  and  C_15
REMARK    8  A    between atoms: C_16  and  C_26
REMARK    9  A    between atoms: C_21  and  C_25
REMARK   10  A    between atoms: N_28  and  C_29
REMARK                            x       y       z     vdW  Elec       q    Type
REMARK                         _______ _______ _______ _____ _____    ______ ____
ROOT
ATOM      1  C   UNL     1      -4.813 -10.030  -0.012  0.00  0.00    +0.085 A 
ATOM      2  C   UNL     1      -5.999 -10.748  -0.016  0.00  0.00    +0.069 A 
ATOM      3  C   UNL     1      -5.898 -12.197  -0.022  0.00  0.00    -0.023 A 
ATOM      4  C   UNL     1      -4.630 -12.663  -0.025  0.00  0.00    -0.004 A 
ATOM      5  S   UNL     1      -3.619 -11.211  -0.025  0.00  0.00    -0.077 S 
ATOM      6  C   UNL     1      -4.199 -14.097  -0.033  0.00  0.00    +0.046 C 
ATOM      7  C   UNL     1      -5.407 -14.962  -0.419  0.00  0.00    -0.009 C 
ATOM      8  C   UNL     1      -6.614 -14.530   0.419  0.00  0.00    +0.008 C 
ATOM      9  C   UNL     1      -7.088 -13.145  -0.026  0.00  0.00    +0.037 C 
ATOM     10  C   UNL     1      -5.091 -16.434  -0.147  0.00  0.00    +0.008 C 
ENDROOT
BRANCH   1  13
ATOM     11  C   UNL     1      -3.412  -8.123  -0.009  0.00  0.00    +0.249 C 
ATOM     12  O   UNL     1      -2.438  -8.850  -0.018  0.00  0.00    -0.270 OA
ATOM     13  N   UNL     1      -4.650  -8.655  -0.006  0.00  0.00    -0.275 N 
ATOM     14  H   UNL     1      -5.427  -8.074   0.001  0.00  0.00    +0.156 HD
BRANCH  11  18
ATOM     15  C   UNL     1      -2.913  -3.906   0.009  0.00  0.00    +0.121 A 
ATOM     16  C   UNL     1      -1.798  -4.736  -0.001  0.00  0.00    +0.046 A 
ATOM     17  C   UNL     1      -1.955  -6.104  -0.006  0.00  0.00    +0.016 A 
ATOM     18  C   UNL     1      -3.239  -6.657  -0.003  0.00  0.00    +0.037 A 
ATOM     19  C   UNL     1      -4.357  -5.819   0.007  0.00  0.00    +0.016 A 
ATOM     20  C   UNL     1      -4.191  -4.452   0.018  0.00  0.00    +0.046 A 
BRANCH  15  21
ATOM     21  O   UNL     1      -2.753  -2.558   0.015  0.00  0.00    -0.492 OA
BRANCH  21  22
ATOM     22  C   UNL     1      -1.413  -2.063   0.004  0.00  0.00    +0.229 C 
BRANCH  22  23
ATOM     23  C   UNL     1      -1.433  -0.534   0.013  0.00  0.00    +0.041 C 
BRANCH  23  25
ATOM     24  C   UNL     1      -0.019   1.526   0.010  0.00  0.00    +0.004 C 
ATOM     25  C   UNL     1       0.002  -0.004   0.002  0.00  0.00    -0.000 C 
ENDBRANCH  23  25
ENDBRANCH  22  23
ENDBRANCH  21  22
ENDBRANCH  15  21
ENDBRANCH  11  18
ENDBRANCH   1  13
BRANCH   2  26
ATOM     26  C   UNL     1      -7.301 -10.073  -0.012  0.00  0.00    +0.247 C 
ATOM     27  O   UNL     1      -7.841  -9.788  -1.065  0.00  0.00    -0.270 OA
ATOM     28  N   UNL     1      -7.898  -9.768   1.157  0.00  0.00    -0.307 N 
ATOM     29  H   UNL     1      -7.468  -9.996   1.995  0.00  0.00    +0.149 HD
BRANCH  28  30
ATOM     30  C   UNL     1      -9.199  -9.094   1.160  0.00  0.00    +0.096 C 
ATOM     31  C   UNL     1     -10.318 -10.142   1.042  0.00  0.00    +0.046 C 
ATOM     32  C   UNL     1     -11.671  -9.444   1.361  0.00  0.00    +0.168 C 
ATOM     33  S   UNL     1     -11.173  -8.376   2.777  0.00  0.00    -0.029 S 
ATOM     34  O   UNL     1     -11.409  -9.077   3.991  0.00  0.00    -0.174 OA
ATOM     35  O   UNL     1     -11.730  -7.081   2.598  0.00  0.00    -0.174 OA
ATOM     36  C   UNL     1      -9.361  -8.297   2.477  0.00  0.00    +0.188 C 
ENDBRANCH  28  30
ENDBRANCH   2  26
TORSDOF 8
