REMARK  Name = ZINC54624416
REMARK  11 active torsions:
REMARK  status: ('A' for Active; 'I' for Inactive)
REMARK    1  A    between atoms: C_1  and  C_2
REMARK    2  A    between atoms: C_2  and  C_3
REMARK    3  A    between atoms: C_3  and  C_4
REMARK    4  A    between atoms: C_4  and  O_5
REMARK    5  A    between atoms: O_5  and  C_6
REMARK    6  A    between atoms: C_10  and  C_12
REMARK    7  A    between atoms: C_17  and  C_21
REMARK    8  A    between atoms: C_17  and  C_22
REMARK    9  A    between atoms: C_27  and  S_29
REMARK   10  A    between atoms: S_29  and  C_30
REMARK   11  A    between atoms: C_30  and  C_31
REMARK                            x       y       z     vdW  Elec       q    Type
REMARK                         _______ _______ _______ _____ _____    ______ ____
ROOT
ATOM      1  C   UNL     1       2.959  -6.280  -5.094  0.00  0.00    +0.176 C 
ATOM      2  C   UNL     1       1.990  -7.135  -5.880  0.00  0.00    +0.041 C 
ATOM      3  C   UNL     1       2.064  -8.483  -5.888  0.00  0.00    +0.020 C 
ATOM      4  C   UNL     1       1.082  -9.310  -6.683  0.00  0.00    +0.058 C 
ATOM      5  C   UNL     1      -0.263  -8.585  -6.756  0.00  0.00    -0.023 C 
ATOM      6  C   UNL     1      -0.037  -7.215  -7.406  0.00  0.00    +0.086 C 
ATOM      7  C   UNL     1       0.993  -6.463  -6.612  0.00  0.00    +0.164 C 
ATOM      8  O   UNL     1       0.966  -5.248  -6.602  0.00  0.00    -0.292 OA
ATOM      9  C   UNL     1      -1.244  -9.401  -7.600  0.00  0.00    +0.011 C 
ATOM     10  C   UNL     1      -0.826  -8.399  -5.346  0.00  0.00    +0.011 C 
ATOM     11  N   UNL     1       3.032  -9.158  -5.183  0.00  0.00    -0.287 N 
ATOM     12  C   UNL     1       4.116  -8.437  -4.711  0.00  0.00    +0.219 A 
ATOM     13  N   UNL     1       4.097  -7.084  -4.667  0.00  0.00    -0.220 N 
ATOM     14  N   UNL     1       5.332  -6.688  -4.154  0.00  0.00    -0.141 NA
ATOM     15  C   UNL     1       6.012  -7.788  -3.914  0.00  0.00    +0.211 A 
ATOM     16  N   UNL     1       5.268  -8.844  -4.253  0.00  0.00    -0.187 NA
ATOM     17  H   UNL     1       2.958 -10.112  -5.021  0.00  0.00    +0.155 HD
ENDROOT
BRANCH   1  22
ATOM     18  C   UNL     1       1.514  -3.833  -2.603  0.00  0.00    +0.121 A 
ATOM     19  C   UNL     1       0.980  -4.692  -1.653  0.00  0.00    +0.045 A 
ATOM     20  C   UNL     1       1.088  -6.059  -1.821  0.00  0.00    +0.004 A 
ATOM     21  C   UNL     1       1.728  -6.571  -2.934  0.00  0.00    +0.006 A 
ATOM     22  C   UNL     1       2.262  -5.718  -3.882  0.00  0.00    -0.015 A 
ATOM     23  C   UNL     1       2.151  -4.350  -3.722  0.00  0.00    +0.051 A 
BRANCH  18  24
ATOM     24  O   UNL     1       1.408  -2.488  -2.441  0.00  0.00    -0.492 OA
BRANCH  24  25
ATOM     25  C   UNL     1       0.739  -2.027  -1.265  0.00  0.00    +0.229 C 
BRANCH  25  26
ATOM     26  C   UNL     1       0.718  -0.497  -1.257  0.00  0.00    +0.041 C 
BRANCH  26  28
ATOM     27  C   UNL     1      -0.019   1.526   0.010  0.00  0.00    +0.004 C 
ATOM     28  C   UNL     1       0.002  -0.004   0.002  0.00  0.00    -0.000 C 
ENDBRANCH  26  28
ENDBRANCH  25  26
ENDBRANCH  24  25
ENDBRANCH  18  24
ENDBRANCH   1  22
BRANCH  15  29
ATOM     29  S   UNL     1       7.644  -7.859  -3.253  0.00  0.00    -0.080 S 
BRANCH  29  30
ATOM     30  C   UNL     1       8.006  -9.634  -3.164  0.00  0.00    +0.114 C 
BRANCH  30  31
ATOM     31  C   UNL     1       9.391  -9.837  -2.607  0.00  0.00    -0.019 A 
ATOM     32  C   UNL     1      10.479  -9.887  -3.460  0.00  0.00    +0.006 A 
ATOM     33  C   UNL     1      11.749 -10.074  -2.949  0.00  0.00    +0.000 A 
ATOM     34  C   UNL     1      11.934 -10.210  -1.585  0.00  0.00    +0.001 A 
ATOM     35  C   UNL     1      10.848 -10.159  -0.732  0.00  0.00    +0.020 A 
ATOM     36  C   UNL     1       9.576  -9.967  -1.243  0.00  0.00    +0.045 A 
ATOM     37 CL   UNL     1       8.212  -9.897  -0.171  0.00  0.00    -0.083 Cl
ENDBRANCH  30  31
ENDBRANCH  29  30
ENDBRANCH  15  29
TORSDOF 8
