REMARK  Name = ZINC35682856
REMARK  3 active torsions:
REMARK  status: ('A' for Active; 'I' for Inactive)
REMARK    1  A    between atoms: C_7  and  S_11
REMARK    2  A    between atoms: S_11  and  C_12
REMARK    3  A    between atoms: C_12  and  N_13
REMARK                            x       y       z     vdW  Elec       q    Type
REMARK                         _______ _______ _______ _____ _____    ______ ____
ROOT
ATOM      1  C   UNL     1      -0.070   1.976   1.113  0.00  0.00    +0.002 C 
ATOM      2  C   UNL     1       1.375   2.450   0.992  0.00  0.00    +0.008 C 
ATOM      3  C   UNL     1       2.108   1.606  -0.055  0.00  0.00    +0.076 C 
ATOM      4  C   UNL     1       2.692   0.390   0.616  0.00  0.00    +0.134 A 
ATOM      5  N   UNL     1       3.897  -0.081   0.485  0.00  0.00    -0.134 NA
ATOM      6  N   UNL     1       4.034  -1.144   1.198  0.00  0.00    -0.123 NA
ATOM      7  C   UNL     1       2.911  -1.405   1.831  0.00  0.00    +0.190 A 
ATOM      8  N   UNL     1       2.028  -0.428   1.486  0.00  0.00    -0.306 N 
ATOM      9  C   UNL     1       0.652  -0.267   1.955  0.00  0.00    +0.125 C 
ATOM     10  C   UNL     1      -0.164   0.468   0.887  0.00  0.00    +0.022 C 
ENDROOT
BRANCH   7  11
ATOM     11  S   UNL     1       2.608  -2.759   2.916  0.00  0.00    -0.105 S 
BRANCH  11  12
ATOM     12  C   UNL     1       4.222  -3.576   3.059  0.00  0.00    +0.001 C 
BRANCH  12  13
ATOM     13  N   UNL     1       5.096  -2.785   3.934  0.00  0.00    +0.386 N 
ATOM     14  C   UNL     1       6.445  -3.364   3.929  0.00  0.00    -0.078 C 
ATOM     15  C   UNL     1       7.380  -2.497   4.775  0.00  0.00    -0.019 C 
ATOM     16  C   UNL     1       6.853  -2.438   6.211  0.00  0.00    -0.004 C 
ATOM     17  C   UNL     1       5.418  -1.901   6.197  0.00  0.00    -0.019 C 
ATOM     18  C   UNL     1       4.556  -2.791   5.298  0.00  0.00    -0.078 C 
ATOM     19  H   UNL     1       5.139  -1.835   3.595  0.00  0.00    -0.081 HD
ENDBRANCH  12  13
ENDBRANCH  11  12
ENDBRANCH   7  11
TORSDOF 3
