REMARK  Name = ZINC12997092
REMARK  6 active torsions:
REMARK  status: ('A' for Active; 'I' for Inactive)
REMARK    1  A    between atoms: C_1  and  C_2
REMARK    2  A    between atoms: C_6  and  N_9
REMARK    3  A    between atoms: C_7  and  C_8
REMARK    4  A    between atoms: C_10  and  S_14
REMARK    5  A    between atoms: S_14  and  C_15
REMARK    6  A    between atoms: C_15  and  C_16
REMARK                            x       y       z     vdW  Elec       q    Type
REMARK                         _______ _______ _______ _____ _____    ______ ____
ROOT
ATOM      1  N   UNL     1       2.282   3.350   0.012  0.00  0.00    -0.187 N 
ATOM      2  C   UNL     1       1.686   2.131  -0.013  0.00  0.00    +0.214 A 
ATOM      3  N   UNL     1       2.647   1.233  -0.003  0.00  0.00    -0.101 NA
ATOM      4  N   UNL     1       3.797   1.804   0.018  0.00  0.00    -0.022 NA
ATOM      5  N   UNL     1       3.663   3.085   0.032  0.00  0.00    -0.038 NA
ENDROOT
BRANCH   1  11
ATOM      6  C   UNL     1       1.849   7.860   1.928  0.00  0.00    +0.044 C 
ATOM      7  C   UNL     1       1.426   6.808   0.935  0.00  0.00    -0.046 A 
ATOM      8  C   UNL     1       0.418   7.080   0.028  0.00  0.00    +0.004 A 
ATOM      9  C   UNL     1       0.028   6.117  -0.884  0.00  0.00    +0.002 A 
ATOM     10  C   UNL     1       0.648   4.883  -0.896  0.00  0.00    +0.028 A 
ATOM     11  C   UNL     1       1.655   4.605   0.018  0.00  0.00    +0.073 A 
ATOM     12  C   UNL     1       2.046   5.574   0.933  0.00  0.00    -0.022 A 
ATOM     13  C   UNL     1       3.143   5.278   1.922  0.00  0.00    +0.046 C 
ENDBRANCH   1  11
BRANCH   2  14
ATOM     14  S   UNL     1      -0.046   1.813  -0.047  0.00  0.00    -0.081 S 
BRANCH  14  15
ATOM     15  C   UNL     1      -0.032   0.003  -0.070  0.00  0.00    +0.123 C 
BRANCH  15  16
ATOM     16  C   UNL     1      -1.471  -0.518  -0.101  0.00  0.00    +0.205 C 
ATOM     17  C   UNL     1      -1.489  -2.058  -0.044  0.00  0.00    +0.153 C 
ATOM     18  N   UNL     1      -2.134  -2.444  -1.312  0.00  0.00    -0.278 N 
ATOM     19  C   UNL     1      -2.446  -1.335  -1.996  0.00  0.00    +0.401 C 
ATOM     20  O   UNL     1      -2.991  -1.358  -3.082  0.00  0.00    -0.226 OA
ATOM     21  O   UNL     1      -2.101  -0.202  -1.376  0.00  0.00    -0.445 OA
ATOM     22  H   UNL     1      -2.307  -3.354  -1.602  0.00  0.00    +0.152 HD
ENDBRANCH  15  16
ENDBRANCH  14  15
ENDBRANCH   2  14
TORSDOF 4
