REMARK  Name = ZINC33051776
REMARK  10 active torsions:
REMARK  status: ('A' for Active; 'I' for Inactive)
REMARK    1  A    between atoms: C_1  and  C_2
REMARK    2  A    between atoms: C_2  and  C_3
REMARK    3  A    between atoms: N_6  and  C_8
REMARK    4  A    between atoms: C_19  and  C_32
REMARK    5  A    between atoms: N_25  and  C_26
REMARK    6  A    between atoms: C_26  and  C_27
REMARK    7  A    between atoms: C_27  and  O_29
REMARK    8  A    between atoms: O_29  and  C_30
REMARK    9  A    between atoms: C_30  and  C_31
REMARK   10  A    between atoms: C_35  and  C_38
REMARK                            x       y       z     vdW  Elec       q    Type
REMARK                         _______ _______ _______ _____ _____    ______ ____
ROOT
ATOM      1  C   UNL     1      -2.784   4.901   0.638  0.00  0.00    +0.070 A 
ATOM      2  C   UNL     1      -3.225   3.588   0.772  0.00  0.00    +0.036 A 
ATOM      3  C   UNL     1      -2.698   3.093   1.930  0.00  0.00    +0.146 A 
ATOM      4  N   UNL     1      -1.997   4.075   2.526  0.00  0.00    -0.215 N 
ATOM      5  N   UNL     1      -2.048   5.199   1.683  0.00  0.00    -0.169 NA
ATOM      6  N   UNL     1      -2.880   1.750   2.277  0.00  0.00    -0.303 N 
ATOM      7  C   UNL     1      -3.213   1.185   3.461  0.00  0.00    +0.093 A 
ATOM      8  C   UNL     1      -3.367  -0.144   3.258  0.00  0.00    +0.020 A 
ATOM      9  C   UNL     1      -3.090  -0.402   1.897  0.00  0.00    +0.025 A 
ATOM     10  C   UNL     1      -2.758   0.767   1.326  0.00  0.00    +0.050 A 
ATOM     11  C   UNL     1      -2.316   1.038  -0.083  0.00  0.00    +0.155 C 
ATOM     12  N   UNL     1      -3.364   1.743  -0.858  0.00  0.00    -0.269 N 
ATOM     13  C   UNL     1      -4.119   2.791  -0.132  0.00  0.00    +0.151 C 
ATOM     14  C   UNL     1      -3.615   1.448  -2.148  0.00  0.00    +0.304 C 
ATOM     15  O   UNL     1      -2.974   0.581  -2.710  0.00  0.00    -0.253 OA
ATOM     16  N   UNL     1      -4.577   2.114  -2.817  0.00  0.00    -0.289 N 
ATOM     17  H   UNL     1      -5.157   2.899  -2.309  0.00  0.00    +0.151 HD
ENDROOT
BRANCH  11  18
ATOM     18  C   UNL     1      -1.071   1.886  -0.053  0.00  0.00    -0.021 A 
ATOM     19  C   UNL     1      -0.900   2.895  -0.982  0.00  0.00    +0.006 A 
ATOM     20  C   UNL     1       0.240   3.677  -0.951  0.00  0.00    +0.004 A 
ATOM     21  C   UNL     1       1.211   3.446   0.005  0.00  0.00    -0.050 A 
ATOM     22  C   UNL     1       1.042   2.433   0.931  0.00  0.00    +0.004 A 
ATOM     23  C   UNL     1      -0.097   1.651   0.900  0.00  0.00    +0.006 A 
ATOM     24  C   UNL     1       2.453   4.298   0.039  0.00  0.00    +0.044 C 
ENDBRANCH  11  18
BRANCH   4  25
ATOM     25  C   UNL     1      -1.337   3.993   3.759  0.00  0.00    +0.068 A 
ATOM     26  C   UNL     1      -1.387   5.059   4.648  0.00  0.00    +0.028 A 
ATOM     27  C   UNL     1      -0.739   4.973   5.865  0.00  0.00    +0.002 A 
ATOM     28  C   UNL     1      -0.033   3.830   6.194  0.00  0.00    +0.000 A 
ATOM     29  C   UNL     1       0.023   2.769   5.309  0.00  0.00    +0.002 A 
ATOM     30  C   UNL     1      -0.626   2.847   4.093  0.00  0.00    +0.028 A 
ENDBRANCH   4  25
BRANCH   1  32
ATOM     31  C   UNL     1      -4.379   6.602  -0.207  0.00  0.00    +0.010 C 
ATOM     32  C   UNL     1      -3.097   5.823  -0.512  0.00  0.00    +0.054 C 
ENDBRANCH   1  32
BRANCH  16  33
ATOM     33  C   UNL     1      -4.850   1.794  -4.220  0.00  0.00    +0.226 C 
BRANCH  33  34
ATOM     34  C   UNL     1      -5.962   2.674  -4.729  0.00  0.00    +0.324 C 
ATOM     35  O   UNL     1      -6.473   3.487  -3.995  0.00  0.00    -0.249 OA
BRANCH  34  36
ATOM     36  O   UNL     1      -6.384   2.556  -5.998  0.00  0.00    -0.464 OA
BRANCH  36  37
ATOM     37  C   UNL     1      -7.458   3.437  -6.420  0.00  0.00    +0.229 C 
ATOM     38  C   UNL     1      -7.801   3.159  -7.885  0.00  0.00    +0.048 C 
ENDBRANCH  36  37
ENDBRANCH  34  36
ENDBRANCH  33  34
ENDBRANCH  16  33
TORSDOF 7
