REMARK  Name = ZINC12658251
REMARK  12 active torsions:
REMARK  status: ('A' for Active; 'I' for Inactive)
REMARK    1  A    between atoms: C_1  and  C_2
REMARK    2  A    between atoms: C_5  and  C_7
REMARK    3  A    between atoms: C_9  and  C_37
REMARK    4  A    between atoms: C_10  and  S_18
REMARK    5  A    between atoms: C_12  and  C_17
REMARK    6  A    between atoms: C_13  and  C_14
REMARK    7  A    between atoms: C_14  and  C_16
REMARK    8  A    between atoms: S_18  and  C_19
REMARK    9  A    between atoms: C_19  and  C_20
REMARK   10  A    between atoms: N_22  and  C_23
REMARK   11  A    between atoms: C_28  and  C_29
REMARK   12  A    between atoms: C_29  and  C_31
REMARK                            x       y       z     vdW  Elec       q    Type
REMARK                         _______ _______ _______ _____ _____    ______ ____
ROOT
ATOM      1  S   UNL     1      -8.001  -2.866   0.031  0.00  0.00    -0.100 S 
ENDROOT
BRANCH   1   4
ATOM      2  C   UNL     1      -8.693  -6.930  -0.028  0.00  0.00    +0.113 C 
ATOM      3  C   UNL     1      -8.851  -5.436  -0.007  0.00  0.00    +0.161 C 
ATOM      4  C   UNL     1      -7.769  -4.613   0.032  0.00  0.00    +0.093 C 
ATOM      5  N   UNL     1      -6.494  -5.133   0.071  0.00  0.00    -0.248 NA
ATOM      6  C   UNL     1      -6.294  -6.434   0.429  0.00  0.00    +0.046 C 
ATOM      7  C   UNL     1      -7.308  -7.325   0.397  0.00  0.00    +0.028 C 
ATOM      8  C   UNL     1      -4.920  -6.883   0.854  0.00  0.00    +0.066 C 
BRANCH   2  13
ATOM      9  C   UNL     1      -8.238  -7.658  -4.999  0.00  0.00    +0.086 C 
ATOM     10  C   UNL     1      -8.750  -7.757  -3.585  0.00  0.00    +0.102 A 
ATOM     11  C   UNL     1      -9.793  -8.500  -3.176  0.00  0.00    +0.044 A 
ATOM     12  C   UNL     1      -9.921  -8.296  -1.783  0.00  0.00    +0.045 A 
ATOM     13  C   UNL     1      -8.948  -7.440  -1.423  0.00  0.00    +0.114 A 
ATOM     14  O   UNL     1      -8.245  -7.112  -2.520  0.00  0.00    -0.464 OA
ENDBRANCH   2  13
BRANCH   7  15
ATOM     15  C   UNL     1      -7.061  -8.654   0.776  0.00  0.00    +0.159 C 
ATOM     16  O   UNL     1      -5.946  -8.990   1.123  0.00  0.00    -0.293 OA
ATOM     17  C   UNL     1      -8.180  -9.664   0.754  0.00  0.00    +0.091 C 
ENDBRANCH   7  15
BRANCH   3  18
ATOM     18  C   UNL     1     -10.165  -4.868  -0.032  0.00  0.00    +0.074 C 
ATOM     19  N   UNL     1     -11.207  -4.418  -0.052  0.00  0.00    -0.196 NA
ENDBRANCH   3  18
ENDBRANCH   1   4
BRANCH   1  20
ATOM     20  C   UNL     1      -6.276  -2.320   0.089  0.00  0.00    +0.171 C 
BRANCH  20  21
ATOM     21  C   UNL     1      -6.225  -0.814   0.097  0.00  0.00    +0.227 C 
ATOM     22  O   UNL     1      -7.254  -0.173   0.066  0.00  0.00    -0.275 OA
ATOM     23  N   UNL     1      -5.037  -0.180   0.138  0.00  0.00    -0.284 N 
ATOM     24  H   UNL     1      -4.218  -0.691   0.233  0.00  0.00    +0.155 HD
BRANCH  23  25
ATOM     25  C   UNL     1      -4.985   1.208   0.044  0.00  0.00    +0.044 A 
ATOM     26  C   UNL     1      -5.996   1.983   0.596  0.00  0.00    +0.024 A 
ATOM     27  C   UNL     1      -5.943   3.359   0.502  0.00  0.00    +0.002 A 
ATOM     28  C   UNL     1      -4.883   3.978  -0.142  0.00  0.00    +0.001 A 
ATOM     29  C   UNL     1      -3.868   3.227  -0.692  0.00  0.00    +0.013 A 
ATOM     30  C   UNL     1      -3.910   1.832  -0.609  0.00  0.00    +0.043 A 
BRANCH  30  31
ATOM     31  C   UNL     1      -2.830   1.021  -1.199  0.00  0.00    +0.195 C 
ATOM     32  O   UNL     1      -1.754   0.940  -0.638  0.00  0.00    -0.287 OA
BRANCH  31  33
ATOM     33  C   UNL     1      -3.054   0.306  -2.473  0.00  0.00    +0.022 A 
ATOM     34  C   UNL     1      -2.003  -0.379  -3.087  0.00  0.00    +0.012 A 
ATOM     35  C   UNL     1      -2.221  -1.049  -4.273  0.00  0.00    +0.001 A 
ATOM     36  C   UNL     1      -3.475  -1.038  -4.858  0.00  0.00    +0.000 A 
ATOM     37  C   UNL     1      -4.519  -0.357  -4.258  0.00  0.00    +0.001 A 
ATOM     38  C   UNL     1      -4.316   0.317  -3.071  0.00  0.00    +0.012 A 
ENDBRANCH  31  33
ENDBRANCH  30  31
ENDBRANCH  23  25
ENDBRANCH  20  21
ENDBRANCH   1  20
TORSDOF 9
