REMARK  Name = ZINC03442985
REMARK  4 active torsions:
REMARK  status: ('A' for Active; 'I' for Inactive)
REMARK    1  A    between atoms: C_1  and  N_2
REMARK    2  A    between atoms: C_11  and  S_12
REMARK    3  A    between atoms: S_12  and  C_13
REMARK    4  A    between atoms: C_13  and  C_14
REMARK                            x       y       z     vdW  Elec       q    Type
REMARK                         _______ _______ _______ _____ _____    ______ ____
ROOT
ATOM      1  C   UNL     1       3.582  -4.863  -1.112  0.00  0.00    +0.154 C 
ATOM      2  N   UNL     1       2.407  -4.069  -0.747  0.00  0.00    -0.290 N 
ATOM      3  C   UNL     1       2.484  -2.725  -0.772  0.00  0.00    +0.263 A 
ATOM      4  O   UNL     1       3.520  -2.170  -1.096  0.00  0.00    -0.267 OA
ATOM      5  C   UNL     1       1.331  -1.958  -0.414  0.00  0.00    +0.076 A 
ATOM      6  C   UNL     1       1.195  -0.493  -0.373  0.00  0.00    -0.023 A 
ATOM      7  C   UNL     1       0.002  -0.004   0.002  0.00  0.00    -0.004 A 
ATOM      8  S   UNL     1      -1.004  -1.436   0.316  0.00  0.00    -0.073 S 
ATOM      9  C   UNL     1       0.191  -2.692  -0.057  0.00  0.00    +0.117 A 
ATOM     10  N   UNL     1       0.179  -4.020  -0.052  0.00  0.00    -0.216 NA
ATOM     11  C   UNL     1       1.254  -4.704  -0.387  0.00  0.00    +0.173 A 
ATOM     12  C   UNL     1      -0.018   1.501   0.010  0.00  0.00    +0.043 C 
ATOM     13  C   UNL     1       1.471   1.909  -0.002  0.00  0.00    +0.010 C 
ATOM     14  C   UNL     1       2.125   0.686  -0.673  0.00  0.00    +0.037 C 
ENDROOT
BRANCH  11  15
ATOM     15  S   UNL     1       1.204  -6.466  -0.369  0.00  0.00    -0.083 S 
BRANCH  15  16
ATOM     16  C   UNL     1      -0.506  -6.725   0.165  0.00  0.00    +0.112 C 
BRANCH  16  17
ATOM     17  C   UNL     1      -0.786  -8.204   0.254  0.00  0.00    -0.037 A 
ATOM     18  C   UNL     1      -1.276  -8.882  -0.847  0.00  0.00    +0.006 A 
ATOM     19  C   UNL     1      -1.527 -10.238  -0.768  0.00  0.00    +0.020 A 
ATOM     20  C   UNL     1      -1.299 -10.916   0.417  0.00  0.00    +0.041 A 
ATOM     21  C   UNL     1      -0.814 -10.236   1.520  0.00  0.00    +0.020 A 
ATOM     22  C   UNL     1      -0.558  -8.880   1.438  0.00  0.00    +0.006 A 
ATOM     23 CL   UNL     1      -1.620 -12.619   0.519  0.00  0.00    -0.084 Cl
ENDBRANCH  16  17
ENDBRANCH  15  16
ENDBRANCH  11  15
TORSDOF 3
