REMARK  Name = ZINC37523514
REMARK  3 active torsions:
REMARK  status: ('A' for Active; 'I' for Inactive)
REMARK    1  A    between atoms: C_3  and  C_8
REMARK    2  A    between atoms: N_18  and  C_19
REMARK    3  A    between atoms: C_19  and  C_20
REMARK                            x       y       z     vdW  Elec       q    Type
REMARK                         _______ _______ _______ _____ _____    ______ ____
ROOT
ATOM      1  C   UNL     1       3.692   2.306  -0.121  0.00  0.00    +0.011 C 
ATOM      2  C   UNL     1       4.132   2.485   1.311  0.00  0.00    +0.009 A 
ATOM      3  C   UNL     1       3.328   2.713   2.368  0.00  0.00    +0.021 A 
ATOM      4  C   UNL     1       4.151   2.831   3.506  0.00  0.00    +0.019 A 
ATOM      5  C   UNL     1       5.427   2.667   3.102  0.00  0.00    +0.086 A 
ATOM      6  N   UNL     1       5.422   2.445   1.758  0.00  0.00    -0.352 N 
ATOM      7  C   UNL     1       6.594   2.190   0.912  0.00  0.00    +0.119 C 
ATOM      8  C   UNL     1       6.493   3.050  -0.351  0.00  0.00    +0.003 C 
ATOM      9  C   UNL     1       5.713   2.299  -1.423  0.00  0.00    -0.075 C 
ATOM     10  N   UNL     1       4.667   1.464  -0.827  0.00  0.00    +0.391 N 
ATOM     11  H   UNL     1       5.087   0.819  -0.175  0.00  0.00    -0.080 HD
ENDROOT
BRANCH   1  14
ATOM     12  C   UNL     1       0.019   1.691  -0.747  0.00  0.00    +0.002 A 
ATOM     13  C   UNL     1       1.261   2.298  -0.718  0.00  0.00    +0.002 A 
ATOM     14  C   UNL     1       2.339   1.643  -0.153  0.00  0.00    -0.054 A 
ATOM     15  C   UNL     1       2.176   0.379   0.383  0.00  0.00    +0.022 A 
ATOM     16  C   UNL     1       0.934  -0.230   0.353  0.00  0.00    +0.041 A 
ATOM     17  C   UNL     1      -0.144   0.427  -0.212  0.00  0.00    +0.020 A 
ATOM     18 CL   UNL     1       0.730  -1.817   1.025  0.00  0.00    -0.084 Cl
ENDBRANCH   1  14
BRANCH  10  19
ATOM     19  C   UNL     1       3.984   0.709  -1.886  0.00  0.00    -0.039 C 
BRANCH  19  20
ATOM     20  C   UNL     1       4.965  -0.217  -2.557  0.00  0.00    -0.026 A 
ATOM     21  C   UNL     1       5.537   0.139  -3.764  0.00  0.00    +0.005 A 
ATOM     22  C   UNL     1       6.438  -0.709  -4.380  0.00  0.00    +0.003 A 
ATOM     23  C   UNL     1       6.769  -1.915  -3.790  0.00  0.00    +0.041 A 
ATOM     24  C   UNL     1       6.198  -2.274  -2.582  0.00  0.00    +0.159 A 
ATOM     25  C   UNL     1       5.299  -1.421  -1.961  0.00  0.00    +0.160 A 
ATOM     26  F   UNL     1       4.744  -1.766  -0.779  0.00  0.00    -0.202 F 
ATOM     27  F   UNL     1       6.521  -3.453  -2.006  0.00  0.00    -0.202 F 
ENDBRANCH  19  20
ENDBRANCH  10  19
TORSDOF 3
