REMARK  Name = ZINC35945088
REMARK  13 active torsions:
REMARK  status: ('A' for Active; 'I' for Inactive)
REMARK    1  A    between atoms: C_1  and  C_2
REMARK    2  A    between atoms: C_2  and  C_3
REMARK    3  A    between atoms: C_2  and  N_4
REMARK    4  A    between atoms: N_7  and  C_8
REMARK    5  A    between atoms: C_11  and  N_33
REMARK    6  A    between atoms: C_12  and  C_14
REMARK    7  A    between atoms: C_14  and  N_15
REMARK    8  A    between atoms: N_15  and  C_16
REMARK    9  A    between atoms: N_15  and  S_23
REMARK   10  A    between atoms: C_16  and  C_17
REMARK   11  A    between atoms: S_23  and  C_26
REMARK   12  A    between atoms: N_33  and  C_34
REMARK   13  A    between atoms: N_33  and  C_35
REMARK                            x       y       z     vdW  Elec       q    Type
REMARK                         _______ _______ _______ _____ _____    ______ ____
ROOT
ATOM      1  C   UNL     1      -3.295  -3.076  -1.699  0.00  0.00    +0.035 A 
ATOM      2  C   UNL     1      -2.270  -3.865  -2.204  0.00  0.00    +0.025 A 
ATOM      3  C   UNL     1      -2.526  -5.165  -2.592  0.00  0.00    +0.025 A 
ATOM      4  C   UNL     1      -3.810  -5.683  -2.477  0.00  0.00    +0.034 A 
ATOM      5  C   UNL     1      -4.835  -4.894  -1.972  0.00  0.00    -0.009 A 
ATOM      6  C   UNL     1      -4.577  -3.595  -1.580  0.00  0.00    +0.030 A 
ENDROOT
BRANCH   1  10
ATOM      7  N   UNL     1      -1.958   0.284  -1.670  0.00  0.00    -0.297 N 
ATOM      8  C   UNL     1      -2.138  -1.014  -1.986  0.00  0.00    +0.304 C 
ATOM      9  O   UNL     1      -1.492  -1.515  -2.886  0.00  0.00    -0.253 OA
ATOM     10  N   UNL     1      -3.034  -1.756  -1.306  0.00  0.00    -0.269 N 
ATOM     11  H   UNL     1      -2.474   0.684  -0.952  0.00  0.00    +0.151 HD
ATOM     12  H   UNL     1      -3.498  -1.377  -0.543  0.00  0.00    +0.156 HD
BRANCH   7  14
ATOM     13  C   UNL     1      -1.379   2.566  -2.330  0.00  0.00    +0.027 C 
ATOM     14  C   UNL     1      -0.985   1.090  -2.410  0.00  0.00    +0.068 C 
ATOM     15  C   UNL     1       0.405   0.900  -1.798  0.00  0.00    +0.027 C 
ENDBRANCH   7  14
ENDBRANCH   1  10
BRANCH   4  16
ATOM     16  N   UNL     1      -4.070  -7.001  -2.870  0.00  0.00    -0.336 N 
ATOM     17  C   UNL     1      -4.041  -8.080  -1.880  0.00  0.00    +0.129 C 
ATOM     18  C   UNL     1      -4.372  -7.301  -4.272  0.00  0.00    +0.129 C 
ENDBRANCH   4  16
BRANCH   5  19
ATOM     19  C   UNL     1      -6.227  -5.456  -1.848  0.00  0.00    +0.146 C 
BRANCH  19  20
ATOM     20  N   UNL     1      -7.083  -4.492  -1.151  0.00  0.00    -0.170 NA
BRANCH  20  21
ATOM     21  S   UNL     1      -7.353  -4.649   0.475  0.00  0.00    +0.061 S 
ATOM     22  O   UNL     1      -8.632  -4.084   0.731  0.00  0.00    -0.153 OA
ATOM     23  O   UNL     1      -7.033  -5.992   0.812  0.00  0.00    -0.153 OA
BRANCH  21  24
ATOM     24  C   UNL     1      -6.178  -3.629   1.300  0.00  0.00    +0.107 A 
ATOM     25  C   UNL     1      -4.916  -4.118   1.585  0.00  0.00    +0.028 A 
ATOM     26  C   UNL     1      -3.994  -3.318   2.232  0.00  0.00    +0.003 A 
ATOM     27  C   UNL     1      -4.332  -2.028   2.596  0.00  0.00    +0.020 A 
ATOM     28  C   UNL     1      -5.594  -1.538   2.312  0.00  0.00    +0.043 A 
ATOM     29  C   UNL     1      -6.515  -2.337   1.658  0.00  0.00    +0.048 A 
ATOM     30 CL   UNL     1      -6.019   0.082   2.769  0.00  0.00    -0.083 Cl
ENDBRANCH  21  24
ENDBRANCH  20  21
BRANCH  20  31
ATOM     31  C   UNL     1      -7.698  -3.389  -1.893  0.00  0.00    +0.141 C 
BRANCH  31  32
ATOM     32  C   UNL     1      -9.005  -3.868  -2.527  0.00  0.00    +0.134 C 
ATOM     33  C   UNL     1      -9.600  -2.749  -3.409  0.00  0.00    +0.035 C 
ATOM     34  C   UNL     1     -11.121  -2.875  -3.121  0.00  0.00    +0.031 C 
ATOM     35  C   UNL     1     -11.103  -3.304  -1.632  0.00  0.00    +0.160 C 
ATOM     36  O   UNL     1      -9.961  -4.168  -1.503  0.00  0.00    -0.375 OA
ENDBRANCH  31  32
ENDBRANCH  20  31
ENDBRANCH  19  20
ENDBRANCH   5  19
TORSDOF 9
