REMARK  Name = ZINC15504218
REMARK  5 active torsions:
REMARK  status: ('A' for Active; 'I' for Inactive)
REMARK    1  A    between atoms: N_9  and  C_27
REMARK    2  A    between atoms: C_10  and  C_13
REMARK    3  A    between atoms: N_17  and  C_18
REMARK    4  A    between atoms: C_21  and  N_24
REMARK    5  A    between atoms: C_27  and  C_28
REMARK                            x       y       z     vdW  Elec       q    Type
REMARK                         _______ _______ _______ _____ _____    ______ ____
ROOT
ATOM      1  C   UNL     1      -6.130   1.116  -0.557  0.00  0.00    +0.001 A 
ATOM      2  C   UNL     1      -6.599   0.199   0.370  0.00  0.00    +0.002 A 
ATOM      3  C   UNL     1      -5.772  -0.272   1.372  0.00  0.00    +0.024 A 
ATOM      4  C   UNL     1      -4.465   0.177   1.449  0.00  0.00    +0.041 A 
ATOM      5  C   UNL     1      -3.987   1.110   0.512  0.00  0.00    +0.058 A 
ATOM      6  C   UNL     1      -4.831   1.575  -0.494  0.00  0.00    +0.015 A 
ATOM      7  C   UNL     1      -2.595   1.577   0.635  0.00  0.00    +0.250 C 
ATOM      8  O   UNL     1      -2.217   2.555   0.019  0.00  0.00    -0.270 OA
ATOM      9  N   UNL     1      -1.742   0.903   1.435  0.00  0.00    -0.271 N 
ATOM     10  C   UNL     1      -2.156  -0.318   2.126  0.00  0.00    +0.210 C 
ATOM     11  N   UNL     1      -3.590  -0.267   2.434  0.00  0.00    -0.320 N 
ATOM     12  H   UNL     1      -3.921  -0.538   3.304  0.00  0.00    +0.148 HD
ENDROOT
BRANCH  10  13
ATOM     13  C   UNL     1      -1.875  -1.509   1.247  0.00  0.00    +0.062 A 
ATOM     14  C   UNL     1      -0.998  -1.547   0.224  0.00  0.00    +0.026 A 
ATOM     15  C   UNL     1      -1.047  -2.843  -0.328  0.00  0.00    +0.020 A 
ATOM     16  C   UNL     1      -1.953  -3.549   0.378  0.00  0.00    +0.091 A 
ATOM     17  N   UNL     1      -2.462  -2.737   1.351  0.00  0.00    -0.317 N 
BRANCH  17  18
ATOM     18  C   UNL     1      -3.429  -3.104   2.299  0.00  0.00    +0.047 A 
ATOM     19  C   UNL     1      -3.214  -2.849   3.646  0.00  0.00    +0.028 A 
ATOM     20  C   UNL     1      -4.170  -3.206   4.577  0.00  0.00    +0.035 A 
ATOM     21  C   UNL     1      -5.336  -3.827   4.168  0.00  0.00    +0.126 A 
ATOM     22  C   UNL     1      -5.551  -4.087   2.827  0.00  0.00    +0.035 A 
ATOM     23  C   UNL     1      -4.601  -3.727   1.891  0.00  0.00    +0.028 A 
BRANCH  21  24
ATOM     24  N   UNL     1      -6.357  -4.213   5.168  0.00  0.00    +0.056 N 
ATOM     25  O   UNL     1      -7.385  -4.759   4.809  0.00  0.00    -0.126 OA
ATOM     26  O   UNL     1      -6.169  -3.984   6.349  0.00  0.00    -0.126 OA
ENDBRANCH  21  24
ENDBRANCH  17  18
ENDBRANCH  10  13
BRANCH   9  27
ATOM     27  C   UNL     1      -0.379   1.407   1.619  0.00  0.00    +0.141 C 
BRANCH  27  28
ATOM     28  C   UNL     1      -0.371   2.465   2.724  0.00  0.00    +0.136 C 
ATOM     29  C   UNL     1       1.037   3.084   2.866  0.00  0.00    +0.035 C 
ATOM     30  C   UNL     1       1.199   3.304   4.387  0.00  0.00    +0.031 C 
ATOM     31  C   UNL     1      -0.131   2.792   4.984  0.00  0.00    +0.160 C 
ATOM     32  O   UNL     1      -0.638   1.857   4.007  0.00  0.00    -0.375 OA
ENDBRANCH  27  28
ENDBRANCH   9  27
TORSDOF 5
