REMARK  Name = ZINC09283405
REMARK  8 active torsions:
REMARK  status: ('A' for Active; 'I' for Inactive)
REMARK    1  A    between atoms: C_1  and  C_2
REMARK    2  A    between atoms: C_3  and  C_16
REMARK    3  A    between atoms: N_5  and  C_7
REMARK    4  A    between atoms: C_7  and  C_8
REMARK    5  A    between atoms: C_17  and  C_18
REMARK    6  A    between atoms: C_18  and  O_20
REMARK    7  A    between atoms: O_20  and  C_21
REMARK    8  A    between atoms: C_21  and  C_22
REMARK                            x       y       z     vdW  Elec       q    Type
REMARK                         _______ _______ _______ _____ _____    ______ ____
ROOT
ATOM      1  C   UNL     1       1.203   1.800   0.000  0.00  0.00    +0.332 C 
ATOM      2  O   UNL     1       1.187   3.017   0.007  0.00  0.00    -0.246 OA
ENDROOT
BRANCH   1   4
ATOM      3  C   UNL     1      -1.193   1.736   0.017  0.00  0.00    +0.020 C 
ATOM      4  C   UNL     1      -0.013   1.076   0.008  0.00  0.00    +0.092 C 
BRANCH   3   7
ATOM      5  C   UNL     1      -3.618   2.189   2.012  0.00  0.00    +0.068 C 
ATOM      6  C   UNL     1      -3.545   1.175   0.901  0.00  0.00    +0.069 A 
ATOM      7  C   UNL     1      -2.454   0.985   0.019  0.00  0.00    +0.034 A 
ATOM      8  C   UNL     1      -2.799  -0.048  -0.838  0.00  0.00    +0.135 A 
ATOM      9  N   UNL     1      -4.034  -0.455  -0.497  0.00  0.00    -0.248 N 
ATOM     10  N   UNL     1      -4.476   0.320   0.581  0.00  0.00    -0.174 NA
ATOM     11 CL   UNL     1      -1.819  -0.695  -2.116  0.00  0.00    -0.062 Cl
BRANCH   9  12
ATOM     12  C   UNL     1      -4.790  -1.530  -1.144  0.00  0.00    +0.180 C 
BRANCH  12  13
ATOM     13  C   UNL     1      -4.488  -2.839  -0.461  0.00  0.00    -0.026 A 
ATOM     14  C   UNL     1      -3.442  -3.626  -0.907  0.00  0.00    +0.007 A 
ATOM     15  C   UNL     1      -3.161  -4.824  -0.277  0.00  0.00    +0.020 A 
ATOM     16  C   UNL     1      -3.933  -5.240   0.793  0.00  0.00    +0.041 A 
ATOM     17  C   UNL     1      -4.983  -4.455   1.236  0.00  0.00    +0.020 A 
ATOM     18  C   UNL     1      -5.259  -3.254   0.608  0.00  0.00    +0.007 A 
ATOM     19 CL   UNL     1      -3.585  -6.748   1.581  0.00  0.00    -0.084 Cl
ENDBRANCH  12  13
ENDBRANCH   9  12
ENDBRANCH   3   7
ENDBRANCH   1   4
BRANCH   1  20
ATOM     20  O   UNL     1       2.381   1.141  -0.015  0.00  0.00    -0.452 OA
BRANCH  20  21
ATOM     21  C   UNL     1       3.568   1.935  -0.022  0.00  0.00    +0.328 C 
BRANCH  21  22
ATOM     22  C   UNL     1       4.776   1.034  -0.038  0.00  0.00    +0.258 C 
ATOM     23  O   UNL     1       4.633  -0.171  -0.043  0.00  0.00    -0.271 OA
ATOM     24  N   UNL     1       6.014   1.566  -0.047  0.00  0.00    -0.258 N 
ATOM     25  C   UNL     1       6.214   3.023  -0.041  0.00  0.00    +0.209 C 
ATOM     26  C   UNL     1       7.322   3.371  -1.002  0.00  0.00    +0.235 C 
ATOM     27  O   UNL     1       7.319   4.451  -1.554  0.00  0.00    -0.274 OA
ATOM     28  N   UNL     1       8.315   2.497  -1.256  0.00  0.00    -0.283 N 
ATOM     29  C   UNL     1       8.315   1.226  -0.672  0.00  0.00    +0.055 A 
ATOM     30  C   UNL     1       7.154   0.747  -0.056  0.00  0.00    +0.058 A 
ATOM     31  C   UNL     1       7.138  -0.507   0.525  0.00  0.00    +0.025 A 
ATOM     32  C   UNL     1       8.279  -1.289   0.504  0.00  0.00    +0.002 A 
ATOM     33  C   UNL     1       9.433  -0.819  -0.096  0.00  0.00    +0.002 A 
ATOM     34  C   UNL     1       9.454   0.437  -0.692  0.00  0.00    +0.025 A 
ATOM     35  H   UNL     1       9.037   2.752  -1.850  0.00  0.00    +0.155 HD
ENDBRANCH  21  22
ENDBRANCH  20  21
ENDBRANCH   1  20
TORSDOF 7
