REMARK  Name = ZINC67538647
REMARK  7 active torsions:
REMARK  status: ('A' for Active; 'I' for Inactive)
REMARK    1  A    between atoms: C_6  and  C_11
REMARK    2  A    between atoms: C_11  and  C_13
REMARK    3  A    between atoms: C_11  and  O_30
REMARK    4  A    between atoms: C_13  and  N_14
REMARK    5  A    between atoms: N_17  and  C_18
REMARK    6  A    between atoms: C_21  and  C_24
REMARK    7  A    between atoms: N_26  and  C_27
REMARK                            x       y       z     vdW  Elec       q    Type
REMARK                         _______ _______ _______ _____ _____    ______ ____
ROOT
ATOM      1  N   UNL     1       6.668  -3.748  -1.519  0.00  0.00    -0.296 N 
ATOM      2  C   UNL     1       7.194  -4.162  -2.689  0.00  0.00    +0.304 C 
ATOM      3  O   UNL     1       6.602  -3.954  -3.730  0.00  0.00    -0.253 OA
ATOM      4  N   UNL     1       8.377  -4.808  -2.704  0.00  0.00    -0.269 N 
ATOM      5  H   UNL     1       7.140  -3.914  -0.689  0.00  0.00    +0.150 HD
ATOM      6  H   UNL     1       8.882  -4.916  -1.883  0.00  0.00    +0.156 HD
ENDROOT
BRANCH   4   7
ATOM      7  C   UNL     1       8.876  -5.321  -3.901  0.00  0.00    +0.035 A 
ATOM      8  C   UNL     1       8.659  -4.637  -5.093  0.00  0.00    +0.024 A 
ATOM      9  C   UNL     1       9.150  -5.141  -6.277  0.00  0.00    +0.015 A 
ATOM     10  C   UNL     1       9.867  -6.340  -6.280  0.00  0.00    +0.037 A 
ATOM     11  C   UNL     1      10.083  -7.024  -5.080  0.00  0.00    +0.015 A 
ATOM     12  C   UNL     1       9.594  -6.513  -3.900  0.00  0.00    +0.024 A 
BRANCH  10  13
ATOM     13  C   UNL     1      10.394  -6.883  -7.546  0.00  0.00    +0.244 C 
ATOM     14  O   UNL     1      10.205  -6.287  -8.589  0.00  0.00    -0.270 OA
ATOM     15  N   UNL     1      11.086  -8.040  -7.548  0.00  0.00    -0.308 N 
ATOM     16  H   UNL     1      11.237  -8.516  -6.716  0.00  0.00    +0.149 HD
BRANCH  15  17
ATOM     17  C   UNL     1      11.609  -8.579  -8.805  0.00  0.00    +0.073 C 
ATOM     18  C   UNL     1      11.445 -10.080  -9.053  0.00  0.00    +0.024 C 
ATOM     19  C   UNL     1      12.825  -9.506  -8.725  0.00  0.00    +0.024 C 
ENDBRANCH  15  17
ENDBRANCH  10  13
ENDBRANCH   4   7
BRANCH   1  20
ATOM     20  C   UNL     1       5.382  -3.046  -1.502  0.00  0.00    +0.141 C 
BRANCH  20  21
ATOM     21  C   UNL     1       5.015  -2.689  -0.061  0.00  0.00    +0.162 C 
BRANCH  21  27
ATOM     22  C   UNL     1      -0.017   1.359   0.002  0.00  0.00    +0.001 A 
ATOM     23  C   UNL     1       1.166   2.095  -0.016  0.00  0.00    +0.001 A 
ATOM     24  C   UNL     1       2.377   1.474  -0.032  0.00  0.00    +0.008 A 
ATOM     25  C   UNL     1       2.439   0.070  -0.030  0.00  0.00    -0.018 A 
ATOM     26  C   UNL     1       3.671  -0.606  -0.046  0.00  0.00    +0.014 A 
ATOM     27  C   UNL     1       3.692  -1.967  -0.043  0.00  0.00    -0.017 A 
ATOM     28  C   UNL     1       2.509  -2.703  -0.026  0.00  0.00    +0.007 A 
ATOM     29  C   UNL     1       1.298  -2.082  -0.010  0.00  0.00    +0.009 A 
ATOM     30  C   UNL     1       1.236  -0.678  -0.012  0.00  0.00    -0.018 A 
ATOM     31  C   UNL     1       0.004  -0.002   0.004  0.00  0.00    +0.008 A 
ENDBRANCH  21  27
BRANCH  21  32
ATOM     32  O   UNL     1       4.915  -3.884   0.716  0.00  0.00    -0.386 OA
ATOM     33  H   UNL     1       4.247  -4.506   0.397  0.00  0.00    +0.210 HD
ENDBRANCH  21  32
ENDBRANCH  20  21
ENDBRANCH   1  20
TORSDOF 7
