REMARK  Name = ZINC18180731
REMARK  5 active torsions:
REMARK  status: ('A' for Active; 'I' for Inactive)
REMARK    1  A    between atoms: C_1  and  C_2
REMARK    2  A    between atoms: C_6  and  S_8
REMARK    3  A    between atoms: S_8  and  C_9
REMARK    4  A    between atoms: N_14  and  C_17
REMARK    5  A    between atoms: C_20  and  N_23
REMARK                            x       y       z     vdW  Elec       q    Type
REMARK                         _______ _______ _______ _____ _____    ______ ____
ROOT
ATOM      1  C   UNL     1       0.111  -1.416   3.987  0.00  0.00    +0.150 C 
ATOM      2  C   UNL     1       0.044  -2.269   5.271  0.00  0.00    +0.120 C 
ATOM      3  C   UNL     1      -1.281  -1.877   5.888  0.00  0.00    +0.228 C 
ATOM      4  O   UNL     1      -1.731  -2.319   6.924  0.00  0.00    -0.275 OA
ATOM      5  N   UNL     1      -1.877  -0.966   5.110  0.00  0.00    -0.209 N 
ATOM      6  C   UNL     1      -1.182  -0.630   4.012  0.00  0.00    +0.240 C 
ATOM      7  O   UNL     1      -1.531   0.173   3.174  0.00  0.00    -0.274 OA
ENDROOT
BRANCH   5   8
ATOM      8  C   UNL     1      -3.125  -0.406   5.417  0.00  0.00    +0.044 A 
ATOM      9  C   UNL     1      -3.261   0.430   6.517  0.00  0.00    +0.026 A 
ATOM     10  C   UNL     1      -4.491   0.981   6.817  0.00  0.00    +0.034 A 
ATOM     11  C   UNL     1      -5.588   0.700   6.023  0.00  0.00    +0.126 A 
ATOM     12  C   UNL     1      -5.456  -0.133   4.927  0.00  0.00    +0.034 A 
ATOM     13  C   UNL     1      -4.227  -0.681   4.619  0.00  0.00    +0.026 A 
BRANCH  11  14
ATOM     14  N   UNL     1      -6.905   1.292   6.347  0.00  0.00    +0.056 N 
ATOM     15  O   UNL     1      -7.022   2.020   7.305  0.00  0.00    -0.126 OA
ATOM     16  O   UNL     1      -7.865   1.047   5.653  0.00  0.00    -0.126 OA
ENDBRANCH  11  14
ENDBRANCH   5   8
BRANCH   1  17
ATOM     17  S   UNL     1       0.183  -2.479   2.518  0.00  0.00    -0.073 S 
BRANCH  17  23
ATOM     18  C   UNL     1       0.522   2.307   0.741  0.00  0.00    +0.066 C 
ATOM     19  C   UNL     1       0.486   0.830   0.447  0.00  0.00    +0.046 A 
ATOM     20  C   UNL     1       0.570   0.373  -0.864  0.00  0.00    -0.005 A 
ATOM     21  C   UNL     1       0.536  -0.986  -1.092  0.00  0.00    +0.049 A 
ATOM     22  N   UNL     1       0.417  -1.810  -0.057  0.00  0.00    -0.227 NA
ATOM     23  C   UNL     1       0.338  -1.344   1.179  0.00  0.00    +0.189 A 
ATOM     24  N   UNL     1       0.378  -0.043   1.433  0.00  0.00    -0.227 NA
ATOM     25  C   UNL     1       0.636  -1.578  -2.472  0.00  0.00    +0.056 C 
ATOM     26  C   UNL     1       0.334  -0.518  -3.531  0.00  0.00    +0.006 C 
ATOM     27  C   UNL     1       1.201   0.714  -3.249  0.00  0.00    +0.005 C 
ATOM     28  C   UNL     1       0.692   1.382  -1.972  0.00  0.00    +0.039 C 
ENDBRANCH  17  23
ENDBRANCH   1  17
TORSDOF 4
