REMARK  Name = ZINC38586335
REMARK  2 active torsions:
REMARK  status: ('A' for Active; 'I' for Inactive)
REMARK    1  A    between atoms: C_1  and  C_2
REMARK    2  A    between atoms: C_4  and  C_24
REMARK                            x       y       z     vdW  Elec       q    Type
REMARK                         _______ _______ _______ _____ _____    ______ ____
ROOT
ATOM      1  C   UNL     1      -0.025   1.512   0.127  0.00  0.00    +0.062 C 
ATOM      2  C   UNL     1       0.002   0.005   0.113  0.00  0.00    +0.022 C 
ATOM      3  C   UNL     1      -1.060  -0.748   0.158  0.00  0.00    -0.004 C 
ATOM      4  C   UNL     1      -2.525  -0.387   0.080  0.00  0.00    +0.061 C 
ATOM      5  C   UNL     1      -3.073  -1.085  -1.174  0.00  0.00    +0.108 C 
ATOM      6  C   UNL     1      -2.477  -2.442  -1.359  0.00  0.00    +0.216 C 
ATOM      7  O   UNL     1      -3.095  -3.208  -2.069  0.00  0.00    -0.276 OA
ATOM      8  N   UNL     1      -1.343  -2.909  -0.835  0.00  0.00    -0.292 N 
ATOM      9  C   UNL     1      -0.603  -2.197   0.199  0.00  0.00    +0.210 C 
ATOM     10  N   UNL     1       0.835  -2.119  -0.068  0.00  0.00    -0.213 N 
ATOM     11  N   UNL     1       1.159  -0.755   0.043  0.00  0.00    -0.265 N 
ATOM     12  C   UNL     1       1.669  -3.138  -0.361  0.00  0.00    +0.150 C 
ATOM     13  N   UNL     1       1.230  -4.381  -0.446  0.00  0.00    -0.221 NA
ATOM     14  C   UNL     1       2.016  -5.429  -0.668  0.00  0.00    +0.225 C 
ATOM     15  N   UNL     1       3.333  -5.378  -0.511  0.00  0.00    -0.218 NA
ATOM     16  C   UNL     1       3.835  -4.191  -0.183  0.00  0.00    +0.164 C 
ATOM     17  N   UNL     1       4.852  -3.798   0.524  0.00  0.00    -0.219 NA
ATOM     18  C   UNL     1       4.739  -2.507   0.863  0.00  0.00    +0.218 C 
ATOM     19  N   UNL     1       3.740  -1.908   0.277  0.00  0.00    -0.253 NA
ATOM     20  C   UNL     1       3.133  -2.900  -0.612  0.00  0.00    +0.239 C 
ATOM     21  H   UNL     1      -0.997  -3.757  -1.155  0.00  0.00    +0.151 HD
ATOM     22  H   UNL     1       2.061  -0.399   0.070  0.00  0.00    +0.170 HD
ENDROOT
BRANCH   4  23
ATOM     23  C   UNL     1      -2.684   1.106  -0.045  0.00  0.00    -0.003 A 
ATOM     24  C   UNL     1      -3.245   1.831   0.991  0.00  0.00    +0.046 A 
ATOM     25  C   UNL     1      -3.392   3.202   0.877  0.00  0.00    +0.020 A 
ATOM     26  C   UNL     1      -2.977   3.847  -0.273  0.00  0.00    +0.003 A 
ATOM     27  C   UNL     1      -2.416   3.124  -1.309  0.00  0.00    +0.020 A 
ATOM     28  C   UNL     1      -2.264   1.754  -1.193  0.00  0.00    +0.046 A 
ATOM     29 CL   UNL     1      -1.553   0.846  -2.490  0.00  0.00    -0.083 Cl
ATOM     30 CL   UNL     1      -3.767   1.020   2.435  0.00  0.00    -0.083 Cl
ENDBRANCH   4  23
TORSDOF 1
