REMARK  Name = ZINC05449785
REMARK  10 active torsions:
REMARK  status: ('A' for Active; 'I' for Inactive)
REMARK    1  A    between atoms: C_1  and  C_2
REMARK    2  A    between atoms: C_2  and  C_3
REMARK    3  A    between atoms: C_2  and  C_4
REMARK    4  A    between atoms: C_4  and  N_5
REMARK    5  A    between atoms: C_15  and  S_16
REMARK    6  A    between atoms: S_16  and  C_17
REMARK    7  A    between atoms: C_17  and  C_19
REMARK    8  A    between atoms: C_17  and  C_22
REMARK    9  A    between atoms: C_19  and  C_20
REMARK   10  A    between atoms: C_19  and  C_21
REMARK                            x       y       z     vdW  Elec       q    Type
REMARK                         _______ _______ _______ _____ _____    ______ ____
ROOT
ATOM      1  N   UNL     1       0.014   0.006  -0.045  0.00  0.00    -0.287 N 
ATOM      2  C   UNL     1       1.173  -0.656  -0.269  0.00  0.00    +0.262 A 
ATOM      3  O   UNL     1       1.223  -1.872  -0.231  0.00  0.00    -0.267 OA
ATOM      4  C   UNL     1       2.369   0.147  -0.558  0.00  0.00    +0.066 A 
ATOM      5  C   UNL     1       3.609  -0.442  -0.801  0.00  0.00    +0.035 A 
ATOM      6  C   UNL     1       4.698   0.360  -1.067  0.00  0.00    +0.042 A 
ATOM      7  C   UNL     1       4.568   1.744  -1.093  0.00  0.00    +0.022 A 
ATOM      8  C   UNL     1       3.362   2.340  -0.858  0.00  0.00    +0.030 A 
ATOM      9  C   UNL     1       2.239   1.554  -0.585  0.00  0.00    +0.079 A 
ATOM     10  N   UNL     1       1.027   2.108  -0.345  0.00  0.00    -0.223 NA
ATOM     11  C   UNL     1      -0.025   1.370  -0.090  0.00  0.00    +0.173 A 
ATOM     12 CL   UNL     1       6.247  -0.364  -1.371  0.00  0.00    -0.084 Cl
ENDROOT
BRANCH   1  13
ATOM     13  C   UNL     1      -1.208  -0.747   0.248  0.00  0.00    +0.130 C 
BRANCH  13  15
ATOM     14  C   UNL     1      -1.077  -2.003  -1.908  0.00  0.00    +0.009 C 
ATOM     15  C   UNL     1      -1.937  -1.064  -1.059  0.00  0.00    +0.003 C 
ATOM     16  C   UNL     1      -3.274  -1.741  -0.746  0.00  0.00    +0.009 C 
ENDBRANCH  13  15
ENDBRANCH   1  13
BRANCH  11  17
ATOM     17  S   UNL     1      -1.565   2.176   0.203  0.00  0.00    -0.075 S 
BRANCH  17  18
ATOM     18  C   UNL     1      -1.025   3.904   0.179  0.00  0.00    +0.143 C 
BRANCH  18  19
ATOM     19  C   UNL     1      -0.157   4.175   1.381  0.00  0.00    +0.234 C 
ATOM     20  O   UNL     1      -0.210   3.442   2.345  0.00  0.00    -0.274 OA
ATOM     21  N   UNL     1       0.678   5.233   1.384  0.00  0.00    -0.239 N 
ATOM     22  C   UNL     1       1.454   5.476   2.459  0.00  0.00    +0.303 C 
ATOM     23  O   UNL     1       1.401   4.741   3.425  0.00  0.00    -0.253 OA
ATOM     24  N   UNL     1       2.289   6.534   2.462  0.00  0.00    -0.313 N 
ATOM     25  H   UNL     1       0.720   5.820   0.613  0.00  0.00    +0.159 HD
ATOM     26  H   UNL     1       2.331   7.121   1.690  0.00  0.00    +0.146 HD
ATOM     27  H   UNL     1       2.847   6.709   3.235  0.00  0.00    +0.146 HD
ENDBRANCH  18  19
BRANCH  18  28
ATOM     28  C   UNL     1      -2.249   4.821   0.216  0.00  0.00    +0.005 C 
ATOM     29  C   UNL     1      -1.792   6.281   0.232  0.00  0.00    +0.009 C 
ATOM     30  C   UNL     1      -3.112   4.570  -1.022  0.00  0.00    +0.009 C 
ENDBRANCH  18  28
ENDBRANCH  17  18
ENDBRANCH  11  17
TORSDOF 6
