REMARK  Name = ZINC13959681
REMARK  14 active torsions:
REMARK  status: ('A' for Active; 'I' for Inactive)
REMARK    1  A    between atoms: C_1  and  C_2
REMARK    2  A    between atoms: C_3  and  C_8
REMARK    3  A    between atoms: N_6  and  C_7
REMARK    4  A    between atoms: C_10  and  C_33
REMARK    5  A    between atoms: C_11  and  C_32
REMARK    6  A    between atoms: C_18  and  C_19
REMARK    7  A    between atoms: C_22  and  O_29
REMARK    8  A    between atoms: C_23  and  O_27
REMARK    9  A    between atoms: C_24  and  O_25
REMARK   10  A    between atoms: O_25  and  C_26
REMARK   11  A    between atoms: O_27  and  C_28
REMARK   12  A    between atoms: O_29  and  C_30
REMARK   13  A    between atoms: C_33  and  O_35
REMARK   14  A    between atoms: O_35  and  C_36
REMARK                            x       y       z     vdW  Elec       q    Type
REMARK                         _______ _______ _______ _____ _____    ______ ____
ROOT
ATOM      1  C   UNL     1      -2.188   2.097   3.873  0.00  0.00    +0.165 C 
ATOM      2  C   UNL     1      -3.094   0.897   4.022  0.00  0.00    +0.085 C 
ATOM      3  C   UNL     1      -4.169   1.002   4.859  0.00  0.00    +0.053 C 
ATOM      4  N   UNL     1      -4.404   2.131   5.517  0.00  0.00    -0.228 NA
ATOM      5  C   UNL     1      -3.666   3.209   5.438  0.00  0.00    +0.178 A 
ATOM      6  N   UNL     1      -2.540   3.315   4.656  0.00  0.00    -0.275 N 
ATOM      7  C   UNL     1      -1.865   4.473   4.655  0.00  0.00    +0.268 A 
ATOM      8  O   UNL     1      -0.862   4.613   3.979  0.00  0.00    -0.266 OA
ATOM      9  C   UNL     1      -2.369   5.566   5.495  0.00  0.00    +0.081 A 
ATOM     10  C   UNL     1      -1.873   6.820   5.669  0.00  0.00    +0.032 C 
ATOM     11  S   UNL     1      -3.808   4.801   6.225  0.00  0.00    -0.046 S 
ATOM     12  C   UNL     1      -5.097  -0.172   5.036  0.00  0.00    +0.066 C 
ENDROOT
BRANCH   1  15
ATOM     13  C   UNL     1      -1.181   1.561   6.785  0.00  0.00    +0.065 C 
ATOM     14  C   UNL     1      -0.360   1.447   5.527  0.00  0.00    +0.041 A 
ATOM     15  C   UNL     1      -0.795   1.679   4.266  0.00  0.00    +0.020 A 
ATOM     16  C   UNL     1       0.275   1.456   3.394  0.00  0.00    +0.140 A 
ATOM     17  N   UNL     1       1.317   1.109   4.105  0.00  0.00    -0.179 NA
ATOM     18  N   UNL     1       0.942   1.099   5.455  0.00  0.00    -0.271 N 
ATOM     19  C   UNL     1       1.809   0.765   6.587  0.00  0.00    +0.172 C 
ENDBRANCH   1  15
BRANCH  10  20
ATOM     20  C   UNL     1      -0.767   7.294   4.833  0.00  0.00    +0.022 A 
ATOM     21  C   UNL     1      -0.791   7.083   3.448  0.00  0.00    +0.015 A 
ATOM     22  C   UNL     1       0.249   7.530   2.666  0.00  0.00    +0.050 A 
ATOM     23  C   UNL     1       1.327   8.192   3.243  0.00  0.00    +0.165 A 
ATOM     24  C   UNL     1       1.364   8.409   4.617  0.00  0.00    +0.204 A 
ATOM     25  C   UNL     1       0.320   7.968   5.416  0.00  0.00    +0.172 A 
BRANCH  25  26
ATOM     26  O   UNL     1       0.350   8.182   6.757  0.00  0.00    -0.491 OA
ATOM     27  C   UNL     1       0.964   7.174   7.562  0.00  0.00    +0.277 C 
ENDBRANCH  25  26
BRANCH  24  28
ATOM     28  O   UNL     1       2.421   9.058   5.176  0.00  0.00    -0.488 OA
ATOM     29  C   UNL     1       2.326  10.480   5.282  0.00  0.00    +0.277 C 
ENDBRANCH  24  28
BRANCH  23  30
ATOM     30  O   UNL     1       2.349   8.630   2.462  0.00  0.00    -0.491 OA
ATOM     31  C   UNL     1       2.249   8.375   1.060  0.00  0.00    +0.277 C 
ENDBRANCH  23  30
ENDBRANCH  10  20
BRANCH   2  32
ATOM     32  C   UNL     1      -2.838  -0.293   3.321  0.00  0.00    +0.339 C 
ATOM     33  O   UNL     1      -3.507  -1.286   3.543  0.00  0.00    -0.245 OA
BRANCH  32  34
ATOM     34  O   UNL     1      -1.849  -0.336   2.402  0.00  0.00    -0.465 OA
ATOM     35  C   UNL     1      -1.718  -1.542   1.647  0.00  0.00    +0.280 C 
ENDBRANCH  32  34
ENDBRANCH   2  32
TORSDOF 7
