REMARK  Name = ZINC10894769
REMARK  11 active torsions:
REMARK  status: ('A' for Active; 'I' for Inactive)
REMARK    1  A    between atoms: C_1  and  C_2
REMARK    2  A    between atoms: C_4  and  C_32
REMARK    3  A    between atoms: C_5  and  C_9
REMARK    4  A    between atoms: C_7  and  C_8
REMARK    5  A    between atoms: C_15  and  C_17
REMARK    6  A    between atoms: C_17  and  C_18
REMARK    7  A    between atoms: C_18  and  N_19
REMARK    8  A    between atoms: N_19  and  S_20
REMARK    9  A    between atoms: S_20  and  C_23
REMARK   10  A    between atoms: C_27  and  C_29
REMARK   11  A    between atoms: C_29  and  C_31
REMARK                            x       y       z     vdW  Elec       q    Type
REMARK                         _______ _______ _______ _____ _____    ______ ____
ROOT
ATOM      1  C   UNL     1       8.391   1.843   0.350  0.00  0.00    +0.080 A 
ATOM      2  C   UNL     1       8.205   3.091  -0.178  0.00  0.00    +0.076 A 
ATOM      3  S   UNL     1       6.479   3.003  -0.637  0.00  0.00    -0.060 S 
ATOM      4  C   UNL     1       6.186   1.328  -0.084  0.00  0.00    +0.165 A 
ATOM      5  N   UNL     1       7.373   0.996   0.388  0.00  0.00    -0.225 NA
ATOM      6  N   UNL     1       5.018   0.578  -0.132  0.00  0.00    -0.265 N 
ATOM      7  C   UNL     1       3.896   1.111  -0.656  0.00  0.00    +0.220 C 
ATOM      8  O   UNL     1       3.907   2.245  -1.085  0.00  0.00    -0.275 OA
ATOM      9  H   UNL     1       5.010  -0.329   0.211  0.00  0.00    +0.157 HD
ENDROOT
BRANCH   1  14
ATOM     10  C   UNL     1      13.540   0.297   2.412  0.00  0.00    +0.044 C 
ATOM     11  C   UNL     1      12.193   0.702   1.872  0.00  0.00    -0.047 A 
ATOM     12  C   UNL     1      11.106  -0.140   2.030  0.00  0.00    +0.007 A 
ATOM     13  C   UNL     1       9.870   0.225   1.538  0.00  0.00    -0.041 A 
ATOM     14  C   UNL     1       9.717   1.445   0.881  0.00  0.00    +0.004 A 
ATOM     15  C   UNL     1      10.816   2.287   0.720  0.00  0.00    +0.014 A 
ATOM     16  C   UNL     1      12.047   1.913   1.221  0.00  0.00    -0.047 A 
ATOM     17  C   UNL     1      13.235   2.825   1.054  0.00  0.00    +0.044 C 
ATOM     18  C   UNL     1       8.688  -0.693   1.710  0.00  0.00    +0.044 C 
ENDBRANCH   1  14
BRANCH   7  19
ATOM     19  C   UNL     1       2.629   0.297  -0.709  0.00  0.00    +0.113 C 
BRANCH  19  20
ATOM     20  C   UNL     1       1.514   1.130  -1.345  0.00  0.00    +0.115 C 
BRANCH  20  21
ATOM     21  N   UNL     1       0.282   0.339  -1.396  0.00  0.00    -0.189 NA
ATOM     22  H   UNL     1       0.316  -0.621  -1.262  0.00  0.00    +0.148 HD
BRANCH  21  23
ATOM     23  S   UNL     1      -1.168   1.083  -1.690  0.00  0.00    +0.058 S 
ATOM     24  O   UNL     1      -2.153   0.059  -1.711  0.00  0.00    -0.153 OA
ATOM     25  O   UNL     1      -1.242   2.193  -0.807  0.00  0.00    -0.153 OA
BRANCH  23  26
ATOM     26  C   UNL     1      -1.093   1.742  -3.323  0.00  0.00    +0.106 A 
ATOM     27  C   UNL     1      -0.630   3.031  -3.526  0.00  0.00    +0.028 A 
ATOM     28  C   UNL     1      -0.562   3.555  -4.805  0.00  0.00    +0.003 A 
ATOM     29  C   UNL     1      -0.967   2.801  -5.886  0.00  0.00    +0.011 A 
ATOM     30  C   UNL     1      -1.441   1.501  -5.688  0.00  0.00    +0.019 A 
ATOM     31  C   UNL     1      -1.501   0.975  -4.393  0.00  0.00    +0.040 A 
BRANCH  30  32
ATOM     32  C   UNL     1      -1.875   0.689  -6.837  0.00  0.00    +0.160 C 
ATOM     33  O   UNL     1      -2.287  -0.438  -6.662  0.00  0.00    -0.292 OA
ATOM     34  C   UNL     1      -1.809   1.259  -8.230  0.00  0.00    +0.091 C 
ENDBRANCH  30  32
ENDBRANCH  23  26
ENDBRANCH  21  23
ENDBRANCH  20  21
ENDBRANCH  19  20
ENDBRANCH   7  19
TORSDOF 7
