REMARK  Name = ZINC13494545
REMARK  16 active torsions:
REMARK  status: ('A' for Active; 'I' for Inactive)
REMARK    1  A    between atoms: C_1  and  C_2
REMARK    2  A    between atoms: C_2  and  C_3
REMARK    3  A    between atoms: C_3  and  C_5
REMARK    4  A    between atoms: C_3  and  N_72
REMARK    5  A    between atoms: N_9  and  C_10
REMARK    6  A    between atoms: C_10  and  C_11
REMARK    7  A    between atoms: C_10  and  C_12
REMARK    8  A    between atoms: C_10  and  C_13
REMARK    9  A    between atoms: C_14  and  C_15
REMARK   10  A    between atoms: C_14  and  N_72
REMARK   11  A    between atoms: C_15  and  C_16
REMARK   12  A    between atoms: C_22  and  C_23
REMARK   13  A    between atoms: C_22  and  N_72
REMARK   14  A    between atoms: C_27  and  O_35
REMARK   15  A    between atoms: O_35  and  C_36
REMARK   16  A    between atoms: C_36  and  C_37
REMARK                            x       y       z     vdW  Elec       q    Type
REMARK                         _______ _______ _______ _____ _____    ______ ____
ROOT
ATOM      1  N   UNL     1      -0.936   1.268  -0.412  0.00  0.00    +0.389 N 
ATOM      2  H   UNL     1      -1.855   0.974  -0.060  0.00  0.00    -0.080 HD
ENDROOT
BRANCH   1   3
ATOM      3  C   UNL     1       0.065   1.099   0.662  0.00  0.00    +0.003 C 
BRANCH   3   4
ATOM      4  C   UNL     1      -0.626   1.259   1.992  0.00  0.00    +0.139 A 
ATOM      5  N   UNL     1      -1.569   2.121   2.285  0.00  0.00    -0.115 NA
ATOM      6  N   UNL     1      -1.902   1.943   3.517  0.00  0.00    -0.023 NA
ATOM      7  N   UNL     1      -1.190   0.995   4.019  0.00  0.00    -0.043 NA
ATOM      8  N   UNL     1      -0.391   0.548   3.110  0.00  0.00    -0.226 N 
BRANCH   8   9
ATOM      9  C   UNL     1       0.587  -0.531   3.266  0.00  0.00    +0.059 C 
ATOM     10  C   UNL     1       1.971  -0.029   2.848  0.00  0.00    +0.036 C 
ATOM     11  C   UNL     1       0.626  -0.976   4.729  0.00  0.00    +0.036 C 
ATOM     12  C   UNL     1       0.186  -1.715   2.384  0.00  0.00    +0.036 C 
ENDBRANCH   8   9
ENDBRANCH   3   4
BRANCH   3  14
ATOM     13  C   UNL     1       1.937   1.925  -0.771  0.00  0.00    +0.002 C 
ATOM     14  C   UNL     1       1.169   2.151   0.532  0.00  0.00    -0.011 C 
ENDBRANCH   3  14
ENDBRANCH   1   3
BRANCH   1  15
ATOM     15  C   UNL     1      -0.575   0.429  -1.574  0.00  0.00    -0.073 C 
BRANCH  15  16
ATOM     16  C   UNL     1      -0.983  -1.016  -1.281  0.00  0.00    +0.016 C 
BRANCH  16  17
ATOM     17  C   UNL     1      -0.541  -1.903  -2.416  0.00  0.00    -0.049 A 
ATOM     18  C   UNL     1      -1.388  -2.131  -3.485  0.00  0.00    +0.003 A 
ATOM     19  C   UNL     1      -0.981  -2.940  -4.529  0.00  0.00    +0.000 A 
ATOM     20  C   UNL     1       0.269  -3.530  -4.500  0.00  0.00    +0.000 A 
ATOM     21  C   UNL     1       1.114  -3.306  -3.428  0.00  0.00    +0.000 A 
ATOM     22  C   UNL     1       0.709  -2.493  -2.387  0.00  0.00    +0.003 A 
ENDBRANCH  16  17
ENDBRANCH  15  16
ENDBRANCH   1  15
BRANCH   1  23
ATOM     23  C   UNL     1      -1.009   2.688  -0.816  0.00  0.00    -0.037 C 
BRANCH  23  24
ATOM     24  C   UNL     1      -1.823   3.439   0.205  0.00  0.00    +0.001 A 
ATOM     25  C   UNL     1      -1.207   4.269   1.083  0.00  0.00    +0.017 A 
ATOM     26  C   UNL     1      -2.026   4.985   2.063  0.00  0.00    +0.002 A 
ATOM     27  C   UNL     1      -1.445   5.855   2.992  0.00  0.00    +0.055 A 
ATOM     28  C   UNL     1      -2.247   6.514   3.901  0.00  0.00    +0.121 A 
ATOM     29  C   UNL     1      -3.626   6.316   3.897  0.00  0.00    +0.047 A 
ATOM     30  C   UNL     1      -4.209   5.463   2.987  0.00  0.00    +0.030 A 
ATOM     31  C   UNL     1      -3.419   4.788   2.061  0.00  0.00    +0.049 A 
ATOM     32  N   UNL     1      -3.985   3.929   1.141  0.00  0.00    -0.322 N 
ATOM     33  H   UNL     1      -4.946   3.794   1.141  0.00  0.00    +0.169 HD
ATOM     34  C   UNL     1      -3.225   3.281   0.242  0.00  0.00    +0.251 A 
ATOM     35  O   UNL     1      -3.759   2.534  -0.560  0.00  0.00    -0.268 OA
BRANCH  28  36
ATOM     36  O   UNL     1      -1.688   7.360   4.807  0.00  0.00    -0.492 OA
BRANCH  36  37
ATOM     37  C   UNL     1      -2.574   8.010   5.720  0.00  0.00    +0.225 C 
ATOM     38  C   UNL     1      -1.769   8.916   6.655  0.00  0.00    +0.048 C 
ENDBRANCH  36  37
ENDBRANCH  28  36
ENDBRANCH  23  24
ENDBRANCH   1  23
TORSDOF 11
