REMARK  Name = ZINC15730723
REMARK  8 active torsions:
REMARK  status: ('A' for Active; 'I' for Inactive)
REMARK    1  A    between atoms: C_1  and  C_2
REMARK    2  A    between atoms: C_9  and  S_15
REMARK    3  A    between atoms: S_15  and  N_18
REMARK    4  A    between atoms: N_18  and  C_19
REMARK    5  A    between atoms: C_21  and  O_27
REMARK    6  A    between atoms: C_24  and  O_25
REMARK    7  A    between atoms: O_25  and  C_26
REMARK    8  A    between atoms: O_27  and  C_28
REMARK                            x       y       z     vdW  Elec       q    Type
REMARK                         _______ _______ _______ _____ _____    ______ ____
ROOT
ATOM      1  S   UNL     1      -4.365   3.044   4.484  0.00  0.00    +0.073 S 
ATOM      2  O   UNL     1      -5.189   3.135   5.638  0.00  0.00    -0.150 OA
ATOM      3  O   UNL     1      -2.948   3.128   4.551  0.00  0.00    -0.150 OA
ENDROOT
BRANCH   1  11
ATOM      4  C   UNL     1     -10.226   8.013   0.577  0.00  0.00    +0.018 C 
ATOM      5  C   UNL     1      -8.822   7.872   1.168  0.00  0.00    +0.082 C 
ATOM      6  C   UNL     1      -7.880   7.432   0.085  0.00  0.00    +0.087 C 
ATOM      7  S   UNL     1      -6.154   7.593   0.519  0.00  0.00    -0.123 S 
ATOM      8  C   UNL     1      -5.754   6.333   1.661  0.00  0.00    +0.029 A 
ATOM      9  C   UNL     1      -4.456   5.809   1.584  0.00  0.00    +0.018 A 
ATOM     10  C   UNL     1      -4.024   4.820   2.435  0.00  0.00    +0.030 A 
ATOM     11  C   UNL     1      -4.893   4.317   3.386  0.00  0.00    +0.110 A 
ATOM     12  C   UNL     1      -6.169   4.820   3.474  0.00  0.00    +0.053 A 
ATOM     13  C   UNL     1      -6.627   5.832   2.615  0.00  0.00    +0.049 A 
ATOM     14  N   UNL     1      -7.920   6.226   2.836  0.00  0.00    -0.284 N 
ATOM     15  C   UNL     1      -8.870   6.910   2.302  0.00  0.00    +0.221 C 
ATOM     16  O   UNL     1      -9.966   6.746   2.795  0.00  0.00    -0.275 OA
ATOM     17  H   UNL     1      -8.224   5.867   3.684  0.00  0.00    +0.155 HD
ENDBRANCH   1  11
BRANCH   1  18
ATOM     18  N   UNL     1      -4.720   1.597   3.762  0.00  0.00    -0.213 N 
ATOM     19  H   UNL     1      -5.325   0.974   4.196  0.00  0.00    +0.174 HD
BRANCH  18  20
ATOM     20  C   UNL     1      -4.149   1.272   2.527  0.00  0.00    +0.093 A 
ATOM     21  C   UNL     1      -2.853   1.670   2.235  0.00  0.00    +0.073 A 
ATOM     22  C   UNL     1      -2.289   1.347   1.010  0.00  0.00    +0.122 A 
ATOM     23  C   UNL     1      -3.022   0.630   0.076  0.00  0.00    +0.049 A 
ATOM     24  C   UNL     1      -4.312   0.227   0.367  0.00  0.00    +0.051 A 
ATOM     25  C   UNL     1      -4.880   0.548   1.588  0.00  0.00    +0.143 A 
BRANCH  25  26
ATOM     26  O   UNL     1      -6.152   0.156   1.872  0.00  0.00    -0.493 OA
ATOM     27  C   UNL     1      -6.843  -0.584   0.863  0.00  0.00    +0.277 C 
ENDBRANCH  25  26
BRANCH  22  28
ATOM     28  O   UNL     1      -1.019   1.737   0.722  0.00  0.00    -0.495 OA
ATOM     29  C   UNL     1      -0.501   1.369  -0.558  0.00  0.00    +0.277 C 
ENDBRANCH  22  28
ENDBRANCH  18  20
ENDBRANCH   1  18
TORSDOF 5
