REMARK  Name = ZINC08593293
REMARK  13 active torsions:
REMARK  status: ('A' for Active; 'I' for Inactive)
REMARK    1  A    between atoms: C_1  and  C_2
REMARK    2  A    between atoms: C_6  and  C_39
REMARK    3  A    between atoms: C_7  and  N_8
REMARK    4  A    between atoms: C_9  and  C_11
REMARK    5  A    between atoms: C_11  and  N_12
REMARK    6  A    between atoms: N_21  and  C_24
REMARK    7  A    between atoms: C_24  and  C_25
REMARK    8  A    between atoms: C_28  and  C_31
REMARK    9  A    between atoms: N_33  and  C_34
REMARK   10  A    between atoms: C_34  and  C_35
REMARK   11  A    between atoms: C_35  and  C_36
REMARK   12  A    between atoms: C_36  and  O_37
REMARK   13  A    between atoms: O_37  and  C_38
REMARK                            x       y       z     vdW  Elec       q    Type
REMARK                         _______ _______ _______ _____ _____    ______ ____
ROOT
ATOM      1  N   UNL     1      -0.618  -0.972   5.966  0.00  0.00    -0.284 N 
ATOM      2  C   UNL     1      -1.913  -1.260   6.372  0.00  0.00    +0.059 A 
ATOM      3  C   UNL     1      -3.011  -0.655   5.780  0.00  0.00    +0.027 A 
ATOM      4  C   UNL     1      -4.283  -0.970   6.214  0.00  0.00    +0.002 A 
ATOM      5  C   UNL     1      -4.474  -1.886   7.238  0.00  0.00    +0.001 A 
ATOM      6  C   UNL     1      -3.394  -2.497   7.838  0.00  0.00    +0.015 A 
ATOM      7  C   UNL     1      -2.105  -2.189   7.409  0.00  0.00    +0.063 A 
ATOM      8  C   UNL     1      -0.916  -2.812   8.016  0.00  0.00    +0.265 A 
ATOM      9  O   UNL     1      -1.027  -3.622   8.917  0.00  0.00    -0.267 OA
ATOM     10  N   UNL     1       0.301  -2.461   7.547  0.00  0.00    -0.256 N 
ATOM     11  C   UNL     1       0.433  -1.573   6.550  0.00  0.00    +0.333 A 
ATOM     12  O   UNL     1       1.552  -1.296   6.161  0.00  0.00    -0.246 OA
ENDROOT
BRANCH   1  13
ATOM     13  C   UNL     1      -0.394  -0.007   4.886  0.00  0.00    +0.222 C 
BRANCH  13  15
ATOM     14  N   UNL     1      -0.198  -0.037   2.420  0.00  0.00    -0.284 N 
ATOM     15  C   UNL     1      -0.388  -0.727   3.562  0.00  0.00    +0.237 C 
ATOM     16  O   UNL     1      -0.555  -1.928   3.524  0.00  0.00    -0.274 OA
ATOM     17  H   UNL     1      -0.117   0.929   2.445  0.00  0.00    +0.155 HD
BRANCH  14  24
ATOM     18  C   UNL     1       1.718  -2.126   2.165  0.00  0.00    +0.045 C 
ATOM     19  C   UNL     1       0.803  -1.741   1.031  0.00  0.00    -0.029 A 
ATOM     20  C   UNL     1       0.875  -2.411  -0.174  0.00  0.00    +0.005 A 
ATOM     21  C   UNL     1       0.037  -2.058  -1.215  0.00  0.00    +0.001 A 
ATOM     22  C   UNL     1      -0.877  -1.033  -1.054  0.00  0.00    +0.005 A 
ATOM     23  C   UNL     1      -0.955  -0.359   0.149  0.00  0.00    -0.029 A 
ATOM     24  C   UNL     1      -0.118  -0.715   1.198  0.00  0.00    +0.039 A 
ATOM     25  C   UNL     1      -1.951   0.759   0.324  0.00  0.00    +0.045 C 
ENDBRANCH  14  24
ENDBRANCH  13  15
ENDBRANCH   1  13
BRANCH  10  26
ATOM     26  C   UNL     1       1.500  -3.066   8.133  0.00  0.00    +0.165 C 
BRANCH  26  27
ATOM     27  C   UNL     1       1.846  -4.325   7.382  0.00  0.00    -0.027 A 
ATOM     28  C   UNL     1       1.312  -5.537   7.784  0.00  0.00    +0.006 A 
ATOM     29  C   UNL     1       1.625  -6.693   7.100  0.00  0.00    +0.013 A 
ATOM     30  C   UNL     1       2.483  -6.640   6.000  0.00  0.00    +0.037 A 
ATOM     31  C   UNL     1       3.018  -5.414   5.600  0.00  0.00    +0.013 A 
ATOM     32  C   UNL     1       2.692  -4.264   6.289  0.00  0.00    +0.006 A 
BRANCH  30  33
ATOM     33  C   UNL     1       2.823  -7.875   5.263  0.00  0.00    +0.244 C 
ATOM     34  O   UNL     1       2.355  -8.941   5.614  0.00  0.00    -0.270 OA
ATOM     35  N   UNL     1       3.652  -7.820   4.202  0.00  0.00    -0.311 N 
ATOM     36  H   UNL     1       4.025  -6.970   3.921  0.00  0.00    +0.149 HD
BRANCH  35  37
ATOM     37  C   UNL     1       3.989  -9.044   3.471  0.00  0.00    +0.107 C 
BRANCH  37  38
ATOM     38  C   UNL     1       4.939  -8.706   2.320  0.00  0.00    +0.047 C 
BRANCH  38  39
ATOM     39  C   UNL     1       5.291  -9.985   1.557  0.00  0.00    +0.161 C 
BRANCH  39  40
ATOM     40  O   UNL     1       6.178  -9.669   0.482  0.00  0.00    -0.383 OA
ATOM     41  C   UNL     1       6.571 -10.800  -0.298  0.00  0.00    +0.193 C 
ENDBRANCH  39  40
ENDBRANCH  38  39
ENDBRANCH  37  38
ENDBRANCH  35  37
ENDBRANCH  30  33
ENDBRANCH  26  27
ENDBRANCH  10  26
TORSDOF 10
