REMARK  Name = ZINC45920486
REMARK  3 active torsions:
REMARK  status: ('A' for Active; 'I' for Inactive)
REMARK    1  A    between atoms: C_8  and  C_10
REMARK    2  A    between atoms: C_13  and  N_17
REMARK    3  A    between atoms: C_15  and  O_16
REMARK                            x       y       z     vdW  Elec       q    Type
REMARK                         _______ _______ _______ _____ _____    ______ ____
ROOT
ATOM      1  C   UNL     1       2.984  -4.020  -0.047  0.00  0.00    +0.049 A 
ATOM      2  C   UNL     1       1.989  -5.000  -0.048  0.00  0.00    +0.016 A 
ATOM      3  C   UNL     1       2.336  -6.333  -0.059  0.00  0.00    +0.027 A 
ATOM      4  C   UNL     1       3.675  -6.707  -0.068  0.00  0.00    +0.052 A 
ATOM      5  C   UNL     1       4.671  -5.741  -0.067  0.00  0.00    +0.072 A 
ATOM      6  C   UNL     1       4.333  -4.398  -0.062  0.00  0.00    +0.128 A 
ENDROOT
BRANCH   1  14
ATOM      7  C   UNL     1      -0.016   1.355   0.009  0.00  0.00    +0.002 A 
ATOM      8  C   UNL     1       1.155   2.100   0.002  0.00  0.00    +0.001 A 
ATOM      9  C   UNL     1       2.373   1.447  -0.013  0.00  0.00    +0.017 A 
ATOM     10  C   UNL     1       2.403   0.074  -0.021  0.00  0.00    +0.040 A 
ATOM     11  C   UNL     1       1.227  -0.713  -0.013  0.00  0.00    +0.079 A 
ATOM     12  C   UNL     1       0.002  -0.004   0.002  0.00  0.00    +0.029 A 
ATOM     13  N   UNL     1       1.417  -2.047  -0.022  0.00  0.00    -0.239 NA
ATOM     14  C   UNL     1       2.615  -2.591  -0.037  0.00  0.00    +0.113 A 
ATOM     15  S   UNL     1       3.683  -1.157  -0.039  0.00  0.00    -0.067 S 
ENDBRANCH   1  14
BRANCH   4  16
ATOM     16  N   UNL     1       4.020  -8.065  -0.078  0.00  0.00    -0.288 N 
ATOM     17  C   UNL     1       5.277  -8.594  -0.081  0.00  0.00    +0.229 A 
ATOM     18  N   UNL     1       5.148  -9.893  -0.091  0.00  0.00    -0.138 NA
ATOM     19  N   UNL     1       3.902 -10.210  -0.094  0.00  0.00    -0.138 NA
ATOM     20  C   UNL     1       3.169  -9.130  -0.080  0.00  0.00    +0.229 A 
ENDBRANCH   4  16
BRANCH   6  21
ATOM     21  O   UNL     1       5.305  -3.451  -0.067  0.00  0.00    -0.506 OA
ATOM     22  H   UNL     1       5.596  -3.181   0.815  0.00  0.00    +0.292 HD
ENDBRANCH   6  21
TORSDOF 3
