REMARK  Name = ZINC12285341
REMARK  14 active torsions:
REMARK  status: ('A' for Active; 'I' for Inactive)
REMARK    1  A    between atoms: C_1  and  C_2
REMARK    2  A    between atoms: C_2  and  C_3
REMARK    3  A    between atoms: C_3  and  C_4
REMARK    4  A    between atoms: C_4  and  C_5
REMARK    5  A    between atoms: C_11  and  C_12
REMARK    6  A    between atoms: C_15  and  O_21
REMARK    7  A    between atoms: C_16  and  O_18
REMARK    8  A    between atoms: O_18  and  C_19
REMARK    9  A    between atoms: C_19  and  C_20
REMARK   10  A    between atoms: O_21  and  C_22
REMARK   11  A    between atoms: C_22  and  C_23
REMARK   12  A    between atoms: C_23  and  O_24
REMARK   13  A    between atoms: O_24  and  C_25
REMARK   14  A    between atoms: C_29  and  C_31
REMARK                            x       y       z     vdW  Elec       q    Type
REMARK                         _______ _______ _______ _____ _____    ______ ____
ROOT
ATOM      1  C   UNL     1       3.579  -2.785  -9.293  0.00  0.00    -0.021 A 
ATOM      2  C   UNL     1       3.671  -4.183  -9.230  0.00  0.00    +0.012 A 
ATOM      3  C   UNL     1       3.851  -4.912 -10.384  0.00  0.00    +0.050 A 
ATOM      4  C   UNL     1       3.942  -4.267 -11.611  0.00  0.00    +0.162 A 
ATOM      5  C   UNL     1       3.851  -2.877 -11.683  0.00  0.00    +0.162 A 
ATOM      6  C   UNL     1       3.665  -2.136 -10.534  0.00  0.00    +0.057 A 
ENDROOT
BRANCH   1  13
ATOM      7  C   UNL     1       3.367  -3.299  -2.297  0.00  0.00    +0.100 C 
ATOM      8  N   UNL     1       3.158  -2.470  -3.279  0.00  0.00    -0.169 NA
ATOM      9  N   UNL     1       3.780  -2.633  -4.498  0.00  0.00    -0.152 N 
ATOM     10  C   UNL     1       3.694  -1.748  -5.594  0.00  0.00    +0.152 C 
ATOM     11  N   UNL     1       3.371  -0.488  -5.476  0.00  0.00    -0.283 NA
ATOM     12  C   UNL     1       4.006  -2.394  -6.901  0.00  0.00    +0.081 C 
ATOM     13  C   UNL     1       3.387  -2.005  -8.068  0.00  0.00    +0.024 C 
ATOM     14  C   UNL     1       5.018  -3.479  -6.876  0.00  0.00    +0.273 C 
ATOM     15  O   UNL     1       5.668  -3.754  -7.872  0.00  0.00    -0.268 OA
ATOM     16  N   UNL     1       5.199  -4.151  -5.723  0.00  0.00    -0.152 NA
ATOM     17  C   UNL     1       4.580  -3.747  -4.642  0.00  0.00    +0.181 C 
ATOM     18  S   UNL     1       4.522  -4.457  -3.018  0.00  0.00    -0.038 S 
ATOM     19  H   UNL     1       3.178  -0.117  -4.600  0.00  0.00    +0.188 HD
BRANCH   7  20
ATOM     20  C   UNL     1       2.789  -3.281  -0.905  0.00  0.00    +0.064 C 
BRANCH  20  21
ATOM     21  C   UNL     1       1.843  -2.088  -0.760  0.00  0.00    +0.006 C 
BRANCH  21  23
ATOM     22  C   UNL     1       0.311  -0.876   0.797  0.00  0.00    +0.004 C 
ATOM     23  C   UNL     1       1.257  -2.070   0.652  0.00  0.00    -0.003 C 
ENDBRANCH  21  23
ENDBRANCH  20  21
ENDBRANCH   7  20
ENDBRANCH   1  13
BRANCH   5  24
ATOM     24  O   UNL     1       3.941  -2.251 -12.887  0.00  0.00    -0.489 OA
BRANCH  24  25
ATOM     25  C   UNL     1       3.840  -0.825 -12.887  0.00  0.00    +0.226 C 
ATOM     26  C   UNL     1       3.963  -0.305 -14.320  0.00  0.00    +0.048 C 
ENDBRANCH  24  25
ENDBRANCH   5  24
BRANCH   4  27
ATOM     27  O   UNL     1       4.120  -4.993 -12.745  0.00  0.00    -0.485 OA
BRANCH  27  28
ATOM     28  C   UNL     1       4.205  -6.412 -12.600  0.00  0.00    +0.270 C 
BRANCH  28  29
ATOM     29  C   UNL     1       4.404  -7.053 -13.975  0.00  0.00    +0.270 C 
BRANCH  29  30
ATOM     30  O   UNL     1       5.667  -6.652 -14.510  0.00  0.00    -0.489 OA
BRANCH  30  31
ATOM     31  C   UNL     1       6.001  -7.137 -15.734  0.00  0.00    +0.121 A 
ATOM     32  C   UNL     1       5.129  -7.979 -16.410  0.00  0.00    +0.045 A 
ATOM     33  C   UNL     1       5.470  -8.471 -17.654  0.00  0.00    +0.004 A 
ATOM     34  C   UNL     1       6.681  -8.125 -18.227  0.00  0.00    +0.003 A 
ATOM     35  C   UNL     1       7.552  -7.287 -17.556  0.00  0.00    -0.047 A 
ATOM     36  C   UNL     1       7.212  -6.788 -16.313  0.00  0.00    +0.049 A 
ATOM     37  C   UNL     1       8.870  -6.913 -18.183  0.00  0.00    +0.044 C 
ENDBRANCH  30  31
ENDBRANCH  29  30
ENDBRANCH  28  29
ENDBRANCH  27  28
ENDBRANCH   4  27
TORSDOF 11
