REMARK  Name = ZINC09120698
REMARK  9 active torsions:
REMARK  status: ('A' for Active; 'I' for Inactive)
REMARK    1  A    between atoms: C_1  and  C_2
REMARK    2  A    between atoms: C_8  and  N_10
REMARK    3  A    between atoms: C_11  and  C_13
REMARK    4  A    between atoms: C_13  and  C_31
REMARK    5  A    between atoms: C_14  and  C_15
REMARK    6  A    between atoms: C_18  and  S_24
REMARK    7  A    between atoms: C_19  and  N_21
REMARK    8  A    between atoms: S_24  and  C_25
REMARK    9  A    between atoms: N_29  and  C_30
REMARK                            x       y       z     vdW  Elec       q    Type
REMARK                         _______ _______ _______ _____ _____    ______ ____
ROOT
ATOM      1  C   UNL     1      -1.519   7.984   0.055  0.00  0.00    -0.021 A 
ATOM      2  C   UNL     1      -1.968   6.881  -0.689  0.00  0.00    +0.009 A 
ATOM      3  C   UNL     1      -1.093   5.896  -1.040  0.00  0.00    +0.018 A 
ATOM      4  C   UNL     1       0.247   5.982  -0.662  0.00  0.00    +0.046 A 
ATOM      5  C   UNL     1       0.697   7.072   0.082  0.00  0.00    +0.140 A 
ATOM      6  C   UNL     1      -0.170   8.066   0.434  0.00  0.00    +0.041 A 
ENDROOT
BRANCH   5   7
ATOM      7  N   UNL     1       2.119   7.154   0.486  0.00  0.00    +0.058 N 
ATOM      8  O   UNL     1       2.513   8.105   1.136  0.00  0.00    -0.126 OA
ATOM      9  O   UNL     1       2.894   6.270   0.169  0.00  0.00    -0.126 OA
ENDBRANCH   5   7
BRANCH   1  11
ATOM     10  C   UNL     1      -3.776   8.742   0.678  0.00  0.00    +0.114 C 
ATOM     11  C   UNL     1      -2.453   9.043   0.434  0.00  0.00    +0.032 C 
BRANCH  10  13
ATOM     12  N   UNL     1      -6.044   9.528   1.128  0.00  0.00    -0.308 N 
ATOM     13  C   UNL     1      -4.750   9.823   0.891  0.00  0.00    +0.255 C 
ATOM     14  O   UNL     1      -4.388  10.984   0.852  0.00  0.00    -0.269 OA
ATOM     15  H   UNL     1      -6.332   8.602   1.159  0.00  0.00    +0.149 HD
BRANCH  12  22
ATOM     16  C   UNL     1      -8.435   9.687  -0.497  0.00  0.00    +0.009 C 
ATOM     17  C   UNL     1      -8.414  10.110   0.973  0.00  0.00    +0.006 C 
ATOM     18  C   UNL     1      -9.427  11.235   1.194  0.00  0.00    +0.005 C 
ATOM     19  C   UNL     1      -9.406  11.658   2.664  0.00  0.00    +0.000 C 
ATOM     20  C   UNL     1      -8.005  12.153   3.032  0.00  0.00    +0.002 C 
ATOM     21  C   UNL     1      -6.992  11.028   2.811  0.00  0.00    +0.022 C 
ATOM     22  C   UNL     1      -7.014  10.605   1.341  0.00  0.00    +0.076 C 
ENDBRANCH  12  22
ENDBRANCH  10  13
BRANCH  10  23
ATOM     23  C   UNL     1      -4.202   7.375   0.723  0.00  0.00    +0.104 C 
ATOM     24  N   UNL     1      -4.540   6.291   0.759  0.00  0.00    -0.191 NA
ENDBRANCH  10  23
ENDBRANCH   1  11
BRANCH   4  25
ATOM     25  S   UNL     1       1.372   4.706  -1.119  0.00  0.00    -0.049 S 
BRANCH  25  26
ATOM     26  C   UNL     1       2.191   5.489  -2.468  0.00  0.00    +0.173 A 
ATOM     27  N   UNL     1       1.882   6.657  -2.981  0.00  0.00    -0.230 NA
ATOM     28  C   UNL     1       2.721   6.935  -3.991  0.00  0.00    +0.131 A 
ATOM     29  C   UNL     1       3.579   5.908  -4.123  0.00  0.00    +0.107 A 
ATOM     30  N   UNL     1       3.252   4.985  -3.157  0.00  0.00    -0.328 N 
ATOM     31  C   UNL     1       3.918   3.703  -2.915  0.00  0.00    +0.151 C 
ENDBRANCH  25  26
ENDBRANCH   4  25
TORSDOF 7
