REMARK  Name = ZINC19568421
REMARK  5 active torsions:
REMARK  status: ('A' for Active; 'I' for Inactive)
REMARK    1  A    between atoms: C_1  and  O_2
REMARK    2  A    between atoms: O_2  and  C_3
REMARK    3  A    between atoms: C_10  and  C_13
REMARK    4  A    between atoms: C_13  and  N_14
REMARK    5  A    between atoms: C_17  and  C_20
REMARK                            x       y       z     vdW  Elec       q    Type
REMARK                         _______ _______ _______ _____ _____    ______ ____
ROOT
ATOM      1  N   UNL     1      -5.166   0.328   1.436  0.00  0.00    +0.383 N 
ATOM      2  C   UNL     1      -5.447  -0.879   2.223  0.00  0.00    -0.078 C 
ATOM      3  C   UNL     1      -5.662  -0.496   3.689  0.00  0.00    -0.012 C 
ATOM      4  C   UNL     1      -6.834   0.485   3.787  0.00  0.00    +0.022 C 
ATOM      5  C   UNL     1      -6.537   1.712   2.920  0.00  0.00    -0.012 C 
ATOM      6  C   UNL     1      -6.297   1.264   1.477  0.00  0.00    -0.078 C 
ATOM      7  H   UNL     1      -4.299   0.830   1.890  0.00  0.00    -0.081 HD
ENDROOT
BRANCH   4   8
ATOM      8  C   UNL     1      -7.018   0.920   5.243  0.00  0.00    +0.162 C 
ATOM      9  N   UNL     1      -8.143   1.846   5.340  0.00  0.00    -0.326 N 
ATOM     10  C   UNL     1      -9.469   1.460   5.159  0.00  0.00    +0.055 A 
ATOM     11  C   UNL     1     -10.413   2.434   4.835  0.00  0.00    +0.025 A 
ATOM     12  C   UNL     1     -11.740   2.090   4.684  0.00  0.00    +0.002 A 
ATOM     13  C   UNL     1     -12.144   0.778   4.851  0.00  0.00    +0.002 A 
ATOM     14  C   UNL     1     -11.212  -0.195   5.164  0.00  0.00    +0.030 A 
ATOM     15  C   UNL     1      -9.883   0.144   5.313  0.00  0.00    +0.126 A 
ATOM     16  S   UNL     1      -8.694  -1.104   5.702  0.00  0.00    +0.062 S 
ATOM     17  O   UNL     1      -8.434  -1.818   4.502  0.00  0.00    -0.153 OA
ATOM     18  O   UNL     1      -9.133  -1.738   6.896  0.00  0.00    -0.153 OA
ATOM     19  N   UNL     1      -7.304  -0.263   6.081  0.00  0.00    -0.170 NA
ATOM     20  H   UNL     1      -7.964   2.907   5.566  0.00  0.00    +0.148 HD
ATOM     21  H   UNL     1      -6.544  -0.636   6.783  0.00  0.00    +0.150 HD
ENDBRANCH   4   8
BRANCH   1  22
ATOM     22  C   UNL     1      -4.817  -0.016   0.051  0.00  0.00    -0.022 C 
BRANCH  22  30
ATOM     23  C   UNL     1       0.002  -0.004   0.002  0.00  0.00    +0.146 A 
ATOM     24  C   UNL     1       1.192  -0.675  -0.013  0.00  0.00    +0.048 A 
ATOM     25  C   UNL     1       1.231  -2.066  -0.020  0.00  0.00    +0.004 A 
ATOM     26  C   UNL     1       0.083  -2.799  -0.012  0.00  0.00    +0.010 A 
ATOM     27  C   UNL     1      -1.160  -2.145   0.003  0.00  0.00    +0.004 A 
ATOM     28  C   UNL     1      -1.207  -0.730   0.016  0.00  0.00    +0.113 A 
ATOM     29  N   UNL     1      -2.387  -0.103   0.025  0.00  0.00    -0.250 NA
ATOM     30  C   UNL     1      -3.514  -0.773   0.034  0.00  0.00    +0.026 A 
ATOM     31  C   UNL     1      -3.539  -2.166   0.027  0.00  0.00    +0.022 A 
ATOM     32  C   UNL     1      -2.368  -2.868   0.012  0.00  0.00    +0.012 A 
BRANCH  23  34
ATOM     33  C   UNL     1       1.248   2.020   0.001  0.00  0.00    +0.277 C 
ATOM     34  O   UNL     1      -0.016   1.354   0.009  0.00  0.00    -0.493 OA
ENDBRANCH  23  34
ENDBRANCH  22  30
ENDBRANCH   1  22
TORSDOF 4
