REMARK  Name = ZINC10214428
REMARK  5 active torsions:
REMARK  status: ('A' for Active; 'I' for Inactive)
REMARK    1  A    between atoms: C_1  and  C_2
REMARK    2  A    between atoms: C_2  and  O_3
REMARK    3  A    between atoms: O_3  and  C_4
REMARK    4  A    between atoms: C_16  and  N_58
REMARK    5  A    between atoms: C_21  and  C_23
REMARK                            x       y       z     vdW  Elec       q    Type
REMARK                         _______ _______ _______ _____ _____    ______ ____
ROOT
ATOM      1  C   UNL     1      -1.220   1.750   0.017  0.00  0.00    +0.162 A 
ATOM      2  C   UNL     1      -0.013   1.076   0.008  0.00  0.00    +0.049 A 
ATOM      3  C   UNL     1       1.176   1.782   0.000  0.00  0.00    +0.004 A 
ATOM      4  C   UNL     1       1.152   3.164   0.000  0.00  0.00    +0.009 A 
ATOM      5  C   UNL     1      -0.053   3.844   0.008  0.00  0.00    +0.020 A 
ATOM      6  C   UNL     1      -1.251   3.148   0.032  0.00  0.00    +0.170 A 
ATOM      7  O   UNL     1      -2.471   3.744   0.079  0.00  0.00    -0.463 OA
ATOM      8  C   UNL     1      -2.597   5.144  -0.174  0.00  0.00    +0.190 C 
ATOM      9  C   UNL     1      -3.847   5.690   0.516  0.00  0.00    +0.052 C 
ATOM     10  C   UNL     1      -3.989   7.181   0.200  0.00  0.00    -0.074 C 
ATOM     11  C   UNL     1      -2.862   6.901  -1.927  0.00  0.00    -0.074 C 
ATOM     12  C   UNL     1      -2.683   5.401  -1.677  0.00  0.00    +0.052 C 
ATOM     13  C   UNL     1      -4.361   8.771  -1.587  0.00  0.00    -0.096 C 
ATOM     14  N   UNL     1      -1.401   5.786   0.377  0.00  0.00    -0.207 N 
ATOM     15  C   UNL     1      -0.048   5.349  -0.037  0.00  0.00    +0.136 C 
ATOM     16  C   UNL     1       0.851   5.954   1.051  0.00  0.00    +0.086 C 
ATOM     17  C   UNL     1      -0.069   6.911   1.782  0.00  0.00    +0.069 C 
ATOM     18  N   UNL     1      -1.276   6.771   1.341  0.00  0.00    -0.185 NA
ATOM     19  N   UNL     1      -4.104   7.352  -1.264  0.00  0.00    +0.378 N 
ATOM     20  H   UNL     1      -4.888   6.785  -1.605  0.00  0.00    -0.082 HD
ENDROOT
BRANCH  17  21
ATOM     21  C   UNL     1       0.349   7.856   2.835  0.00  0.00    +0.001 A 
ATOM     22  C   UNL     1       1.688   7.917   3.230  0.00  0.00    +0.013 A 
ATOM     23  C   UNL     1       2.076   8.802   4.214  0.00  0.00    +0.050 A 
ATOM     24  C   UNL     1       1.141   9.633   4.814  0.00  0.00    +0.166 A 
ATOM     25  C   UNL     1      -0.196   9.577   4.424  0.00  0.00    +0.167 A 
ATOM     26  C   UNL     1      -0.591   8.696   3.435  0.00  0.00    +0.059 A 
ATOM     27  O   UNL     1      -0.903  10.485   5.159  0.00  0.00    -0.453 OA
ATOM     28  C   UNL     1       0.080  11.382   5.709  0.00  0.00    +0.466 C 
ATOM     29  O   UNL     1       1.270  10.577   5.792  0.00  0.00    -0.453 OA
ENDBRANCH  17  21
BRANCH   1  30
ATOM     30  O   UNL     1      -2.385   1.048   0.018  0.00  0.00    -0.489 OA
BRANCH  30  32
ATOM     31  C   UNL     1      -3.686  -0.989   0.010  0.00  0.00    +0.048 C 
ATOM     32  C   UNL     1      -2.283  -0.378   0.008  0.00  0.00    +0.226 C 
ENDBRANCH  30  32
ENDBRANCH   1  30
TORSDOF 3
