REMARK  Name = ZINC50566447
REMARK  4 active torsions:
REMARK  status: ('A' for Active; 'I' for Inactive)
REMARK    1  A    between atoms: C_1  and  C_2
REMARK    2  A    between atoms: N_7  and  C_11
REMARK    3  A    between atoms: C_8  and  C_10
REMARK    4  A    between atoms: C_11  and  C_12
REMARK                            x       y       z     vdW  Elec       q    Type
REMARK                         _______ _______ _______ _____ _____    ______ ____
ROOT
ATOM      1  C   UNL     1      -0.019   1.526   0.010  0.00  0.00    +0.006 C 
ATOM      2  C   UNL     1       0.002  -0.004   0.002  0.00  0.00    -0.028 C 
ATOM      3  C   UNL     1      -1.434  -0.535   0.015  0.00  0.00    -0.000 C 
ATOM      4  C   UNL     1      -2.117  -0.099   1.315  0.00  0.00    -0.018 C 
ATOM      5  C   UNL     1      -1.302  -0.604   2.507  0.00  0.00    -0.078 C 
ATOM      6  N   UNL     1       0.052  -0.040   2.452  0.00  0.00    +0.382 N 
ATOM      7  C   UNL     1       0.740  -0.512   1.242  0.00  0.00    -0.069 C 
ATOM      8  C   UNL     1       2.176   0.016   1.233  0.00  0.00    -0.013 C 
ATOM      9  H   UNL     1      -0.004   0.967   2.434  0.00  0.00    -0.081 HD
ENDROOT
BRANCH   6  10
ATOM     10  C   UNL     1       0.807  -0.464   3.639  0.00  0.00    -0.067 C 
BRANCH  10  11
ATOM     11  C   UNL     1       0.168   0.139   4.891  0.00  0.00    +0.061 C 
ATOM     12 BR   UNL     1       1.177  -0.429   6.480  0.00  0.00    -0.094 Br
ENDBRANCH  10  11
ENDBRANCH   6  10
TORSDOF 2
