REMARK  Name = ZINC63907375
REMARK  6 active torsions:
REMARK  status: ('A' for Active; 'I' for Inactive)
REMARK    1  A    between atoms: C_1  and  C_2
REMARK    2  A    between atoms: C_2  and  C_4
REMARK    3  A    between atoms: C_2  and  N_13
REMARK    4  A    between atoms: N_6  and  C_7
REMARK    5  A    between atoms: C_16  and  C_21
REMARK    6  A    between atoms: C_21  and  C_22
REMARK                            x       y       z     vdW  Elec       q    Type
REMARK                         _______ _______ _______ _____ _____    ______ ____
ROOT
ATOM      1  N   UNL     1       0.688  -0.476  -1.203  0.00  0.00    -0.213 N 
ATOM      2  C   UNL     1       1.796  -1.244  -1.192  0.00  0.00    +0.244 C 
ATOM      3  O   UNL     1       2.390  -1.658  -0.220  0.00  0.00    -0.273 OA
ATOM      4  C   UNL     1       2.143  -1.483  -2.648  0.00  0.00    +0.165 C 
ATOM      5  N   UNL     1       1.092  -0.754  -3.379  0.00  0.00    -0.287 N 
ATOM      6  C   UNL     1       0.288  -0.204  -2.451  0.00  0.00    +0.310 C 
ATOM      7  O   UNL     1      -0.689   0.467  -2.716  0.00  0.00    -0.252 OA
ATOM      8  H   UNL     1       0.996  -0.685  -4.342  0.00  0.00    +0.151 HD
ENDROOT
BRANCH   1  10
ATOM      9  C   UNL     1      -0.019   1.526   0.010  0.00  0.00    +0.038 C 
ATOM     10  C   UNL     1       0.002  -0.004   0.002  0.00  0.00    +0.168 C 
BRANCH  10  11
ATOM     11  C   UNL     1      -1.412  -0.526   0.013  0.00  0.00    +0.234 C 
ATOM     12  O   UNL     1      -1.808  -1.223  -0.897  0.00  0.00    -0.274 OA
ATOM     13  N   UNL     1      -2.236  -0.217   1.033  0.00  0.00    -0.311 N 
ATOM     14  H   UNL     1      -1.920   0.341   1.761  0.00  0.00    +0.149 HD
BRANCH  13  15
ATOM     15  C   UNL     1      -3.611  -0.724   1.044  0.00  0.00    +0.073 C 
ATOM     16  C   UNL     1      -4.506   0.212   0.230  0.00  0.00    +0.022 C 
ATOM     17  C   UNL     1      -5.941  -0.317   0.240  0.00  0.00    +0.002 C 
ATOM     18  C   UNL     1      -6.450  -0.383   1.682  0.00  0.00    +0.000 C 
ATOM     19  C   UNL     1      -5.554  -1.320   2.496  0.00  0.00    +0.002 C 
ATOM     20  C   UNL     1      -4.119  -0.790   2.485  0.00  0.00    +0.022 C 
ENDBRANCH  13  15
ENDBRANCH  10  11
ENDBRANCH   1  10
BRANCH   4  21
ATOM     21  C   UNL     1       3.525  -0.911  -2.973  0.00  0.00    +0.065 C 
BRANCH  21  22
ATOM     22  C   UNL     1       3.896  -1.268  -4.389  0.00  0.00    -0.039 C 
ATOM     23  C   UNL     1       3.725  -0.505  -5.492  0.00  0.00    -0.001 A 
ATOM     24  C   UNL     1       3.162   0.836  -5.696  0.00  0.00    +0.010 A 
ATOM     25  C   UNL     1       3.124   1.347  -6.947  0.00  0.00    +0.001 A 
ATOM     26  C   UNL     1       3.607   0.632  -8.052  0.00  0.00    +0.002 A 
ATOM     27  C   UNL     1       4.139  -0.605  -7.944  0.00  0.00    +0.026 A 
ATOM     28  C   UNL     1       4.229  -1.240  -6.674  0.00  0.00    +0.043 A 
ATOM     29  N   UNL     1       4.693  -2.412  -6.316  0.00  0.00    -0.380 N 
ATOM     30  C   UNL     1       4.542  -2.551  -4.863  0.00  0.00    +0.144 C 
ATOM     31  H   UNL     1       5.077  -3.075  -6.911  0.00  0.00    +0.160 HD
ENDBRANCH  21  22
ENDBRANCH   4  21
TORSDOF 5
