REMARK  Name = ZINC25424552
REMARK  13 active torsions:
REMARK  status: ('A' for Active; 'I' for Inactive)
REMARK    1  A    between atoms: C_1  and  C_2
REMARK    2  A    between atoms: C_2  and  N_33
REMARK    3  A    between atoms: C_3  and  C_4
REMARK    4  A    between atoms: C_3  and  C_6
REMARK    5  A    between atoms: C_6  and  C_8
REMARK    6  A    between atoms: C_8  and  S_9
REMARK    7  A    between atoms: S_9  and  C_10
REMARK    8  A    between atoms: C_13  and  C_24
REMARK    9  A    between atoms: N_14  and  C_15
REMARK   10  A    between atoms: C_18  and  O_22
REMARK   11  A    between atoms: O_22  and  C_23
REMARK   12  A    between atoms: C_29  and  O_30
REMARK   13  A    between atoms: O_30  and  C_31
REMARK                            x       y       z     vdW  Elec       q    Type
REMARK                         _______ _______ _______ _____ _____    ______ ____
ROOT
ATOM      1  C   UNL     1       0.651  -0.567   6.529  0.00  0.00    +0.197 A 
ATOM      2  N   UNL     1       0.695  -1.880   6.512  0.00  0.00    -0.122 NA
ATOM      3  N   UNL     1       0.905  -2.331   7.697  0.00  0.00    -0.128 NA
ATOM      4  C   UNL     1       1.010  -1.334   8.545  0.00  0.00    +0.173 A 
ATOM      5  N   UNL     1       0.856  -0.171   7.822  0.00  0.00    -0.270 N 
ENDROOT
BRANCH   5   6
ATOM      6  C   UNL     1       0.898   1.143   8.311  0.00  0.00    +0.052 A 
ATOM      7  C   UNL     1       2.085   1.661   8.811  0.00  0.00    +0.030 A 
ATOM      8  C   UNL     1       2.126   2.955   9.291  0.00  0.00    +0.049 A 
ATOM      9  C   UNL     1       0.981   3.738   9.275  0.00  0.00    +0.138 A 
ATOM     10  C   UNL     1      -0.206   3.221   8.775  0.00  0.00    +0.084 A 
ATOM     11  C   UNL     1      -0.247   1.929   8.289  0.00  0.00    +0.050 A 
ATOM     12 CL   UNL     1      -1.639   4.202   8.755  0.00  0.00    -0.080 Cl
BRANCH   9  13
ATOM     13  O   UNL     1       1.022   5.012   9.748  0.00  0.00    -0.494 OA
ATOM     14  C   UNL     1       2.277   5.478  10.248  0.00  0.00    +0.277 C 
ENDBRANCH   9  13
ENDBRANCH   5   6
BRANCH   4  15
ATOM     15  C   UNL     1       1.251  -1.439   9.999  0.00  0.00    +0.063 A 
ATOM     16  C   UNL     1       0.447  -0.734  10.896  0.00  0.00    +0.035 A 
ATOM     17  C   UNL     1       0.678  -0.837  12.254  0.00  0.00    +0.042 A 
ATOM     18  C   UNL     1       1.705  -1.636  12.728  0.00  0.00    +0.023 A 
ATOM     19  C   UNL     1       2.507  -2.338  11.848  0.00  0.00    +0.048 A 
ATOM     20  C   UNL     1       2.284  -2.250  10.484  0.00  0.00    +0.131 A 
ATOM     21 CL   UNL     1      -0.322   0.040  13.369  0.00  0.00    -0.084 Cl
BRANCH  20  22
ATOM     22  O   UNL     1       3.069  -2.944   9.619  0.00  0.00    -0.494 OA
ATOM     23  C   UNL     1       4.103  -3.751  10.186  0.00  0.00    +0.277 C 
ENDBRANCH  20  22
ENDBRANCH   4  15
BRANCH   1  24
ATOM     24  S   UNL     1       0.387   0.487   5.142  0.00  0.00    -0.078 S 
BRANCH  24  25
ATOM     25  C   UNL     1       0.189  -0.659   3.750  0.00  0.00    +0.157 C 
BRANCH  25  26
ATOM     26  C   UNL     1      -0.047   0.124   2.484  0.00  0.00    +0.185 C 
ATOM     27  O   UNL     1      -0.079   1.337   2.518  0.00  0.00    -0.290 OA
BRANCH  26  30
ATOM     28  C   UNL     1      -0.908   1.619   0.216  0.00  0.00    +0.061 C 
ATOM     29  C   UNL     1      -0.575   0.153   0.118  0.00  0.00    +0.019 C 
ATOM     30  C   UNL     1      -0.232  -0.556   1.256  0.00  0.00    +0.111 C 
BRANCH  29  31
ATOM     31  N   UNL     1      -0.611  -0.469  -1.078  0.00  0.00    -0.360 N 
ATOM     32  H   UNL     1      -0.852   0.028  -1.876  0.00  0.00    +0.142 HD
ATOM     33  H   UNL     1      -0.397  -1.413  -1.141  0.00  0.00    +0.142 HD
ENDBRANCH  29  31
BRANCH  30  34
ATOM     34  C   UNL     1      -0.065  -1.976   1.191  0.00  0.00    +0.104 C 
ATOM     35  N   UNL     1       0.068  -3.103   1.140  0.00  0.00    -0.191 NA
ENDBRANCH  30  34
ENDBRANCH  26  30
ENDBRANCH  25  26
ENDBRANCH  24  25
ENDBRANCH   1  24
TORSDOF 10
