REMARK  Name = ZINC11911214
REMARK  7 active torsions:
REMARK  status: ('A' for Active; 'I' for Inactive)
REMARK    1  A    between atoms: C_1  and  N_2
REMARK    2  A    between atoms: C_3  and  C_7
REMARK    3  A    between atoms: N_9  and  C_10
REMARK    4  A    between atoms: C_10  and  C_11
REMARK    5  A    between atoms: C_21  and  C_22
REMARK    6  A    between atoms: C_21  and  N_62
REMARK    7  A    between atoms: C_31  and  O_32
REMARK                            x       y       z     vdW  Elec       q    Type
REMARK                         _______ _______ _______ _____ _____    ______ ____
ROOT
ATOM      1  C   UNL     1      -3.842   3.361  -5.915  0.00  0.00    +0.136 C 
ATOM      2  C   UNL     1      -3.965   4.881  -6.162  0.00  0.00    +0.036 C 
ATOM      3  C   UNL     1      -2.761   5.484  -5.402  0.00  0.00    +0.037 C 
ATOM      4  C   UNL     1      -2.064   4.259  -4.782  0.00  0.00    +0.067 C 
ATOM      5  O   UNL     1      -3.079   3.244  -4.693  0.00  0.00    -0.369 OA
ATOM      6  C   UNL     1      -0.926   3.791  -5.683  0.00  0.00    +0.016 C 
ATOM      7  C   UNL     1      -0.219   2.600  -5.028  0.00  0.00    -0.076 C 
ATOM      8  C   UNL     1      -0.811   3.385  -2.811  0.00  0.00    -0.076 C 
ATOM      9  C   UNL     1      -1.538   4.602  -3.392  0.00  0.00    +0.016 C 
ATOM     10  N   UNL     1       0.305   3.021  -3.710  0.00  0.00    +0.383 N 
ATOM     11  H   UNL     1       0.909   3.841  -3.839  0.00  0.00    -0.081 HD
ENDROOT
BRANCH   1  12
ATOM     12  C   UNL     1      -5.228   2.736  -5.739  0.00  0.00    +0.136 C 
BRANCH  12  15
ATOM     13  C   UNL     1      -6.185   0.535  -5.322  0.00  0.00    +0.262 C 
ATOM     14  O   UNL     1      -7.283   1.054  -5.257  0.00  0.00    -0.269 OA
ATOM     15  N   UNL     1      -5.089   1.297  -5.506  0.00  0.00    -0.308 N 
ATOM     16  H   UNL     1      -4.207   0.892  -5.484  0.00  0.00    +0.149 HD
BRANCH  13  19
ATOM     17  C   UNL     1      -8.495  -1.502  -5.029  0.00  0.00    +0.173 C 
ATOM     18  N   UNL     1      -7.068  -1.832  -5.071  0.00  0.00    -0.262 N 
ATOM     19  C   UNL     1      -6.054  -0.926  -5.200  0.00  0.00    +0.123 A 
ATOM     20  C   UNL     1      -4.879  -1.657  -5.200  0.00  0.00    +0.054 A 
ATOM     21  C   UNL     1      -5.273  -2.990  -5.059  0.00  0.00    +0.135 A 
ATOM     22  N   UNL     1      -6.580  -3.017  -4.992  0.00  0.00    -0.179 NA
ENDBRANCH  13  19
ENDBRANCH  12  15
ENDBRANCH   1  12
BRANCH  10  23
ATOM     23  C   UNL     1       1.100   1.929  -3.111  0.00  0.00    -0.039 C 
BRANCH  23  24
ATOM     24  C   UNL     1       1.797   2.455  -1.883  0.00  0.00    -0.015 A 
ATOM     25  C   UNL     1       3.069   3.041  -1.990  0.00  0.00    -0.013 A 
ATOM     26  C   UNL     1       3.719   3.152  -3.231  0.00  0.00    +0.009 A 
ATOM     27  C   UNL     1       4.952   3.725  -3.298  0.00  0.00    +0.001 A 
ATOM     28  C   UNL     1       5.582   4.205  -2.151  0.00  0.00    +0.001 A 
ATOM     29  C   UNL     1       4.983   4.115  -0.932  0.00  0.00    +0.008 A 
ATOM     30  C   UNL     1       3.711   3.529  -0.824  0.00  0.00    -0.017 A 
ATOM     31  C   UNL     1       3.062   3.419   0.419  0.00  0.00    +0.012 A 
ATOM     32  C   UNL     1       1.828   2.852   0.488  0.00  0.00    +0.046 A 
ATOM     33  C   UNL     1       1.196   2.364  -0.660  0.00  0.00    +0.119 A 
BRANCH  33  34
ATOM     34  O   UNL     1      -0.035   1.798  -0.558  0.00  0.00    -0.507 OA
ATOM     35  H   UNL     1      -0.017   0.843  -0.404  0.00  0.00    +0.292 HD
ENDBRANCH  33  34
ENDBRANCH  23  24
ENDBRANCH  10  23
TORSDOF 6
