REMARK  Name = ZINC39630925
REMARK  15 active torsions:
REMARK  status: ('A' for Active; 'I' for Inactive)
REMARK    1  A    between atoms: C_1  and  C_2
REMARK    2  A    between atoms: C_4  and  C_11
REMARK    3  A    between atoms: N_5  and  C_7
REMARK    4  A    between atoms: C_7  and  C_8
REMARK    5  A    between atoms: C_7  and  C_9
REMARK    6  A    between atoms: C_7  and  C_10
REMARK    7  A    between atoms: C_15  and  C_24
REMARK    8  A    between atoms: N_26  and  C_27
REMARK    9  A    between atoms: C_27  and  C_28
REMARK   10  A    between atoms: C_28  and  C_29
REMARK   11  A    between atoms: C_28  and  C_30
REMARK   12  A    between atoms: C_28  and  C_31
REMARK   13  A    between atoms: C_31  and  N_32
REMARK   14  A    between atoms: N_32  and  C_33
REMARK   15  A    between atoms: N_32  and  C_34
REMARK                            x       y       z     vdW  Elec       q    Type
REMARK                         _______ _______ _______ _____ _____    ______ ____
ROOT
ATOM      1  C   UNL     1      -2.338  -2.218   0.271  0.00  0.00    +0.265 C 
ATOM      2  O   UNL     1      -2.904  -2.281  -0.804  0.00  0.00    -0.268 OA
ATOM      3  N   UNL     1      -2.196  -3.326   1.024  0.00  0.00    -0.295 N 
ATOM      4  C   UNL     1      -1.642  -3.428   2.395  0.00  0.00    +0.121 C 
ATOM      5  C   UNL     1      -2.544  -4.463   3.104  0.00  0.00    +0.100 C 
ATOM      6  C   UNL     1      -3.141  -5.308   1.966  0.00  0.00    -0.004 C 
ATOM      7  C   UNL     1      -2.565  -4.718   0.671  0.00  0.00    +0.115 C 
ATOM      8  C   UNL     1      -2.722  -6.768   2.116  0.00  0.00    -0.010 C 
ATOM      9  C   UNL     1      -3.375  -7.598   1.007  0.00  0.00    -0.082 C 
ATOM     10  N   UNL     1      -4.835  -7.476   1.098  0.00  0.00    +0.379 N 
ATOM     11  C   UNL     1      -5.237  -6.084   0.861  0.00  0.00    -0.082 C 
ATOM     12  C   UNL     1      -4.662  -5.190   1.963  0.00  0.00    -0.010 C 
ATOM     13  H   UNL     1      -5.264  -8.071   0.405  0.00  0.00    -0.086 HD
ATOM     14  H   UNL     1      -5.138  -7.760   2.017  0.00  0.00    -0.086 HD
ENDROOT
BRANCH   1  18
ATOM     15  C   UNL     1       0.055   1.388   2.915  0.00  0.00    +0.067 C 
ATOM     16  C   UNL     1      -0.770   0.654   1.890  0.00  0.00    +0.061 A 
ATOM     17  C   UNL     1      -1.006  -0.723   1.857  0.00  0.00    +0.057 A 
ATOM     18  C   UNL     1      -1.808  -0.930   0.749  0.00  0.00    +0.124 A 
ATOM     19  N   UNL     1      -2.010   0.298   0.187  0.00  0.00    -0.254 N 
ATOM     20  N   UNL     1      -1.398   1.193   0.877  0.00  0.00    -0.175 NA
BRANCH  19  21
ATOM     21  C   UNL     1      -2.806   0.557  -1.015  0.00  0.00    +0.056 C 
ATOM     22  C   UNL     1      -4.226   0.026  -0.810  0.00  0.00    +0.036 C 
ATOM     23  C   UNL     1      -2.858   2.063  -1.278  0.00  0.00    +0.036 C 
ATOM     24  C   UNL     1      -2.166  -0.148  -2.212  0.00  0.00    +0.036 C 
ENDBRANCH  19  21
ENDBRANCH   1  18
BRANCH   5  25
ATOM     25  C   UNL     1      -1.724  -5.327   4.028  0.00  0.00    +0.218 C 
ATOM     26  O   UNL     1      -0.541  -5.490   3.815  0.00  0.00    -0.275 OA
ATOM     27  N   UNL     1      -2.306  -5.918   5.090  0.00  0.00    -0.315 N 
ATOM     28  H   UNL     1      -3.265  -5.848   5.220  0.00  0.00    +0.149 HD
BRANCH  27  29
ATOM     29  C   UNL     1      -1.490  -6.667   6.050  0.00  0.00    +0.108 C 
BRANCH  29  30
ATOM     30  C   UNL     1      -2.389  -7.232   7.151  0.00  0.00    -0.034 C 
ATOM     31  C   UNL     1      -3.097  -6.083   7.872  0.00  0.00    +0.010 C 
ATOM     32  C   UNL     1      -3.431  -8.165   6.531  0.00  0.00    +0.010 C 
BRANCH  30  33
ATOM     33  C   UNL     1      -1.537  -8.015   8.153  0.00  0.00    -0.072 C 
BRANCH  33  34
ATOM     34  N   UNL     1      -2.401  -8.570   9.203  0.00  0.00    +0.376 N 
ATOM     35  C   UNL     1      -2.921  -9.874   8.770  0.00  0.00    -0.097 C 
ATOM     36  C   UNL     1      -1.625  -8.738  10.439  0.00  0.00    -0.097 C 
ATOM     37  H   UNL     1      -3.171  -7.940   9.372  0.00  0.00    -0.083 HD
ENDBRANCH  33  34
ENDBRANCH  30  33
ENDBRANCH  29  30
ENDBRANCH  27  29
ENDBRANCH   5  25
TORSDOF 7
