REMARK  Name = ZINC09101991
REMARK  6 active torsions:
REMARK  status: ('A' for Active; 'I' for Inactive)
REMARK    1  A    between atoms: C_3  and  S_26
REMARK    2  A    between atoms: C_6  and  C_7
REMARK    3  A    between atoms: N_9  and  C_10
REMARK    4  A    between atoms: C_10  and  C_11
REMARK    5  A    between atoms: N_14  and  C_18
REMARK    6  A    between atoms: S_26  and  N_29
REMARK                            x       y       z     vdW  Elec       q    Type
REMARK                         _______ _______ _______ _____ _____    ______ ____
ROOT
ATOM      1  C   UNL     1       2.225   3.322  -7.087  0.00  0.00    +0.244 C 
ATOM      2  O   UNL     1       2.214   4.528  -7.244  0.00  0.00    -0.270 OA
ATOM      3  N   UNL     1       1.945   2.505  -8.122  0.00  0.00    -0.308 N 
ATOM      4  H   UNL     1       1.954   1.544  -7.997  0.00  0.00    +0.149 HD
ENDROOT
BRANCH   1  10
ATOM      5  C   UNL     1       2.834   3.595  -4.687  0.00  0.00    +0.015 A 
ATOM      6  C   UNL     1       3.132   3.057  -3.452  0.00  0.00    +0.029 A 
ATOM      7  C   UNL     1       3.144   1.685  -3.277  0.00  0.00    +0.106 A 
ATOM      8  C   UNL     1       2.862   0.843  -4.339  0.00  0.00    +0.029 A 
ATOM      9  C   UNL     1       2.558   1.369  -5.577  0.00  0.00    +0.015 A 
ATOM     10  C   UNL     1       2.544   2.752  -5.761  0.00  0.00    +0.037 A 
BRANCH   7  11
ATOM     11  S   UNL     1       3.526   1.006  -1.697  0.00  0.00    +0.061 S 
ATOM     12  O   UNL     1       4.290   1.985  -1.008  0.00  0.00    -0.153 OA
ATOM     13  O   UNL     1       4.005  -0.312  -1.926  0.00  0.00    -0.153 OA
BRANCH  11  14
ATOM     14  N   UNL     1       2.098   0.853  -0.871  0.00  0.00    -0.177 NA
ATOM     15  C   UNL     1       1.494   1.879  -0.002  0.00  0.00    +0.109 C 
ATOM     16  C   UNL     1      -0.019   1.547   0.011  0.00  0.00    +0.018 C 
ATOM     17  C   UNL     1       0.002  -0.004   0.002  0.00  0.00    +0.018 C 
ATOM     18  C   UNL     1       1.223  -0.328  -0.885  0.00  0.00    +0.109 C 
ENDBRANCH  11  14
ENDBRANCH   7  11
ENDBRANCH   1  10
BRANCH   3  19
ATOM     19  C   UNL     1       1.629   3.070  -9.436  0.00  0.00    +0.150 C 
BRANCH  19  20
ATOM     20  C   UNL     1       1.353   1.936 -10.426  0.00  0.00    +0.213 C 
ATOM     21  C   UNL     1       1.017   2.504 -11.818  0.00  0.00    +0.163 C 
ATOM     22  N   UNL     1       2.081   1.968 -12.681  0.00  0.00    -0.234 N 
ATOM     23  C   UNL     1       2.904   1.216 -11.938  0.00  0.00    +0.408 C 
ATOM     24  O   UNL     1       3.876   0.647 -12.395  0.00  0.00    -0.226 OA
ATOM     25  O   UNL     1       2.558   1.148 -10.648  0.00  0.00    -0.444 OA
BRANCH  22  26
ATOM     26  C   UNL     1       2.211   2.205 -14.055  0.00  0.00    +0.041 A 
ATOM     27  C   UNL     1       1.285   3.002 -14.714  0.00  0.00    +0.025 A 
ATOM     28  C   UNL     1       1.418   3.239 -16.068  0.00  0.00    +0.023 A 
ATOM     29  C   UNL     1       2.468   2.675 -16.771  0.00  0.00    +0.059 A 
ATOM     30  C   UNL     1       3.391   1.875 -16.117  0.00  0.00    +0.061 A 
ATOM     31  C   UNL     1       3.264   1.639 -14.761  0.00  0.00    +0.045 A 
ATOM     32 CL   UNL     1       4.707   1.168 -17.001  0.00  0.00    -0.082 Cl
ATOM     33 CL   UNL     1       2.629   2.969 -18.474  0.00  0.00    -0.082 Cl
ENDBRANCH  22  26
ENDBRANCH  19  20
ENDBRANCH   3  19
TORSDOF 6
