REMARK  Name = ZINC13653734
REMARK  7 active torsions:
REMARK  status: ('A' for Active; 'I' for Inactive)
REMARK    1  A    between atoms: C_1  and  C_2
REMARK    2  A    between atoms: C_5  and  C_34
REMARK    3  A    between atoms: N_8  and  S_10
REMARK    4  A    between atoms: S_10  and  C_13
REMARK    5  A    between atoms: C_16  and  C_19
REMARK    6  A    between atoms: C_25  and  C_27
REMARK    7  A    between atoms: C_27  and  C_28
REMARK                            x       y       z     vdW  Elec       q    Type
REMARK                         _______ _______ _______ _____ _____    ______ ____
ROOT
ATOM      1  C   UNL     1      -1.253   1.526   4.835  0.00  0.00    +0.106 A 
ATOM      2  C   UNL     1      -0.452   1.981   5.867  0.00  0.00    +0.029 A 
ATOM      3  C   UNL     1      -0.939   2.909   6.765  0.00  0.00    +0.015 A 
ATOM      4  C   UNL     1      -2.247   3.380   6.637  0.00  0.00    +0.037 A 
ATOM      5  C   UNL     1      -3.052   2.912   5.596  0.00  0.00    +0.015 A 
ATOM      6  C   UNL     1      -2.551   1.989   4.702  0.00  0.00    +0.029 A 
ENDROOT
BRANCH   4   7
ATOM      7  C   UNL     1      -2.778   4.368   7.599  0.00  0.00    +0.252 C 
ATOM      8  O   UNL     1      -3.917   4.776   7.485  0.00  0.00    -0.270 OA
ATOM      9  N   UNL     1      -1.998   4.818   8.602  0.00  0.00    -0.234 N 
ATOM     10  C   UNL     1      -2.496   5.745   9.505  0.00  0.00    +0.314 A 
ATOM     11  N   UNL     1      -3.696   6.270   9.496  0.00  0.00    -0.092 NA
ATOM     12  N   UNL     1      -3.809   7.089  10.482  0.00  0.00    -0.111 NA
ATOM     13  C   UNL     1      -2.692   7.125  11.148  0.00  0.00    +0.224 A 
ATOM     14  O   UNL     1      -1.834   6.277  10.548  0.00  0.00    -0.409 OA
ATOM     15  H   UNL     1      -1.089   4.492   8.693  0.00  0.00    +0.160 HD
BRANCH  13  16
ATOM     16  C   UNL     1      -2.409   7.962  12.369  0.00  0.00    +0.140 C 
BRANCH  16  17
ATOM     17  C   UNL     1      -2.776   7.185  13.607  0.00  0.00    +0.000 A 
ATOM     18  C   UNL     1      -2.008   6.353  14.351  0.00  0.00    +0.013 A 
ATOM     19  C   UNL     1      -2.563   5.741  15.460  0.00  0.00    +0.028 A 
ATOM     20  C   UNL     1      -3.859   5.992  15.770  0.00  0.00    +0.078 A 
ATOM     21  S   UNL     1      -4.334   7.129  14.478  0.00  0.00    -0.081 S 
ATOM     22 CL   UNL     1      -4.809   5.375  17.086  0.00  0.00    -0.076 Cl
ENDBRANCH  16  17
ENDBRANCH  13  16
ENDBRANCH   4   7
BRANCH   1  23
ATOM     23  S   UNL     1      -0.621   0.347   3.688  0.00  0.00    +0.061 S 
ATOM     24  O   UNL     1      -1.744  -0.332   3.144  0.00  0.00    -0.153 OA
ATOM     25  O   UNL     1       0.435  -0.336   4.349  0.00  0.00    -0.153 OA
BRANCH  23  31
ATOM     26  C   UNL     1       3.619   1.586   1.189  0.00  0.00    +0.009 C 
ATOM     27  C   UNL     1       2.175   1.082   1.218  0.00  0.00    +0.002 C 
ATOM     28  C   UNL     1       1.423   1.616  -0.003  0.00  0.00    +0.009 C 
ATOM     29  C   UNL     1      -0.013   1.086   0.008  0.00  0.00    +0.002 C 
ATOM     30  C   UNL     1      -0.726   1.581   1.270  0.00  0.00    +0.112 C 
ATOM     31  N   UNL     1       0.069   1.195   2.444  0.00  0.00    -0.176 NA
ATOM     32  C   UNL     1       1.486   1.577   2.494  0.00  0.00    +0.112 C 
ATOM     33  C   UNL     1      -0.754   1.593  -1.230  0.00  0.00    +0.009 C 
ENDBRANCH  23  31
ENDBRANCH   1  23
TORSDOF 5
