REMARK  Name = ZINC09234876
REMARK  13 active torsions:
REMARK  status: ('A' for Active; 'I' for Inactive)
REMARK    1  A    between atoms: C_1  and  C_2
REMARK    2  A    between atoms: C_2  and  N_65
REMARK    3  A    between atoms: C_3  and  C_4
REMARK    4  A    between atoms: C_3  and  N_65
REMARK    5  A    between atoms: C_5  and  C_6
REMARK    6  A    between atoms: C_5  and  N_65
REMARK    7  A    between atoms: C_6  and  C_7
REMARK    8  A    between atoms: C_7  and  N_8
REMARK    9  A    between atoms: C_9  and  C_28
REMARK   10  A    between atoms: C_12  and  C_13
REMARK   11  A    between atoms: C_12  and  O_23
REMARK   12  A    between atoms: C_14  and  C_22
REMARK   13  A    between atoms: C_32  and  N_34
REMARK                            x       y       z     vdW  Elec       q    Type
REMARK                         _______ _______ _______ _____ _____    ______ ____
ROOT
ATOM      1  N   UNL     1       1.098  -0.644  -0.289  0.00  0.00    -0.284 N 
ATOM      2  C   UNL     1       1.276  -1.511   0.880  0.00  0.00    +0.145 C 
ATOM      3  C   UNL     1       1.668  -2.871   0.350  0.00  0.00    +0.073 C 
ATOM      4  C   UNL     1       1.940  -4.012   1.100  0.00  0.00    +0.151 C 
ATOM      5  C   UNL     1       1.702  -2.754  -1.038  0.00  0.00    +0.249 C 
ATOM      6  O   UNL     1       1.980  -3.646  -1.823  0.00  0.00    -0.282 OA
ATOM      7  C   UNL     1       1.338  -1.361  -1.400  0.00  0.00    +0.288 C 
ATOM      8  O   UNL     1       1.269  -0.932  -2.534  0.00  0.00    -0.266 OA
ENDROOT
BRANCH   4   9
ATOM      9  C   UNL     1       2.295  -5.213   0.452  0.00  0.00    +0.111 A 
ATOM     10  C   UNL     1       1.464  -6.022  -0.317  0.00  0.00    +0.068 A 
ATOM     11  N   UNL     1       2.174  -7.051  -0.746  0.00  0.00    -0.232 NA
ATOM     12  C   UNL     1       3.426  -6.957  -0.297  0.00  0.00    +0.138 A 
ATOM     13  N   UNL     1       3.539  -5.818   0.450  0.00  0.00    -0.297 N 
ATOM     14  C   UNL     1       4.721  -5.487   1.034  0.00  0.00    +0.093 A 
ATOM     15  C   UNL     1       5.812  -6.272   0.878  0.00  0.00    +0.018 A 
ATOM     16  C   UNL     1       5.731  -7.443   0.114  0.00  0.00    +0.005 A 
ATOM     17  C   UNL     1       4.547  -7.786  -0.471  0.00  0.00    +0.047 A 
ATOM     18  C   UNL     1       0.007  -5.770  -0.611  0.00  0.00    +0.068 C 
ENDBRANCH   4   9
BRANCH   2  19
ATOM     19  C   UNL     1      -0.014  -1.608   1.653  0.00  0.00    -0.020 A 
ATOM     20  C   UNL     1      -1.218  -1.701   0.979  0.00  0.00    +0.006 A 
ATOM     21  C   UNL     1      -2.400  -1.794   1.688  0.00  0.00    +0.003 A 
ATOM     22  C   UNL     1      -2.381  -1.785   3.070  0.00  0.00    +0.033 A 
ATOM     23  C   UNL     1      -1.177  -1.687   3.744  0.00  0.00    +0.127 A 
ATOM     24  C   UNL     1       0.006  -1.598   3.034  0.00  0.00    +0.038 A 
BRANCH  23  25
ATOM     25  N   UNL     1      -1.156  -1.677   5.223  0.00  0.00    +0.056 N 
ATOM     26  O   UNL     1      -0.096  -1.590   5.817  0.00  0.00    -0.126 OA
ATOM     27  O   UNL     1      -2.199  -1.755   5.848  0.00  0.00    -0.126 OA
ENDBRANCH  23  25
ENDBRANCH   2  19
BRANCH   4  28
ATOM     28  O   UNL     1       1.865  -3.969   2.450  0.00  0.00    -0.504 OA
ATOM     29  H   UNL     1       2.090  -4.868   2.825  0.00  0.00    +0.292 HD
ENDBRANCH   4  28
BRANCH   1  30
ATOM     30  C   UNL     1       0.715   0.770  -0.253  0.00  0.00    +0.107 C 
BRANCH  30  31
ATOM     31  C   UNL     1       1.973   1.637  -0.174  0.00  0.00    +0.000 C 
BRANCH  31  32
ATOM     32  C   UNL     1       1.573   3.113  -0.136  0.00  0.00    -0.077 C 
BRANCH  32  33
ATOM     33  N   UNL     1       2.799   3.938  -0.082  0.00  0.00    +0.379 N 
ATOM     34  H   UNL     1       3.429   3.649  -0.839  0.00  0.00    -0.082 HD
BRANCH  33  36
ATOM     35  C   UNL     1       2.190   5.623  -1.744  0.00  0.00    -0.017 C 
ATOM     36  C   UNL     1       2.456   5.364  -0.260  0.00  0.00    -0.082 C 
ENDBRANCH  33  36
BRANCH  33  37
ATOM     37  C   UNL     1       3.483   3.741   1.213  0.00  0.00    -0.082 C 
ATOM     38  C   UNL     1       4.906   4.293   1.106  0.00  0.00    -0.017 C 
ENDBRANCH  33  37
ENDBRANCH  32  33
ENDBRANCH  31  32
ENDBRANCH  30  31
ENDBRANCH   1  30
TORSDOF 10
