REMARK  Name = ZINC02349493
REMARK  7 active torsions:
REMARK  status: ('A' for Active; 'I' for Inactive)
REMARK    1  A    between atoms: C_9  and  C_23
REMARK    2  A    between atoms: C_10  and  N_22
REMARK    3  A    between atoms: N_11  and  C_14
REMARK    4  A    between atoms: C_14  and  C_15
REMARK    5  A    between atoms: C_15  and  C_16
REMARK    6  A    between atoms: N_25  and  C_26
REMARK    7  A    between atoms: C_26  and  C_27
REMARK                            x       y       z     vdW  Elec       q    Type
REMARK                         _______ _______ _______ _____ _____    ______ ____
ROOT
ATOM      1  C   UNL     1       6.864  -1.585  -1.614  0.00  0.00    +0.002 A 
ATOM      2  C   UNL     1       6.613  -1.153  -0.312  0.00  0.00    +0.002 A 
ATOM      3  C   UNL     1       5.353  -0.833   0.088  0.00  0.00    +0.030 A 
ATOM      4  C   UNL     1       4.282  -0.935  -0.820  0.00  0.00    +0.092 A 
ATOM      5  C   UNL     1       4.538  -1.374  -2.143  0.00  0.00    +0.090 A 
ATOM      6  C   UNL     1       5.855  -1.697  -2.519  0.00  0.00    +0.030 A 
ATOM      7  N   UNL     1       3.538  -1.480  -3.026  0.00  0.00    -0.241 NA
ATOM      8  C   UNL     1       2.310  -1.173  -2.657  0.00  0.00    +0.122 A 
ATOM      9  C   UNL     1       1.002  -1.168  -3.332  0.00  0.00    +0.103 A 
ATOM     10  C   UNL     1       0.074  -0.742  -2.388  0.00  0.00    +0.112 A 
ATOM     11  N   UNL     1       0.688  -0.476  -1.203  0.00  0.00    -0.312 N 
ATOM     12  C   UNL     1       2.043  -0.719  -1.290  0.00  0.00    +0.162 A 
ATOM     13  N   UNL     1       3.039  -0.621  -0.435  0.00  0.00    -0.226 NA
ENDROOT
BRANCH   9  14
ATOM     14  C   UNL     1       0.732  -1.542  -4.718  0.00  0.00    +0.250 C 
ATOM     15  O   UNL     1       0.460  -2.697  -4.995  0.00  0.00    -0.270 OA
ATOM     16  N   UNL     1       0.783  -0.611  -5.691  0.00  0.00    -0.307 N 
ATOM     17  H   UNL     1       0.999   0.309  -5.470  0.00  0.00    +0.149 HD
BRANCH  16  18
ATOM     18  C   UNL     1       0.511  -0.986  -7.080  0.00  0.00    +0.147 C 
BRANCH  18  19
ATOM     19  C   UNL     1       0.633   0.230  -7.962  0.00  0.00    +0.007 A 
ATOM     20  C   UNL     1       1.725   0.715  -8.601  0.00  0.00    +0.013 A 
ATOM     21  C   UNL     1       1.600   1.858  -9.369  0.00  0.00    +0.008 A 
ATOM     22  C   UNL     1       0.391   2.465  -9.451  0.00  0.00    +0.045 A 
ATOM     23  S   UNL     1      -0.623   1.409  -8.430  0.00  0.00    -0.100 S 
ENDBRANCH  18  19
ENDBRANCH  16  18
ENDBRANCH   9  14
BRANCH  10  24
ATOM     24  N   UNL     1      -1.270  -0.604  -2.620  0.00  0.00    -0.344 N 
ATOM     25  H   UNL     1      -1.856  -0.298  -1.911  0.00  0.00    +0.144 HD
ATOM     26  H   UNL     1      -1.635  -0.813  -3.494  0.00  0.00    +0.144 HD
ENDBRANCH  10  24
BRANCH  11  27
ATOM     27  C   UNL     1       0.002  -0.004   0.002  0.00  0.00    +0.129 C 
BRANCH  27  28
ATOM     28  C   UNL     1      -0.019   1.526   0.010  0.00  0.00    +0.052 C 
BRANCH  28  29
ATOM     29  C   UNL     1      -0.724   2.012   1.250  0.00  0.00    -0.072 C 
ATOM     30  C   UNL     1      -0.001   2.312   2.281  0.00  0.00    -0.028 C 
ATOM     31  C   UNL     1      -0.560   2.799   3.587  0.00  0.00    +0.027 C 
ATOM     32  C   UNL     1      -1.998   3.286   3.396  0.00  0.00    +0.004 C 
ATOM     33  C   UNL     1      -2.779   2.207   2.635  0.00  0.00    +0.005 C 
ATOM     34  C   UNL     1      -2.220   2.123   1.211  0.00  0.00    +0.030 C 
ENDBRANCH  28  29
ENDBRANCH  27  28
ENDBRANCH  11  27
TORSDOF 7
