REMARK  Name = ZINC03279179
REMARK  7 active torsions:
REMARK  status: ('A' for Active; 'I' for Inactive)
REMARK    1  A    between atoms: N_9  and  C_22
REMARK    2  A    between atoms: C_10  and  S_12
REMARK    3  A    between atoms: S_12  and  C_13
REMARK    4  A    between atoms: C_13  and  C_14
REMARK    5  A    between atoms: C_14  and  C_16
REMARK    6  A    between atoms: C_26  and  S_28
REMARK    7  A    between atoms: S_28  and  N_31
REMARK                            x       y       z     vdW  Elec       q    Type
REMARK                         _______ _______ _______ _____ _____    ______ ____
ROOT
ATOM      1  C   UNL     1       2.190   1.424   0.899  0.00  0.00    +0.001 A 
ATOM      2  C   UNL     1       1.081   2.087   0.389  0.00  0.00    +0.002 A 
ATOM      3  C   UNL     1       0.004   1.393  -0.087  0.00  0.00    +0.028 A 
ATOM      4  C   UNL     1       0.016  -0.004  -0.062  0.00  0.00    +0.079 A 
ATOM      5  C   UNL     1       1.146  -0.676   0.458  0.00  0.00    +0.065 A 
ATOM      6  C   UNL     1       2.231   0.058   0.937  0.00  0.00    +0.015 A 
ATOM      7  C   UNL     1       1.135  -2.144   0.473  0.00  0.00    +0.267 A 
ATOM      8  O   UNL     1       2.079  -2.778   0.908  0.00  0.00    -0.267 OA
ATOM      9  N   UNL     1       0.037  -2.767  -0.014  0.00  0.00    -0.255 N 
ATOM     10  C   UNL     1      -1.016  -2.041  -0.499  0.00  0.00    +0.177 A 
ATOM     11  N   UNL     1      -1.029  -0.731  -0.523  0.00  0.00    -0.223 NA
ENDROOT
BRANCH   9  12
ATOM     12  C   UNL     1      -0.022  -4.167  -0.022  0.00  0.00    +0.054 A 
ATOM     13  C   UNL     1      -0.543  -4.847   1.071  0.00  0.00    +0.026 A 
ATOM     14  C   UNL     1      -0.606  -6.227   1.057  0.00  0.00    +0.004 A 
ATOM     15  C   UNL     1      -0.139  -6.931  -0.038  0.00  0.00    +0.028 A 
ATOM     16  C   UNL     1       0.386  -6.256  -1.125  0.00  0.00    +0.107 A 
ATOM     17  C   UNL     1       0.445  -4.877  -1.120  0.00  0.00    +0.054 A 
BRANCH  16  18
ATOM     18  S   UNL     1       0.979  -7.158  -2.517  0.00  0.00    +0.061 S 
ATOM     19  O   UNL     1       0.311  -8.412  -2.504  0.00  0.00    -0.153 OA
ATOM     20  O   UNL     1       0.919  -6.275  -3.629  0.00  0.00    -0.153 OA
BRANCH  18  21
ATOM     21  N   UNL     1       2.583  -7.473  -2.249  0.00  0.00    -0.177 NA
ATOM     22  C   UNL     1       3.704  -6.614  -2.655  0.00  0.00    +0.109 C 
ATOM     23  C   UNL     1       5.005  -7.321  -2.218  0.00  0.00    +0.018 C 
ATOM     24  C   UNL     1       4.569  -8.806  -2.104  0.00  0.00    +0.018 C 
ATOM     25  C   UNL     1       3.122  -8.665  -1.569  0.00  0.00    +0.109 C 
ENDBRANCH  18  21
ENDBRANCH  16  18
ENDBRANCH   9  12
BRANCH  10  26
ATOM     26  S   UNL     1      -2.419  -2.907  -1.120  0.00  0.00    -0.079 S 
BRANCH  26  27
ATOM     27  C   UNL     1      -3.459  -1.509  -1.610  0.00  0.00    +0.158 C 
BRANCH  27  28
ATOM     28  C   UNL     1      -4.753  -2.023  -2.186  0.00  0.00    +0.189 C 
ATOM     29  O   UNL     1      -4.952  -3.219  -2.259  0.00  0.00    -0.290 OA
BRANCH  28  30
ATOM     30  C   UNL     1      -5.735  -1.114  -2.642  0.00  0.00    +0.083 A 
ATOM     31  C   UNL     1      -5.648   0.267  -2.616  0.00  0.00    +0.030 A 
ATOM     32  C   UNL     1      -6.833   0.760  -3.164  0.00  0.00    +0.020 A 
ATOM     33  C   UNL     1      -7.610  -0.300  -3.500  0.00  0.00    +0.083 A 
ATOM     34  N   UNL     1      -6.958  -1.440  -3.189  0.00  0.00    -0.358 N 
ATOM     35  H   UNL     1      -7.293  -2.339  -3.329  0.00  0.00    +0.165 HD
ENDBRANCH  28  30
ENDBRANCH  27  28
ENDBRANCH  26  27
ENDBRANCH  10  26
TORSDOF 7
