REMARK  Name = ZINC24465519
REMARK  7 active torsions:
REMARK  status: ('A' for Active; 'I' for Inactive)
REMARK    1  A    between atoms: C_1  and  O_2
REMARK    2  A    between atoms: O_2  and  C_3
REMARK    3  A    between atoms: C_6  and  C_9
REMARK    4  A    between atoms: C_12  and  S_15
REMARK    5  A    between atoms: N_13  and  N_14
REMARK    6  A    between atoms: S_15  and  C_16
REMARK    7  A    between atoms: C_16  and  C_17
REMARK                            x       y       z     vdW  Elec       q    Type
REMARK                         _______ _______ _______ _____ _____    ______ ____
ROOT
ATOM      1  C   UNL     1       0.002  -0.004   0.002  0.00  0.00    +0.182 A 
ATOM      2  N   UNL     1       1.035  -0.772   0.262  0.00  0.00    -0.127 NA
ATOM      3  N   UNL     1       0.698  -2.008   0.164  0.00  0.00    -0.121 NA
ATOM      4  C   UNL     1      -0.571  -2.106  -0.163  0.00  0.00    +0.209 A 
ATOM      5  N   UNL     1      -1.060  -0.835  -0.273  0.00  0.00    -0.224 N 
ENDROOT
BRANCH   1   9
ATOM      6  C   UNL     1      -0.056   4.245   0.025  0.00  0.00    +0.120 A 
ATOM      7  C   UNL     1       1.157   3.568   0.010  0.00  0.00    +0.046 A 
ATOM      8  C   UNL     1       1.180   2.190   0.003  0.00  0.00    +0.015 A 
ATOM      9  C   UNL     1      -0.018   1.474   0.010  0.00  0.00    +0.021 A 
ATOM     10  C   UNL     1      -1.235   2.157   0.020  0.00  0.00    +0.015 A 
ATOM     11  C   UNL     1      -1.250   3.536   0.033  0.00  0.00    +0.046 A 
BRANCH   6  13
ATOM     12  C   UNL     1      -1.356   6.234   0.048  0.00  0.00    +0.277 C 
ATOM     13  O   UNL     1      -0.074   5.603   0.033  0.00  0.00    -0.495 OA
ENDBRANCH   6  13
ENDBRANCH   1   9
BRANCH   5  14
ATOM     14  N   UNL     1      -2.335  -0.466  -0.593  0.00  0.00    -0.295 N 
ATOM     15  H   UNL     1      -3.097  -1.234  -0.792  0.00  0.00    +0.163 HD
ATOM     16  H   UNL     1      -2.601   0.600  -0.651  0.00  0.00    +0.163 HD
ENDBRANCH   5  14
BRANCH   4  17
ATOM     17  S   UNL     1      -1.475  -3.598  -0.408  0.00  0.00    -0.080 S 
BRANCH  17  18
ATOM     18  C   UNL     1      -0.172  -4.812  -0.083  0.00  0.00    +0.113 C 
BRANCH  18  19
ATOM     19  C   UNL     1      -0.732  -6.203  -0.238  0.00  0.00    -0.020 A 
ATOM     20  C   UNL     1      -1.281  -6.851   0.852  0.00  0.00    +0.055 A 
ATOM     21  C   UNL     1      -1.802  -8.129   0.711  0.00  0.00    +0.162 A 
ATOM     22  C   UNL     1      -1.761  -8.759  -0.527  0.00  0.00    +0.163 A 
ATOM     23  C   UNL     1      -1.203  -8.107  -1.615  0.00  0.00    +0.065 A 
ATOM     24  C   UNL     1      -0.689  -6.831  -1.469  0.00  0.00    +0.026 A 
ATOM     25 BR   UNL     1       0.073  -5.944  -2.955  0.00  0.00    -0.050 Br
ATOM     26  O   UNL     1      -2.266 -10.013  -0.687  0.00  0.00    -0.485 OA
ATOM     27  C   UNL     1      -2.479 -10.778   0.504  0.00  0.00    +0.270 C 
ATOM     28  C   UNL     1      -3.183  -9.882   1.532  0.00  0.00    +0.270 C 
ATOM     29  O   UNL     1      -2.341  -8.754   1.794  0.00  0.00    -0.485 OA
ENDBRANCH  18  19
ENDBRANCH  17  18
ENDBRANCH   4  17
TORSDOF 6
