REMARK  Name = ZINC55236248
REMARK  6 active torsions:
REMARK  status: ('A' for Active; 'I' for Inactive)
REMARK    1  A    between atoms: C_1  and  C_2
REMARK    2  A    between atoms: C_3  and  C_18
REMARK    3  A    between atoms: C_5  and  S_7
REMARK    4  A    between atoms: S_7  and  C_8
REMARK    5  A    between atoms: C_8  and  C_9
REMARK    6  A    between atoms: C_12  and  N_15
REMARK                            x       y       z     vdW  Elec       q    Type
REMARK                         _______ _______ _______ _____ _____    ______ ____
ROOT
ATOM      1  C   UNL     1       0.055  -2.775   3.409  0.00  0.00    +0.114 C 
ENDROOT
BRANCH   1   2
ATOM      2  C   UNL     1       0.074  -3.896   4.416  0.00  0.00    -0.037 A 
ATOM      3  C   UNL     1      -1.114  -4.430   4.879  0.00  0.00    +0.007 A 
ATOM      4  C   UNL     1      -1.096  -5.458   5.803  0.00  0.00    +0.033 A 
ATOM      5  C   UNL     1       0.110  -5.952   6.263  0.00  0.00    +0.126 A 
ATOM      6  C   UNL     1       1.298  -5.419   5.800  0.00  0.00    +0.033 A 
ATOM      7  C   UNL     1       1.280  -4.394   4.872  0.00  0.00    +0.007 A 
BRANCH   5   8
ATOM      8  N   UNL     1       0.129  -7.053   7.253  0.00  0.00    +0.056 N 
ATOM      9  O   UNL     1      -0.910  -7.518   7.659  0.00  0.00    -0.126 OA
ATOM     10  O   UNL     1       1.183  -7.485   7.656  0.00  0.00    -0.126 OA
ENDBRANCH   5   8
ENDBRANCH   1   2
BRANCH   1  11
ATOM     11  S   UNL     1       0.056  -3.469   1.732  0.00  0.00    -0.062 S 
BRANCH  11  16
ATOM     12  C   UNL     1      -0.018   1.503   0.010  0.00  0.00    +0.069 C 
ATOM     13  C   UNL     1       0.002  -0.004   0.002  0.00  0.00    +0.080 A 
ATOM     14  C   UNL     1       0.008  -0.788  -1.086  0.00  0.00    +0.126 A 
ATOM     15  O   UNL     1       0.027  -2.069  -0.657  0.00  0.00    -0.436 OA
ATOM     16  C   UNL     1       0.033  -2.052   0.685  0.00  0.00    +0.258 A 
ATOM     17  N   UNL     1       0.024  -0.803   1.086  0.00  0.00    -0.208 NA
ATOM     18  C   UNL     1      -0.005  -0.326  -2.520  0.00  0.00    +0.088 C 
ENDBRANCH  11  16
ENDBRANCH   1  11
TORSDOF 4
