REMARK  Name = ZINC21580596
REMARK  8 active torsions:
REMARK  status: ('A' for Active; 'I' for Inactive)
REMARK    1  A    between atoms: C_1  and  C_2
REMARK    2  A    between atoms: C_10  and  C_12
REMARK    3  A    between atoms: C_12  and  N_13
REMARK    4  A    between atoms: N_16  and  S_19
REMARK    5  A    between atoms: S_19  and  C_22
REMARK    6  A    between atoms: C_25  and  O_31
REMARK    7  A    between atoms: C_26  and  N_28
REMARK    8  A    between atoms: O_31  and  C_32
REMARK                            x       y       z     vdW  Elec       q    Type
REMARK                         _______ _______ _______ _____ _____    ______ ____
ROOT
ATOM      1  N   UNL     1      -2.980   3.005  -2.774  0.00  0.00    -0.294 NA
ATOM      2  C   UNL     1      -2.202   3.799  -1.814  0.00  0.00    +0.102 C 
ATOM      3  C   UNL     1      -0.816   3.168  -1.640  0.00  0.00    +0.125 C 
ATOM      4  N   UNL     1      -0.989   1.753  -1.281  0.00  0.00    -0.174 NA
ATOM      5  C   UNL     1      -1.863   0.922  -2.124  0.00  0.00    +0.125 C 
ATOM      6  C   UNL     1      -3.212   1.643  -2.276  0.00  0.00    +0.102 C 
ENDROOT
BRANCH   4   7
ATOM      7  S   UNL     1      -0.215   1.109   0.034  0.00  0.00    +0.061 S 
ATOM      8  O   UNL     1      -0.114  -0.289  -0.199  0.00  0.00    -0.153 OA
ATOM      9  O   UNL     1       0.923   1.925   0.275  0.00  0.00    -0.153 OA
BRANCH   7  10
ATOM     10  C   UNL     1      -1.284   1.313   1.420  0.00  0.00    +0.108 A 
ATOM     11  C   UNL     1      -1.200   2.455   2.194  0.00  0.00    +0.032 A 
ATOM     12  C   UNL     1      -2.041   2.620   3.277  0.00  0.00    +0.050 A 
ATOM     13  C   UNL     1      -2.962   1.633   3.595  0.00  0.00    +0.150 A 
ATOM     14  C   UNL     1      -3.041   0.485   2.821  0.00  0.00    +0.169 A 
ATOM     15  C   UNL     1      -2.201   0.328   1.734  0.00  0.00    +0.065 A 
BRANCH  14  16
ATOM     16  N   UNL     1      -4.023  -0.569   3.157  0.00  0.00    +0.060 N 
ATOM     17  O   UNL     1      -4.092  -1.577   2.476  0.00  0.00    -0.126 OA
ATOM     18  O   UNL     1      -4.763  -0.430   4.114  0.00  0.00    -0.126 OA
ENDBRANCH  14  16
BRANCH  13  19
ATOM     19  O   UNL     1      -3.787   1.791   4.664  0.00  0.00    -0.493 OA
ATOM     20  C   UNL     1      -3.650   2.998   5.416  0.00  0.00    +0.277 C 
ENDBRANCH  13  19
ENDBRANCH   7  10
ENDBRANCH   4   7
BRANCH   1  21
ATOM     21  C   UNL     1      -4.250   3.669  -3.100  0.00  0.00    +0.149 C 
BRANCH  21  31
ATOM     22  C   UNL     1      -3.068  10.395  -6.926  0.00  0.00    +0.066 C 
ATOM     23  C   UNL     1      -2.946   9.066  -6.226  0.00  0.00    +0.046 A 
ATOM     24  C   UNL     1      -1.718   8.457  -6.086  0.00  0.00    +0.095 A 
ATOM     25  C   UNL     1      -1.626   7.226  -5.434  0.00  0.00    +0.275 A 
ATOM     26  O   UNL     1      -0.540   6.681  -5.307  0.00  0.00    -0.266 OA
ATOM     27  N   UNL     1      -2.751   6.633  -4.939  0.00  0.00    -0.171 N 
ATOM     28  C   UNL     1      -3.928   7.307  -5.121  0.00  0.00    +0.199 A 
ATOM     29  N   UNL     1      -4.023   8.461  -5.731  0.00  0.00    -0.227 NA
ATOM     30  S   UNL     1      -5.114   6.222  -4.357  0.00  0.00    -0.031 S 
ATOM     31  C   UNL     1      -3.970   4.953  -3.839  0.00  0.00    +0.116 A 
ATOM     32  N   UNL     1      -2.836   5.418  -4.267  0.00  0.00    -0.158 NA
ENDBRANCH  21  31
ENDBRANCH   1  21
TORSDOF 6
