REMARK  Name = ZINC55054000
REMARK  6 active torsions:
REMARK  status: ('A' for Active; 'I' for Inactive)
REMARK    1  A    between atoms: C_1  and  C_2
REMARK    2  A    between atoms: C_7  and  C_12
REMARK    3  A    between atoms: C_12  and  N_14
REMARK    4  A    between atoms: N_23  and  C_24
REMARK    5  A    between atoms: C_24  and  C_25
REMARK    6  A    between atoms: C_25  and  N_26
REMARK                            x       y       z     vdW  Elec       q    Type
REMARK                         _______ _______ _______ _____ _____    ______ ____
ROOT
ATOM      1  N   UNL     1      -1.401  -6.346   0.772  0.00  0.00    -0.142 NA
ATOM      2  C   UNL     1      -2.333  -7.165   0.302  0.00  0.00    +0.201 A 
ATOM      3  N   UNL     1      -3.302  -6.827  -0.591  0.00  0.00    -0.326 N 
ATOM      4  C   UNL     1      -4.082  -7.953  -0.835  0.00  0.00    +0.066 A 
ATOM      5  C   UNL     1      -5.187  -8.182  -1.644  0.00  0.00    +0.028 A 
ATOM      6  C   UNL     1      -5.763  -9.435  -1.682  0.00  0.00    +0.002 A 
ATOM      7  C   UNL     1      -5.245 -10.466  -0.916  0.00  0.00    +0.002 A 
ATOM      8  C   UNL     1      -4.146 -10.248  -0.108  0.00  0.00    +0.028 A 
ATOM      9  C   UNL     1      -3.559  -8.992  -0.063  0.00  0.00    +0.068 A 
ATOM     10  N   UNL     1      -2.468  -8.479   0.631  0.00  0.00    -0.314 N 
ATOM     11  H   UNL     1      -3.428  -5.951  -0.988  0.00  0.00    +0.169 HD
ENDROOT
BRANCH   1  12
ATOM     12  C   UNL     1      -1.436  -5.043   0.464  0.00  0.00    +0.271 C 
ATOM     13  O   UNL     1      -2.266  -4.626  -0.326  0.00  0.00    -0.268 OA
BRANCH  12  19
ATOM     14  C   UNL     1      -0.063   1.539   0.074  0.00  0.00    +0.008 C 
ATOM     15  C   UNL     1      -0.034   0.010   0.052  0.00  0.00    -0.009 C 
ATOM     16  C   UNL     1      -1.467  -0.530   0.069  0.00  0.00    +0.008 C 
ATOM     17  C   UNL     1      -1.460  -2.037  -0.201  0.00  0.00    +0.037 C 
ATOM     18  C   UNL     1      -0.486  -2.699   0.761  0.00  0.00    -0.025 A 
ATOM     19  C   UNL     1      -0.469  -4.113   1.078  0.00  0.00    +0.049 A 
ATOM     20  C   UNL     1       0.469  -4.556   1.964  0.00  0.00    +0.058 A 
ATOM     21  S   UNL     1       1.324  -3.173   2.388  0.00  0.00    -0.101 S 
ATOM     22  C   UNL     1       0.463  -1.980   1.406  0.00  0.00    -0.006 A 
ATOM     23  C   UNL     1       0.710  -0.508   1.292  0.00  0.00    +0.046 C 
ENDBRANCH  12  19
ENDBRANCH   1  12
BRANCH  10  24
ATOM     24  C   UNL     1      -1.613  -9.224   1.559  0.00  0.00    +0.106 C 
BRANCH  24  25
ATOM     25  C   UNL     1      -2.186  -9.120   2.974  0.00  0.00    -0.057 C 
BRANCH  25  26
ATOM     26  N   UNL     1      -1.329  -9.867   3.905  0.00  0.00    +0.381 N 
ATOM     27  C   UNL     1      -1.367 -11.295   3.564  0.00  0.00    -0.079 C 
ATOM     28  C   UNL     1      -0.414 -12.067   4.479  0.00  0.00    -0.019 C 
ATOM     29  C   UNL     1      -0.846 -11.876   5.935  0.00  0.00    -0.004 C 
ATOM     30  C   UNL     1      -0.875 -10.379   6.257  0.00  0.00    -0.019 C 
ATOM     31  C   UNL     1      -1.811  -9.670   5.277  0.00  0.00    -0.079 C 
ATOM     32  H   UNL     1      -0.381  -9.531   3.830  0.00  0.00    -0.082 HD
ENDBRANCH  25  26
ENDBRANCH  24  25
ENDBRANCH  10  24
TORSDOF 5
