REMARK  Name = ZINC04823951
REMARK  5 active torsions:
REMARK  status: ('A' for Active; 'I' for Inactive)
REMARK    1  A    between atoms: N_11  and  C1*_12
REMARK    2  A    between atoms: C2*_14  and  O2*_24
REMARK    3  A    between atoms: C3*_16  and  O3*_23
REMARK    4  A    between atoms: C4*_18  and  C5*_21
REMARK    5  A    between atoms: C5*_21  and  O5*_22
REMARK                            x       y       z     vdW  Elec       q    Type
REMARK                         _______ _______ _______ _____ _____    ______ ____
ROOT
ATOM      1  C1* UNL     1       0.002  -0.004   0.002  0.00  0.00    +0.253 C 
ATOM      2  C2* UNL     1       1.217  -0.254   0.922  0.00  0.00    +0.195 C 
ATOM      3  C3* UNL     1       2.011   1.071   0.864  0.00  0.00    +0.178 C 
ATOM      4  C4* UNL     1       1.181   1.964  -0.085  0.00  0.00    +0.177 C 
ATOM      5  O4* UNL     1      -0.159   1.431  -0.015  0.00  0.00    -0.346 OA
ENDROOT
BRANCH   1  16
ATOM      6  C   UNL     1       0.712   1.256  -5.067  0.00  0.00    +0.002 A 
ATOM      7  C   UNL     1       0.457   2.124  -4.019  0.00  0.00    +0.002 A 
ATOM      8  C   UNL     1       0.294   1.639  -2.736  0.00  0.00    +0.028 A 
ATOM      9  C   UNL     1       0.385   0.276  -2.497  0.00  0.00    +0.070 A 
ATOM     10  C   UNL     1       0.643  -0.600  -3.555  0.00  0.00    +0.065 A 
ATOM     11  C   UNL     1       0.805  -0.102  -4.839  0.00  0.00    +0.028 A 
ATOM     12  N   UNL     1       0.677  -1.883  -3.015  0.00  0.00    -0.334 N 
ATOM     13  H   UNL     1       0.837  -2.702  -3.509  0.00  0.00    +0.168 HD
ATOM     14  C   UNL     1       0.457  -1.792  -1.690  0.00  0.00    +0.161 A 
ATOM     15  S   UNL     1       0.415  -3.115  -0.605  0.00  0.00    -0.013 S 
ATOM     16  N   UNL     1       0.272  -0.503  -1.349  0.00  0.00    -0.290 N 
ENDBRANCH   1  16
BRANCH   3  17
ATOM     17  O3* UNL     1       2.098   1.660   2.163  0.00  0.00    -0.386 OA
ATOM     18  H3* UNL     1       2.586   2.495   2.184  0.00  0.00    +0.210 HD
ENDBRANCH   3  17
BRANCH   2  19
ATOM     19  O2* UNL     1       2.007  -1.336   0.426  0.00  0.00    -0.385 OA
ATOM     20  H2* UNL     1       2.784  -1.536   0.967  0.00  0.00    +0.210 HD
ENDBRANCH   2  19
BRANCH   4  21
ATOM     21  C5* UNL     1       1.203   3.416   0.396  0.00  0.00    +0.190 C 
BRANCH  21  22
ATOM     22  O5* UNL     1       0.466   4.231  -0.517  0.00  0.00    -0.392 OA
ATOM     23  H5* UNL     1       0.438   5.167  -0.275  0.00  0.00    +0.210 HD
ENDBRANCH  21  22
ENDBRANCH   4  21
TORSDOF 5
