REMARK  Name = ZINC23994299
REMARK  8 active torsions:
REMARK  status: ('A' for Active; 'I' for Inactive)
REMARK    1  A    between atoms: C_1  and  C_2
REMARK    2  A    between atoms: C_3  and  C_25
REMARK    3  A    between atoms: C_4  and  C_24
REMARK    4  A    between atoms: C_5  and  S_10
REMARK    5  A    between atoms: C_6  and  C_9
REMARK    6  A    between atoms: C_7  and  C_8
REMARK    7  A    between atoms: S_10  and  N_13
REMARK    8  A    between atoms: C_17  and  C_20
REMARK                            x       y       z     vdW  Elec       q    Type
REMARK                         _______ _______ _______ _____ _____    ______ ____
ROOT
ATOM      1  S   UNL     1       0.711   2.545   2.462  0.00  0.00    +0.061 S 
ATOM      2  O   UNL     1       1.827   2.292   1.619  0.00  0.00    -0.153 OA
ATOM      3  O   UNL     1      -0.444   1.716   2.466  0.00  0.00    -0.153 OA
ENDROOT
BRANCH   1   8
ATOM      4  C   UNL     1      -1.181   8.131   1.188  0.00  0.00    +0.044 C 
ATOM      5  C   UNL     1      -0.709   6.736   1.506  0.00  0.00    -0.044 A 
ATOM      6  C   UNL     1      -1.501   5.894   2.264  0.00  0.00    -0.043 A 
ATOM      7  C   UNL     1      -1.068   4.614   2.555  0.00  0.00    -0.021 A 
ATOM      8  C   UNL     1       0.158   4.176   2.090  0.00  0.00    +0.112 A 
ATOM      9  C   UNL     1       0.953   5.020   1.336  0.00  0.00    -0.021 A 
ATOM     10  C   UNL     1       0.517   6.298   1.040  0.00  0.00    -0.043 A 
ATOM     11  C   UNL     1       1.381   7.216   0.214  0.00  0.00    +0.044 C 
ATOM     12  C   UNL     1       2.292   4.545   0.834  0.00  0.00    +0.046 C 
ATOM     13  C   UNL     1      -1.931   3.696   3.382  0.00  0.00    +0.046 C 
ATOM     14  C   UNL     1      -2.837   6.371   2.772  0.00  0.00    +0.044 C 
ENDBRANCH   1   8
BRANCH   1  15
ATOM     15  N   UNL     1       1.285   2.565   4.015  0.00  0.00    -0.176 NA
ATOM     16  C   UNL     1       0.433   2.141   5.134  0.00  0.00    +0.109 C 
ATOM     17  C   UNL     1       0.407   3.254   6.186  0.00  0.00    +0.018 C 
ATOM     18  C   UNL     1       1.841   3.603   6.590  0.00  0.00    +0.015 C 
ATOM     19  C   UNL     1       2.607   4.112   5.367  0.00  0.00    +0.109 C 
ATOM     20  C   UNL     1       2.658   3.009   4.305  0.00  0.00    +0.121 C 
BRANCH  19  21
ATOM     21  C   UNL     1       4.031   4.492   5.778  0.00  0.00    +0.394 C 
ATOM     22  F   UNL     1       4.681   3.368   6.300  0.00  0.00    -0.170 F 
ATOM     23  F   UNL     1       4.731   4.957   4.660  0.00  0.00    -0.170 F 
ATOM     24  F   UNL     1       3.984   5.496   6.750  0.00  0.00    -0.170 F 
ENDBRANCH  19  21
ENDBRANCH   1  15
TORSDOF 3
