REMARK  Name = ZINC09385122
REMARK  4 active torsions:
REMARK  status: ('A' for Active; 'I' for Inactive)
REMARK    1  A    between atoms: C_3  and  C_8
REMARK    2  A    between atoms: C_11  and  S_13
REMARK    3  A    between atoms: S_13  and  C_14
REMARK    4  A    between atoms: C_14  and  C_15
REMARK                            x       y       z     vdW  Elec       q    Type
REMARK                         _______ _______ _______ _____ _____    ______ ____
ROOT
ATOM      1  C   UNL     1       3.156   1.769   1.524  0.00  0.00    +0.227 C 
ATOM      2  O   UNL     1       3.072   2.924   1.885  0.00  0.00    -0.275 OA
ATOM      3  N   UNL     1       2.338   1.303   0.559  0.00  0.00    -0.278 N 
ATOM      4  C   UNL     1       1.929  -0.111   0.519  0.00  0.00    +0.204 C 
ATOM      5  C   UNL     1       0.431  -0.168   0.358  0.00  0.00    +0.237 C 
ATOM      6  O   UNL     1      -0.170  -1.150   0.736  0.00  0.00    -0.274 OA
ATOM      7  N   UNL     1      -0.250   0.846  -0.195  0.00  0.00    -0.253 N 
ATOM      8  C   UNL     1       0.328   1.988  -0.597  0.00  0.00    +0.243 C 
ATOM      9  O   UNL     1      -0.360   2.874  -1.056  0.00  0.00    -0.273 OA
ATOM     10  C   UNL     1       1.818   2.186  -0.495  0.00  0.00    +0.114 C 
ATOM     11  C   UNL     1       2.123   3.641  -0.139  0.00  0.00    +0.035 C 
ATOM     12  C   UNL     1       3.636   3.833  -0.027  0.00  0.00    +0.003 C 
ATOM     13  C   UNL     1       4.295   3.483  -1.363  0.00  0.00    +0.000 C 
ATOM     14  C   UNL     1       3.992   2.025  -1.714  0.00  0.00    +0.003 C 
ATOM     15  C   UNL     1       2.478   1.831  -1.827  0.00  0.00    +0.035 C 
ATOM     16  H   UNL     1      -1.208   0.749  -0.310  0.00  0.00    +0.158 HD
ENDROOT
BRANCH   1  17
ATOM     17  C   UNL     1       4.176   0.855   2.153  0.00  0.00    +0.175 C 
BRANCH  17  18
ATOM     18  S   UNL     1       5.114   1.768   3.403  0.00  0.00    -0.056 S 
BRANCH  18  22
ATOM     19  C   UNL     1       7.735  -0.596   5.014  0.00  0.00    +0.249 A 
ATOM     20  N   UNL     1       7.152  -1.390   4.150  0.00  0.00    -0.106 NA
ATOM     21  N   UNL     1       6.238  -0.740   3.521  0.00  0.00    -0.101 NA
ATOM     22  C   UNL     1       6.200   0.497   3.959  0.00  0.00    +0.278 A 
ATOM     23  O   UNL     1       7.149   0.617   4.908  0.00  0.00    -0.411 OA
BRANCH  19  26
ATOM     24  C   UNL     1      10.391  -0.348   7.658  0.00  0.00    +0.002 A 
ATOM     25  C   UNL     1       9.366  -0.003   6.800  0.00  0.00    +0.013 A 
ATOM     26  C   UNL     1       8.835  -0.958   5.932  0.00  0.00    +0.040 A 
ATOM     27  C   UNL     1       9.350  -2.255   5.931  0.00  0.00    +0.033 A 
ATOM     28  C   UNL     1      10.378  -2.587   6.791  0.00  0.00    +0.042 A 
ATOM     29  C   UNL     1      10.898  -1.635   7.653  0.00  0.00    +0.020 A 
ATOM     30 CL   UNL     1      11.022  -4.199   6.792  0.00  0.00    -0.084 Cl
ENDBRANCH  19  26
ENDBRANCH  18  22
ENDBRANCH  17  18
ENDBRANCH   1  17
TORSDOF 4
