REMARK  Name = ZINC35727602
REMARK  8 active torsions:
REMARK  status: ('A' for Active; 'I' for Inactive)
REMARK    1  A    between atoms: C_1  and  C_2
REMARK    2  A    between atoms: C_5  and  C_7
REMARK    3  A    between atoms: C_9  and  C_21
REMARK    4  A    between atoms: N_10  and  C_12
REMARK    5  A    between atoms: C_16  and  N_18
REMARK    6  A    between atoms: N_23  and  C_24
REMARK    7  A    between atoms: C_24  and  C_25
REMARK    8  A    between atoms: C_24  and  C_31
REMARK                            x       y       z     vdW  Elec       q    Type
REMARK                         _______ _______ _______ _____ _____    ______ ____
ROOT
ATOM      1  C   UNL     1       1.584  -3.759  -0.082  0.00  0.00    +0.129 A 
ATOM      2  C   UNL     1       2.946  -3.548   0.191  0.00  0.00    +0.066 A 
ATOM      3  C   UNL     1       3.528  -4.781   0.385  0.00  0.00    +0.130 A 
ATOM      4  N   UNL     1       2.546  -5.724   0.234  0.00  0.00    -0.227 N 
ATOM      5  N   UNL     1       1.348  -5.057  -0.050  0.00  0.00    -0.163 NA
ENDROOT
BRANCH   1  10
ATOM      6  C   UNL     1      -0.472   0.767  -0.783  0.00  0.00    +0.086 C 
ATOM      7  C   UNL     1      -0.321  -0.728  -0.660  0.00  0.00    +0.103 A 
ATOM      8  C   UNL     1      -1.308  -1.632  -0.808  0.00  0.00    +0.045 A 
ATOM      9  C   UNL     1      -0.735  -2.905  -0.612  0.00  0.00    +0.052 A 
ATOM     10  C   UNL     1       0.584  -2.705  -0.353  0.00  0.00    +0.155 A 
ATOM     11  O   UNL     1       0.822  -1.380  -0.391  0.00  0.00    -0.458 OA
ENDBRANCH   1  10
BRANCH   4  12
ATOM     12  C   UNL     1       2.709  -7.109   0.349  0.00  0.00    +0.068 A 
ATOM     13  C   UNL     1       3.800  -7.733  -0.243  0.00  0.00    +0.028 A 
ATOM     14  C   UNL     1       3.959  -9.100  -0.129  0.00  0.00    +0.004 A 
ATOM     15  C   UNL     1       3.032  -9.848   0.574  0.00  0.00    +0.033 A 
ATOM     16  C   UNL     1       1.945  -9.231   1.165  0.00  0.00    +0.128 A 
ATOM     17  C   UNL     1       1.784  -7.863   1.059  0.00  0.00    +0.060 A 
BRANCH  16  18
ATOM     18  N   UNL     1       0.956 -10.036   1.916  0.00  0.00    +0.056 N 
ATOM     19  O   UNL     1       1.098 -11.232   2.013  0.00  0.00    -0.126 OA
ATOM     20  O   UNL     1       0.005  -9.497   2.432  0.00  0.00    -0.126 OA
ENDBRANCH  16  18
ENDBRANCH   4  12
BRANCH   3  21
ATOM     21  C   UNL     1       4.943  -5.038   0.697  0.00  0.00    +0.263 C 
ATOM     22  O   UNL     1       5.315  -6.169   0.948  0.00  0.00    -0.269 OA
ATOM     23  N   UNL     1       5.827  -4.021   0.704  0.00  0.00    -0.299 N 
ATOM     24  H   UNL     1       5.520  -3.110   0.576  0.00  0.00    +0.150 HD
BRANCH  23  25
ATOM     25  C   UNL     1       7.253  -4.291   0.905  0.00  0.00    +0.134 C 
BRANCH  25  26
ATOM     26  C   UNL     1       8.067  -3.201   0.257  0.00  0.00    -0.023 A 
ATOM     27  C   UNL     1       7.729  -1.876   0.454  0.00  0.00    +0.006 A 
ATOM     28  C   UNL     1       8.475  -0.876  -0.141  0.00  0.00    +0.000 A 
ATOM     29  C   UNL     1       9.561  -1.202  -0.932  0.00  0.00    +0.000 A 
ATOM     30  C   UNL     1       9.900  -2.527  -1.128  0.00  0.00    +0.000 A 
ATOM     31  C   UNL     1       9.156  -3.527  -0.530  0.00  0.00    +0.006 A 
ENDBRANCH  25  26
BRANCH  25  32
ATOM     32  C   UNL     1       7.553  -4.332   2.381  0.00  0.00    -0.023 A 
ATOM     33  C   UNL     1       6.931  -3.443   3.238  0.00  0.00    +0.006 A 
ATOM     34  C   UNL     1       7.206  -3.481   4.592  0.00  0.00    +0.000 A 
ATOM     35  C   UNL     1       8.104  -4.407   5.090  0.00  0.00    +0.000 A 
ATOM     36  C   UNL     1       8.725  -5.297   4.233  0.00  0.00    +0.000 A 
ATOM     37  C   UNL     1       8.446  -5.262   2.880  0.00  0.00    +0.006 A 
ENDBRANCH  25  32
ENDBRANCH  23  25
ENDBRANCH   3  21
TORSDOF 7
