REMARK  Name = ZINC40448564
REMARK  1 active torsions:
REMARK  status: ('A' for Active; 'I' for Inactive)
REMARK    1  A    between atoms: C_5  and  N_8
REMARK                            x       y       z     vdW  Elec       q    Type
REMARK                         _______ _______ _______ _____ _____    ______ ____
ROOT
ATOM      1  N   UNL     1       1.977  -1.048  -2.990  0.00  0.00    +0.386 N 
ATOM      2  C   UNL     1       3.271  -0.638  -3.547  0.00  0.00    -0.077 C 
ATOM      3  C   UNL     1       3.760  -1.679  -4.556  0.00  0.00    -0.011 C 
ATOM      4  C   UNL     1       2.778  -1.736  -5.733  0.00  0.00    +0.070 C 
ATOM      5  C   UNL     1       1.383  -1.920  -5.172  0.00  0.00    +0.117 C 
ATOM      6  O   UNL     1       0.641  -2.764  -5.615  0.00  0.00    -0.299 OA
ATOM      7  C   UNL     1       0.949  -1.015  -4.040  0.00  0.00    -0.003 C 
ATOM      8  H   UNL     1       2.052  -1.986  -2.624  0.00  0.00    -0.081 HD
ENDROOT
BRANCH   1  13
ATOM      9  C   UNL     1      -0.018   1.468   0.071  0.00  0.00    -0.000 C 
ATOM     10  C   UNL     1       1.357   2.069  -0.044  0.00  0.00    -0.000 C 
ATOM     11  C   UNL     1       1.751   2.365  -1.504  0.00  0.00    -0.002 C 
ATOM     12  C   UNL     1       1.340   1.240  -2.473  0.00  0.00    -0.015 C 
ATOM     13  C   UNL     1       1.598  -0.131  -1.907  0.00  0.00    -0.068 C 
ATOM     14  C   UNL     1       0.306  -0.632  -1.231  0.00  0.00    -0.015 C 
ATOM     15  C   UNL     1       0.120  -0.069   0.098  0.00  0.00    -0.002 C 
ENDBRANCH   1  13
TORSDOF 1
