REMARK  Name = ZINC12876983
REMARK  7 active torsions:
REMARK  status: ('A' for Active; 'I' for Inactive)
REMARK    1  A    between atoms: C_8  and  C_10
REMARK    2  A    between atoms: N_13  and  S_16
REMARK    3  A    between atoms: S_16  and  C_19
REMARK    4  A    between atoms: C_22  and  S_25
REMARK    5  A    between atoms: S_25  and  N_28
REMARK    6  A    between atoms: N_28  and  C_29
REMARK    7  A    between atoms: C_29  and  C_30
REMARK                            x       y       z     vdW  Elec       q    Type
REMARK                         _______ _______ _______ _____ _____    ______ ____
ROOT
ATOM      1  S   UNL     1      -1.609   0.611  -8.116  0.00  0.00    +0.061 S 
ATOM      2  O   UNL     1      -0.410   1.337  -8.345  0.00  0.00    -0.153 OA
ATOM      3  O   UNL     1      -1.695  -0.796  -8.297  0.00  0.00    -0.153 OA
ENDROOT
BRANCH   1   7
ATOM      4  C   UNL     1      -5.123   2.690  -9.773  0.00  0.00    +0.047 C 
ATOM      5  C   UNL     1      -3.914   3.434  -9.201  0.00  0.00    +0.027 C 
ATOM      6  C   UNL     1      -2.634   2.672  -9.558  0.00  0.00    +0.110 C 
ATOM      7  N   UNL     1      -2.764   1.285  -9.093  0.00  0.00    -0.177 NA
ATOM      8  C   UNL     1      -3.936   0.505  -9.515  0.00  0.00    +0.110 C 
ATOM      9  C   UNL     1      -5.204   1.293  -9.153  0.00  0.00    +0.027 C 
BRANCH   4  17
ATOM     10  C   UNL     1     -10.409   5.866 -10.016  0.00  0.00    +0.002 A 
ATOM     11  C   UNL     1     -10.502   5.952  -8.633  0.00  0.00    +0.001 A 
ATOM     12  C   UNL     1      -9.519   5.377  -7.850  0.00  0.00    +0.017 A 
ATOM     13  C   UNL     1      -8.467   4.732  -8.454  0.00  0.00    +0.039 A 
ATOM     14  C   UNL     1      -8.347   4.629  -9.858  0.00  0.00    +0.078 A 
ATOM     15  C   UNL     1      -9.372   5.228 -10.623  0.00  0.00    +0.029 A 
ATOM     16  N   UNL     1      -7.253   3.961 -10.278  0.00  0.00    -0.244 NA
ATOM     17  C   UNL     1      -6.381   3.455  -9.452  0.00  0.00    +0.083 A 
ATOM     18  S   UNL     1      -7.022   3.868  -7.892  0.00  0.00    -0.072 S 
ENDBRANCH   4  17
ENDBRANCH   1   7
BRANCH   1  19
ATOM     19  C   UNL     1      -2.083   0.933  -6.450  0.00  0.00    +0.106 A 
ATOM     20  C   UNL     1      -2.887   0.034  -5.773  0.00  0.00    +0.030 A 
ATOM     21  C   UNL     1      -3.258   0.287  -4.466  0.00  0.00    +0.030 A 
ATOM     22  C   UNL     1      -2.825   1.439  -3.835  0.00  0.00    +0.105 A 
ATOM     23  C   UNL     1      -2.027   2.340  -4.513  0.00  0.00    +0.030 A 
ATOM     24  C   UNL     1      -1.651   2.085  -5.819  0.00  0.00    +0.030 A 
BRANCH  22  25
ATOM     25  S   UNL     1      -3.299   1.761  -2.168  0.00  0.00    +0.058 S 
ATOM     26  O   UNL     1      -4.498   1.035  -1.939  0.00  0.00    -0.153 OA
ATOM     27  O   UNL     1      -3.213   3.168  -1.987  0.00  0.00    -0.153 OA
BRANCH  25  28
ATOM     28  N   UNL     1      -2.144   1.086  -1.192  0.00  0.00    -0.187 NA
ATOM     29  H   UNL     1      -2.375   0.350  -0.605  0.00  0.00    +0.148 HD
BRANCH  28  30
ATOM     30  C   UNL     1      -0.773   1.602  -1.215  0.00  0.00    +0.137 C 
BRANCH  30  31
ATOM     31  C   UNL     1      -0.013   1.086   0.008  0.00  0.00    +0.134 C 
ATOM     32  C   UNL     1       1.429   1.629  -0.003  0.00  0.00    +0.035 C 
ATOM     33  C   UNL     1       1.553   2.402   1.333  0.00  0.00    +0.031 C 
ATOM     34  C   UNL     1       0.413   1.778   2.177  0.00  0.00    +0.160 C 
ATOM     35  O   UNL     1      -0.639   1.560   1.212  0.00  0.00    -0.375 OA
ENDBRANCH  30  31
ENDBRANCH  28  30
ENDBRANCH  25  28
ENDBRANCH  22  25
ENDBRANCH   1  19
TORSDOF 7
