REMARK  Name = ZINC12882551
REMARK  4 active torsions:
REMARK  status: ('A' for Active; 'I' for Inactive)
REMARK    1  A    between atoms: C_4  and  C_7
REMARK    2  A    between atoms: C_7  and  N_8
REMARK    3  A    between atoms: C_13  and  C_30
REMARK    4  A    between atoms: C_30  and  C_31
REMARK                            x       y       z     vdW  Elec       q    Type
REMARK                         _______ _______ _______ _____ _____    ______ ____
ROOT
ATOM      1  N   UNL     1      -2.362   7.868  -0.431  0.00  0.00    -0.237 N 
ATOM      2  C   UNL     1      -2.857   6.660  -0.135  0.00  0.00    +0.224 C 
ATOM      3  O   UNL     1      -3.140   6.273   0.978  0.00  0.00    -0.275 OA
ATOM      4  C   UNL     1      -3.008   5.854  -1.405  0.00  0.00    +0.073 C 
ATOM      5  C   UNL     1      -1.999   4.687  -1.392  0.00  0.00    -0.053 C 
ATOM      6  C   UNL     1      -1.216   6.149  -3.038  0.00  0.00    +0.050 C 
ATOM      7  C   UNL     1      -2.489   6.819  -2.507  0.00  0.00    +0.088 C 
ATOM      8  C   UNL     1      -2.122   8.074  -1.747  0.00  0.00    +0.225 C 
ATOM      9  O   UNL     1      -1.683   9.090  -2.242  0.00  0.00    -0.275 OA
ATOM     10  C   UNL     1      -0.171   7.163  -3.407  0.00  0.00    -0.026 A 
ATOM     11  C   UNL     1       0.486   8.148  -2.703  0.00  0.00    +0.024 A 
ATOM     12  C   UNL     1       1.424   8.944  -3.336  0.00  0.00    +0.041 A 
ATOM     13  C   UNL     1       1.699   8.750  -4.678  0.00  0.00    +0.022 A 
ATOM     14  C   UNL     1       1.043   7.766  -5.388  0.00  0.00    +0.025 A 
ATOM     15  C   UNL     1       0.098   6.960  -4.758  0.00  0.00    +0.036 A 
ATOM     16  N   UNL     1      -0.685   5.914  -5.253  0.00  0.00    -0.286 N 
ATOM     17  C   UNL     1      -1.484   5.385  -4.306  0.00  0.00    +0.211 C 
ATOM     18  O   UNL     1      -2.266   4.469  -4.447  0.00  0.00    -0.277 OA
ATOM     19 CL   UNL     1       2.253  10.185  -2.448  0.00  0.00    -0.084 Cl
ATOM     20  H   UNL     1      -0.658   5.605  -6.172  0.00  0.00    +0.155 HD
ATOM     21  N   UNL     1      -0.783   5.264  -1.971  0.00  0.00    +0.394 N 
ATOM     22  H   UNL     1      -0.182   4.521  -2.347  0.00  0.00    -0.083 HD
ATOM     23  H   UNL     1      -0.267   5.793  -1.258  0.00  0.00    -0.083 HD
ENDROOT
BRANCH   1  24
ATOM     24  C   UNL     1      -2.105   8.890   0.586  0.00  0.00    +0.151 C 
BRANCH  24  28
ATOM     25  C   UNL     1       1.883   8.466   2.056  0.00  0.00    +0.000 A 
ATOM     26  C   UNL     1       1.631   9.281   0.969  0.00  0.00    +0.000 A 
ATOM     27  C   UNL     1       0.340   9.418   0.493  0.00  0.00    +0.005 A 
ATOM     28  C   UNL     1      -0.698   8.740   1.105  0.00  0.00    -0.030 A 
ATOM     29  C   UNL     1      -0.446   7.929   2.195  0.00  0.00    +0.005 A 
ATOM     30  C   UNL     1       0.846   7.788   2.667  0.00  0.00    +0.000 A 
ENDBRANCH  24  28
ENDBRANCH   1  24
BRANCH   5  31
ATOM     31  C   UNL     1      -1.760   4.206   0.041  0.00  0.00    +0.022 C 
BRANCH  31  32
ATOM     32  C   UNL     1      -0.809   3.037   0.026  0.00  0.00    -0.024 A 
ATOM     33  C   UNL     1      -1.142   1.737   0.016  0.00  0.00    +0.087 A 
ATOM     34  N   UNL     1      -0.011   0.966   0.007  0.00  0.00    -0.360 N 
ATOM     35  H   UNL     1       0.002  -0.004   0.002  0.00  0.00    +0.165 HD
ATOM     36  C   UNL     1       1.105   1.772   0.001  0.00  0.00    +0.047 A 
ATOM     37  C   UNL     1       0.654   3.105   0.013  0.00  0.00    +0.003 A 
ATOM     38  C   UNL     1       1.577   4.152   0.008  0.00  0.00    +0.010 A 
ATOM     39  C   UNL     1       2.916   3.877  -0.006  0.00  0.00    +0.001 A 
ATOM     40  C   UNL     1       3.365   2.564  -0.017  0.00  0.00    +0.002 A 
ATOM     41  C   UNL     1       2.472   1.515  -0.014  0.00  0.00    +0.026 A 
ENDBRANCH  31  32
ENDBRANCH   5  31
TORSDOF 4
