REMARK  Name = ZINC18331886
REMARK  8 active torsions:
REMARK  status: ('A' for Active; 'I' for Inactive)
REMARK    1  A    between atoms: C_1  and  C_2
REMARK    2  A    between atoms: C_3  and  C_33
REMARK    3  A    between atoms: N_9  and  N_12
REMARK    4  A    between atoms: C_13  and  C_15
REMARK    5  A    between atoms: C_15  and  S_16
REMARK    6  A    between atoms: S_16  and  C_17
REMARK    7  A    between atoms: C_20  and  C_27
REMARK    8  A    between atoms: C_24  and  C_26
REMARK                            x       y       z     vdW  Elec       q    Type
REMARK                         _______ _______ _______ _____ _____    ______ ____
ROOT
ATOM      1  C   UNL     1       5.607   8.118  -0.008  0.00  0.00    +0.173 C 
ENDROOT
BRANCH   1   3
ATOM      2  N   UNL     1       5.451  10.587   0.007  0.00  0.00    -0.218 N 
ATOM      3  C   UNL     1       4.814   9.399   0.006  0.00  0.00    +0.241 C 
ATOM      4  O   UNL     1       3.602   9.362   0.017  0.00  0.00    -0.273 OA
ATOM      5  H   UNL     1       6.421  10.617  -0.002  0.00  0.00    +0.176 HD
BRANCH   2  14
ATOM      6  C   UNL     1       4.240  14.396   3.610  0.00  0.00    +0.045 C 
ATOM      7  C   UNL     1       3.646  14.645   2.247  0.00  0.00    -0.026 A 
ATOM      8  C   UNL     1       2.895  15.735   2.022  0.00  0.00    -0.008 A 
ATOM      9  S   UNL     1       2.441  15.577   0.306  0.00  0.00    -0.073 S 
ATOM     10  C   UNL     1       3.272  14.052  -0.059  0.00  0.00    +0.116 A 
ATOM     11  C   UNL     1       3.879  13.709   1.163  0.00  0.00    +0.077 A 
ATOM     12  C   UNL     1       4.635  12.492   1.158  0.00  0.00    +0.280 A 
ATOM     13  O   UNL     1       5.199  12.110   2.169  0.00  0.00    -0.265 OA
ATOM     14  N   UNL     1       4.714  11.778   0.020  0.00  0.00    -0.212 N 
ATOM     15  C   UNL     1       4.098  12.191  -1.117  0.00  0.00    +0.223 A 
ATOM     16  N   UNL     1       3.396  13.293  -1.144  0.00  0.00    -0.228 NA
ATOM     17  C   UNL     1       2.526  16.830   2.989  0.00  0.00    +0.052 C 
ENDBRANCH   2  14
ENDBRANCH   1   3
BRANCH   1  18
ATOM     18  S   UNL     1       4.474   6.707  -0.005  0.00  0.00    -0.096 S 
BRANCH  18  19
ATOM     19  C   UNL     1       5.635   5.382  -0.023  0.00  0.00    +0.109 A 
ATOM     20  C   UNL     1       5.187   4.030  -0.026  0.00  0.00    +0.040 A 
ATOM     21  C   UNL     1       3.837   3.503  -0.016  0.00  0.00    +0.029 A 
ATOM     22  C   UNL     1       3.657   2.160  -0.022  0.00  0.00    +0.022 A 
ATOM     23  S   UNL     1       5.320   1.519  -0.033  0.00  0.00    -0.069 S 
ATOM     24  C   UNL     1       6.209   3.054  -0.042  0.00  0.00    +0.113 A 
ATOM     25  N   UNL     1       7.483   3.393  -0.051  0.00  0.00    -0.225 NA
ATOM     26  C   UNL     1       7.836   4.664  -0.048  0.00  0.00    +0.128 A 
ATOM     27  N   UNL     1       6.936   5.630  -0.034  0.00  0.00    -0.225 NA
ATOM     28  C   UNL     1       9.300   5.022  -0.059  0.00  0.00    +0.088 C 
BRANCH  22  29
ATOM     29  C   UNL     1       2.385   1.407  -0.014  0.00  0.00    -0.011 A 
ATOM     30  C   UNL     1       1.167   2.088   0.002  0.00  0.00    +0.009 A 
ATOM     31  C   UNL     1      -0.017   1.379   0.010  0.00  0.00    +0.001 A 
ATOM     32  C   UNL     1       0.002  -0.004   0.002  0.00  0.00    +0.000 A 
ATOM     33  C   UNL     1       1.206  -0.686  -0.013  0.00  0.00    +0.001 A 
ATOM     34  C   UNL     1       2.397   0.011  -0.021  0.00  0.00    +0.009 A 
ENDBRANCH  22  29
ENDBRANCH  18  19
ENDBRANCH   1  18
TORSDOF 5
