REMARK  Name = ZINC41006279
REMARK  12 active torsions:
REMARK  status: ('A' for Active; 'I' for Inactive)
REMARK    1  A    between atoms: C_1  and  C_2
REMARK    2  A    between atoms: C_5  and  N_9
REMARK    3  A    between atoms: C_6  and  C_8
REMARK    4  A    between atoms: C_10  and  C_12
REMARK    5  A    between atoms: C_14  and  C_35
REMARK    6  A    between atoms: C_16  and  C_24
REMARK    7  A    between atoms: C_18  and  C_22
REMARK    8  A    between atoms: C_18  and  O_23
REMARK    9  A    between atoms: N_26  and  C_27
REMARK   10  A    between atoms: C_30  and  C_34
REMARK   11  A    between atoms: C_32  and  C_33
REMARK   12  A    between atoms: C_38  and  O_41
REMARK                            x       y       z     vdW  Elec       q    Type
REMARK                         _______ _______ _______ _____ _____    ______ ____
ROOT
ATOM      1  C   UNL     1       0.494  -7.163  -0.802  0.00  0.00    +0.149 C 
ATOM      2  C   UNL     1       0.151  -7.250  -2.293  0.00  0.00    +0.053 C 
ATOM      3  C   UNL     1       0.100  -8.718  -2.719  0.00  0.00    +0.115 C 
ATOM      4  C   UNL     1       1.482  -9.354  -2.556  0.00  0.00    +0.082 C 
ATOM      5  C   UNL     1       1.875  -9.346  -1.075  0.00  0.00    +0.110 C 
ATOM      6  C   UNL     1       1.774  -7.929  -0.554  0.00  0.00    +0.148 C 
ATOM      7  O   UNL     1       2.694  -7.420   0.041  0.00  0.00    -0.296 OA
ATOM      8  C   UNL     1       1.445 -10.795  -3.067  0.00  0.00    +0.042 C 
ENDROOT
BRANCH   2   9
ATOM      9  C   UNL     1      -1.190  -6.609  -2.539  0.00  0.00    -0.042 A 
ATOM     10  C   UNL     1      -2.277  -6.961  -1.759  0.00  0.00    +0.007 A 
ATOM     11  C   UNL     1      -3.507  -6.375  -1.983  0.00  0.00    +0.045 A 
ATOM     12  C   UNL     1      -3.653  -5.432  -2.990  0.00  0.00    +0.117 A 
ATOM     13  C   UNL     1      -2.561  -5.080  -3.770  0.00  0.00    +0.045 A 
ATOM     14  C   UNL     1      -1.331  -5.665  -3.540  0.00  0.00    +0.007 A 
BRANCH  12  15
ATOM     15  O   UNL     1      -4.863  -4.854  -3.212  0.00  0.00    -0.507 OA
ATOM     16  H   UNL     1      -5.011  -4.045  -2.704  0.00  0.00    +0.292 HD
ENDBRANCH  12  15
ENDBRANCH   2   9
BRANCH   1  18
ATOM     17  N   UNL     1       0.998  -5.405   0.862  0.00  0.00    -0.285 N 
ATOM     18  C   UNL     1       0.681  -5.721  -0.409  0.00  0.00    +0.228 C 
ATOM     19  O   UNL     1       0.548  -4.844  -1.236  0.00  0.00    -0.275 OA
ATOM     20  H   UNL     1       1.173  -6.108   1.508  0.00  0.00    +0.155 HD
BRANCH  17  25
ATOM     21  C   UNL     1       1.309   0.036   2.438  0.00  0.00    +0.044 C 
ATOM     22  C   UNL     1       1.226  -1.409   2.020  0.00  0.00    -0.050 A 
ATOM     23  C   UNL     1       1.593  -1.778   0.738  0.00  0.00    +0.005 A 
ATOM     24  C   UNL     1       1.518  -3.102   0.351  0.00  0.00    +0.024 A 
ATOM     25  C   UNL     1       1.075  -4.063   1.251  0.00  0.00    +0.036 A 
ATOM     26  C   UNL     1       0.709  -3.689   2.537  0.00  0.00    -0.029 A 
ATOM     27  C   UNL     1       0.790  -2.364   2.919  0.00  0.00    +0.008 A 
ATOM     28  C   UNL     1       0.228  -4.728   3.517  0.00  0.00    +0.045 C 
ENDBRANCH  17  25
ENDBRANCH   1  18
BRANCH   3  29
ATOM     29  C   UNL     1      -0.892  -9.456  -1.857  0.00  0.00    +0.224 C 
ATOM     30  O   UNL     1      -0.709  -9.545  -0.662  0.00  0.00    -0.275 OA
ATOM     31  N   UNL     1      -1.984 -10.015  -2.415  0.00  0.00    -0.285 N 
ATOM     32  H   UNL     1      -2.097 -10.003  -3.379  0.00  0.00    +0.155 HD
BRANCH  31  33
ATOM     33  C   UNL     1      -2.955 -10.613  -1.605  0.00  0.00    +0.036 A 
ATOM     34  C   UNL     1      -3.019 -10.305  -0.252  0.00  0.00    +0.024 A 
ATOM     35  C   UNL     1      -3.979 -10.898   0.545  0.00  0.00    +0.005 A 
ATOM     36  C   UNL     1      -4.875 -11.797  -0.002  0.00  0.00    -0.050 A 
ATOM     37  C   UNL     1      -4.814 -12.106  -1.349  0.00  0.00    +0.008 A 
ATOM     38  C   UNL     1      -3.861 -11.512  -2.153  0.00  0.00    -0.029 A 
ATOM     39  C   UNL     1      -3.800 -11.844  -3.621  0.00  0.00    +0.045 C 
ATOM     40  C   UNL     1      -5.921 -12.442   0.870  0.00  0.00    +0.044 C 
ENDBRANCH  31  33
ENDBRANCH   3  29
BRANCH   4  41
ATOM     41  O   UNL     1       2.441  -8.606  -3.307  0.00  0.00    -0.388 OA
ATOM     42  H   UNL     1       3.342  -8.953  -3.250  0.00  0.00    +0.210 HD
ENDBRANCH   4  41
TORSDOF 7
