REMARK  Name = ZINC09447442
REMARK  6 active torsions:
REMARK  status: ('A' for Active; 'I' for Inactive)
REMARK    1  A    between atoms: C_1  and  C_2
REMARK    2  A    between atoms: C_2  and  C_3
REMARK    3  A    between atoms: C_3  and  C_4
REMARK    4  A    between atoms: C_4  and  C_5
REMARK    5  A    between atoms: C_5  and  N_6
REMARK    6  A    between atoms: C_15  and  C_22
REMARK                            x       y       z     vdW  Elec       q    Type
REMARK                         _______ _______ _______ _____ _____    ______ ____
ROOT
ATOM      1  N   UNL     1      -2.828  -4.058   0.007  0.00  0.00    -0.225 N 
ATOM      2  C   UNL     1      -2.825  -4.699  -1.167  0.00  0.00    +0.241 C 
ATOM      3  O   UNL     1      -2.838  -4.047  -2.190  0.00  0.00    -0.274 OA
ATOM      4  C   UNL     1      -2.806  -6.203  -1.263  0.00  0.00    +0.150 C 
ATOM      5  C   UNL     1      -4.066  -6.668  -1.982  0.00  0.00    +0.072 C 
ATOM      6  C   UNL     1      -3.839  -7.541  -3.172  0.00  0.00    +0.057 A 
ATOM      7  C   UNL     1      -2.658  -8.265  -3.338  0.00  0.00    +0.109 A 
ATOM      8  N   UNL     1      -2.490  -9.078  -4.365  0.00  0.00    -0.329 N 
ATOM      9  C   UNL     1      -3.436  -9.195  -5.298  0.00  0.00    +0.122 A 
ATOM     10  C   UNL     1      -3.233 -10.067  -6.384  0.00  0.00    -0.009 A 
ATOM     11  C   UNL     1      -4.191 -10.171  -7.347  0.00  0.00    +0.008 A 
ATOM     12  C   UNL     1      -5.364  -9.410  -7.239  0.00  0.00    +0.019 A 
ATOM     13  C   UNL     1      -5.545  -8.585  -6.185  0.00  0.00    +0.096 A 
ATOM     14  N   UNL     1      -4.596  -8.477  -5.211  0.00  0.00    -0.269 N 
ATOM     15  C   UNL     1      -4.818  -7.660  -4.160  0.00  0.00    +0.263 A 
ATOM     16  O   UNL     1      -5.863  -7.032  -4.074  0.00  0.00    -0.267 OA
ATOM     17  C   UNL     1      -1.966 -10.878  -6.480  0.00  0.00    +0.047 C 
ATOM     18  N   UNL     1      -1.661  -8.029  -2.398  0.00  0.00    -0.307 N 
ATOM     19  C   UNL     1      -1.537  -6.630  -2.002  0.00  0.00    +0.129 C 
ATOM     20  C   UNL     1      -0.316  -6.358  -1.181  0.00  0.00    -0.022 A 
ATOM     21  C   UNL     1      -0.166  -5.093  -0.625  0.00  0.00    +0.006 A 
ATOM     22  C   UNL     1       0.935  -4.791   0.148  0.00  0.00    +0.000 A 
ATOM     23  C   UNL     1       1.899  -5.755   0.376  0.00  0.00    +0.000 A 
ATOM     24  C   UNL     1       1.756  -7.010  -0.178  0.00  0.00    +0.004 A 
ATOM     25  C   UNL     1       0.652  -7.314  -0.963  0.00  0.00    -0.041 A 
ATOM     26  C   UNL     1       0.568  -8.686  -1.566  0.00  0.00    +0.054 C 
ATOM     27  C   UNL     1      -0.860  -9.103  -1.857  0.00  0.00    +0.112 C 
ATOM     28  C   UNL     1      -2.784  -6.806   0.119  0.00  0.00    +0.238 C 
ATOM     29  O   UNL     1      -2.759  -8.012   0.231  0.00  0.00    -0.274 OA
ATOM     30  N   UNL     1      -2.790  -6.054   1.226  0.00  0.00    -0.239 N 
ATOM     31  C   UNL     1      -2.808  -4.713   1.178  0.00  0.00    +0.315 C 
ATOM     32  O   UNL     1      -2.811  -4.080   2.215  0.00  0.00    -0.252 OA
ATOM     33  H   UNL     1      -2.778  -6.492   2.091  0.00  0.00    +0.159 HD
ATOM     34  H   UNL     1      -1.672  -9.593  -4.442  0.00  0.00    +0.168 HD
ENDROOT
BRANCH   1  35
ATOM     35  C   UNL     1      -2.848  -2.593   0.015  0.00  0.00    +0.118 C 
BRANCH  35  36
ATOM     36  C   UNL     1      -1.413  -2.063   0.004  0.00  0.00    +0.019 C 
BRANCH  36  37
ATOM     37  C   UNL     1      -1.433  -0.534   0.013  0.00  0.00    +0.001 C 
BRANCH  37  39
ATOM     38  C   UNL     1      -0.019   1.526   0.010  0.00  0.00    +0.004 C 
ATOM     39  C   UNL     1       0.002  -0.004   0.002  0.00  0.00    -0.003 C 
ENDBRANCH  37  39
ENDBRANCH  36  37
ENDBRANCH  35  36
ENDBRANCH   1  35
TORSDOF 4
