REMARK  Name = ZINC04143454
REMARK  8 active torsions:
REMARK  status: ('A' for Active; 'I' for Inactive)
REMARK    1  A    between atoms: C_1  and  C_2
REMARK    2  A    between atoms: C_2  and  S_3
REMARK    3  A    between atoms: S_3  and  C_4
REMARK    4  A    between atoms: C_8  and  C_9
REMARK    5  A    between atoms: C_11  and  C_31
REMARK    6  A    between atoms: C_12  and  N_30
REMARK    7  A    between atoms: N_13  and  C_21
REMARK    8  A    between atoms: C_26  and  N_27
REMARK                            x       y       z     vdW  Elec       q    Type
REMARK                         _______ _______ _______ _____ _____    ______ ____
ROOT
ATOM      1  C   UNL     1      -3.701   1.646   0.020  0.00  0.00    +0.105 C 
ATOM      2  C   UNL     1      -2.377   0.941   0.018  0.00  0.00    +0.077 C 
ATOM      3  C   UNL     1      -1.210   1.637   0.017  0.00  0.00    +0.107 C 
ATOM      4  N   UNL     1      -1.228   3.013   0.030  0.00  0.00    -0.258 N 
ATOM      5  C   UNL     1      -2.347   3.693   0.427  0.00  0.00    +0.025 C 
ATOM      6  C   UNL     1      -3.551   3.083   0.452  0.00  0.00    +0.026 C 
ATOM      7  C   UNL     1      -4.702   3.768   0.881  0.00  0.00    +0.162 C 
ATOM      8  O   UNL     1      -5.772   3.193   0.880  0.00  0.00    -0.292 OA
ATOM      9  C   UNL     1      -4.632   5.199   1.340  0.00  0.00    +0.080 C 
ATOM     10  C   UNL     1      -3.239   5.471   1.915  0.00  0.00    +0.014 C 
ATOM     11  C   UNL     1      -2.198   5.136   0.845  0.00  0.00    +0.052 C 
ENDROOT
BRANCH   4  12
ATOM     12  C   UNL     1      -0.092   3.725  -0.371  0.00  0.00    +0.070 A 
ATOM     13  C   UNL     1       0.070   4.086  -1.703  0.00  0.00    +0.026 A 
ATOM     14  C   UNL     1       1.192   4.788  -2.096  0.00  0.00    +0.002 A 
ATOM     15  C   UNL     1       2.154   5.134  -1.164  0.00  0.00    +0.002 A 
ATOM     16  C   UNL     1       1.996   4.777   0.162  0.00  0.00    +0.034 A 
ATOM     17  C   UNL     1       0.874   4.079   0.562  0.00  0.00    +0.148 A 
BRANCH  17  18
ATOM     18  N   UNL     1       0.703   3.702   1.984  0.00  0.00    +0.058 N 
ATOM     19  O   UNL     1       1.550   4.013   2.802  0.00  0.00    -0.126 OA
ATOM     20  O   UNL     1      -0.285   3.083   2.335  0.00  0.00    -0.126 OA
ENDBRANCH  17  18
ENDBRANCH   4  12
BRANCH   1  25
ATOM     21  C   UNL     1      -5.458   1.062  -1.788  0.00  0.00    +0.019 A 
ATOM     22  C   UNL     1      -5.791   1.147  -3.131  0.00  0.00    +0.022 A 
ATOM     23  C   UNL     1      -4.937   1.767  -3.982  0.00  0.00    +0.046 A 
ATOM     24  S   UNL     1      -3.617   2.264  -2.888  0.00  0.00    -0.100 S 
ATOM     25  C   UNL     1      -4.284   1.605  -1.369  0.00  0.00    +0.016 A 
BRANCH  21  26
ATOM     26  S   UNL     1      -6.536   0.265  -0.645  0.00  0.00    -0.125 S 
BRANCH  26  28
ATOM     27  C   UNL     1      -8.958  -0.998  -0.787  0.00  0.00    +0.015 C 
ATOM     28  C   UNL     1      -7.933  -0.280  -1.666  0.00  0.00    +0.071 C 
ENDBRANCH  26  28
ENDBRANCH  21  26
ENDBRANCH   1  25
BRANCH   3  29
ATOM     29  N   UNL     1      -0.011   0.966   0.007  0.00  0.00    -0.345 N 
ATOM     30  H   UNL     1       0.002  -0.004   0.002  0.00  0.00    +0.144 HD
ATOM     31  H   UNL     1       0.822   1.462   0.002  0.00  0.00    +0.144 HD
ENDBRANCH   3  29
BRANCH   2  32
ATOM     32  C   UNL     1      -2.342  -0.491   0.019  0.00  0.00    +0.099 C 
ATOM     33  N   UNL     1      -2.314  -1.627   0.019  0.00  0.00    -0.191 NA
ENDBRANCH   2  32
TORSDOF 7
