REMARK  Name = ZINC51993756
REMARK  5 active torsions:
REMARK  status: ('A' for Active; 'I' for Inactive)
REMARK    1  A    between atoms: C_3  and  S_9
REMARK    2  A    between atoms: C_6  and  N_7
REMARK    3  A    between atoms: S_9  and  N_12
REMARK    4  A    between atoms: N_12  and  C_13
REMARK    5  A    between atoms: C_19  and  O_21
REMARK                            x       y       z     vdW  Elec       q    Type
REMARK                         _______ _______ _______ _____ _____    ______ ____
ROOT
ATOM      1  S   UNL     1       3.980   2.349  -0.058  0.00  0.00    +0.060 S 
ATOM      2  O   UNL     1       4.953   1.877  -0.980  0.00  0.00    -0.153 OA
ATOM      3  O   UNL     1       3.492   3.683  -0.082  0.00  0.00    -0.153 OA
ENDROOT
BRANCH   1   6
ATOM      4  C   UNL     1       1.484  -0.545  -1.298  0.00  0.00    +0.025 A 
ATOM      5  C   UNL     1       2.582   0.282  -1.164  0.00  0.00    +0.031 A 
ATOM      6  C   UNL     1       2.576   1.296  -0.225  0.00  0.00    +0.119 A 
ATOM      7  C   UNL     1       1.470   1.487   0.586  0.00  0.00    +0.046 A 
ATOM      8  C   UNL     1       0.369   0.663   0.457  0.00  0.00    +0.040 A 
ATOM      9  C   UNL     1       0.372  -0.357  -0.486  0.00  0.00    +0.026 A 
ATOM     10 BR   UNL     1       1.468   2.875   1.869  0.00  0.00    -0.048 Br
BRANCH   9  11
ATOM     11  N   UNL     1      -0.740  -1.191  -0.619  0.00  0.00    -0.358 N 
ATOM     12  H   UNL     1      -0.737  -1.903  -1.278  0.00  0.00    +0.142 HD
ATOM     13  H   UNL     1      -1.516  -1.059  -0.052  0.00  0.00    +0.142 HD
ENDBRANCH   9  11
ENDBRANCH   1   6
BRANCH   1  14
ATOM     14  N   UNL     1       4.602   2.099   1.456  0.00  0.00    -0.184 NA
ATOM     15  H   UNL     1       4.599   2.820   2.106  0.00  0.00    +0.148 HD
BRANCH  14  16
ATOM     16  C   UNL     1       5.156   0.791   1.814  0.00  0.00    +0.105 C 
ATOM     17  C   UNL     1       6.673   0.808   1.615  0.00  0.00    +0.023 C 
ATOM     18  C   UNL     1       7.251  -0.558   1.989  0.00  0.00    +0.002 C 
ATOM     19  C   UNL     1       6.933  -0.863   3.454  0.00  0.00    +0.003 C 
ATOM     20  C   UNL     1       5.416  -0.880   3.653  0.00  0.00    +0.033 C 
ATOM     21  C   UNL     1       4.837   0.486   3.279  0.00  0.00    +0.133 C 
BRANCH  21  22
ATOM     22  O   UNL     1       5.416   1.493   4.112  0.00  0.00    -0.390 OA
ATOM     23  H   UNL     1       5.254   1.363   5.056  0.00  0.00    +0.210 HD
ENDBRANCH  21  22
ENDBRANCH  14  16
ENDBRANCH   1  14
TORSDOF 5
