REMARK  Name = ZINC40917158
REMARK  7 active torsions:
REMARK  status: ('A' for Active; 'I' for Inactive)
REMARK    1  A    between atoms: C_1  and  C_2
REMARK    2  A    between atoms: C_7  and  C_8
REMARK    3  A    between atoms: C_8  and  O_9
REMARK    4  A    between atoms: O_9  and  C_10
REMARK    5  A    between atoms: C_11  and  O_32
REMARK    6  A    between atoms: C_13  and  C_17
REMARK    7  A    between atoms: O_32  and  C_33
REMARK                            x       y       z     vdW  Elec       q    Type
REMARK                         _______ _______ _______ _____ _____    ______ ____
ROOT
ATOM      1  C   UNL     1       0.053  -0.376   4.845  0.00  0.00    +0.176 A 
ATOM      2  C   UNL     1       1.260  -0.092   5.477  0.00  0.00    +0.163 A 
ATOM      3  C   UNL     1       1.260   0.431   6.760  0.00  0.00    +0.055 A 
ATOM      4  C   UNL     1       0.063   0.668   7.410  0.00  0.00    -0.014 A 
ATOM      5  C   UNL     1      -1.136   0.386   6.783  0.00  0.00    +0.025 A 
ATOM      6  C   UNL     1      -1.143  -0.131   5.500  0.00  0.00    +0.063 A 
ATOM      7 BR   UNL     1      -2.786  -0.508   4.642  0.00  0.00    -0.046 Br
ENDROOT
BRANCH   4   8
ATOM      8  C   UNL     1       0.065   1.237   8.806  0.00  0.00    +0.177 C 
ATOM      9  C   UNL     1      -0.617   0.266   9.745  0.00  0.00    +0.041 C 
ATOM     10  C   UNL     1      -1.850   0.496  10.245  0.00  0.00    +0.020 C 
ATOM     11  C   UNL     1      -2.505  -0.492  11.182  0.00  0.00    +0.052 C 
ATOM     12  C   UNL     1      -2.029  -1.908  10.852  0.00  0.00    +0.014 C 
ATOM     13  C   UNL     1      -0.503  -1.947  10.984  0.00  0.00    +0.080 C 
ATOM     14  C   UNL     1       0.091  -0.902  10.081  0.00  0.00    +0.163 C 
ATOM     15  O   UNL     1       1.207  -1.071   9.630  0.00  0.00    -0.292 OA
ATOM     16  N   UNL     1      -2.559   1.632   9.934  0.00  0.00    -0.286 N 
ATOM     17  C   UNL     1      -1.877   2.681   9.341  0.00  0.00    +0.240 A 
ATOM     18  N   UNL     1      -0.641   2.509   8.811  0.00  0.00    -0.201 N 
ATOM     19  N   UNL     1      -0.272   3.760   8.319  0.00  0.00    -0.042 NA
ATOM     20  N   UNL     1      -1.260   4.558   8.567  0.00  0.00    -0.021 NA
ATOM     21  N   UNL     1      -2.205   3.929   9.166  0.00  0.00    -0.092 NA
ATOM     22  H   UNL     1      -3.508   1.697  10.126  0.00  0.00    +0.155 HD
ENDBRANCH   4   8
BRANCH   2  23
ATOM     23  O   UNL     1       2.436  -0.326   4.837  0.00  0.00    -0.491 OA
ATOM     24  C   UNL     1       3.636  -0.010   5.547  0.00  0.00    +0.277 C 
ENDBRANCH   2  23
BRANCH   1  25
ATOM     25  O   UNL     1       0.048  -0.889   3.585  0.00  0.00    -0.483 OA
BRANCH  25  26
ATOM     26  C   UNL     1       0.025   0.045   2.504  0.00  0.00    +0.265 C 
BRANCH  26  33
ATOM     27  C   UNL     1      -0.018   1.503   0.010  0.00  0.00    +0.044 C 
ATOM     28  C   UNL     1       0.002  -0.004   0.002  0.00  0.00    -0.044 A 
ATOM     29  C   UNL     1       0.006  -0.689  -1.199  0.00  0.00    +0.004 A 
ATOM     30  C   UNL     1       0.025  -2.071  -1.207  0.00  0.00    +0.000 A 
ATOM     31  C   UNL     1       0.040  -2.768  -0.013  0.00  0.00    +0.000 A 
ATOM     32  C   UNL     1       0.037  -2.084   1.188  0.00  0.00    +0.007 A 
ATOM     33  C   UNL     1       0.023  -0.702   1.195  0.00  0.00    -0.007 A 
ENDBRANCH  26  33
ENDBRANCH  25  26
ENDBRANCH   1  25
TORSDOF 5
