REMARK  Name = ZINC65246438
REMARK  8 active torsions:
REMARK  status: ('A' for Active; 'I' for Inactive)
REMARK    1  A    between atoms: C_1  and  C_2
REMARK    2  A    between atoms: C_2  and  C_3
REMARK    3  A    between atoms: C_2  and  C_4
REMARK    4  A    between atoms: C_4  and  N_5
REMARK    5  A    between atoms: N_8  and  S_11
REMARK    6  A    between atoms: S_11  and  C_14
REMARK    7  A    between atoms: C_17  and  C_19
REMARK    8  A    between atoms: C_22  and  C_24
REMARK                            x       y       z     vdW  Elec       q    Type
REMARK                         _______ _______ _______ _____ _____    ______ ____
ROOT
ATOM      1  S   UNL     1      -2.724  -5.612  -2.231  0.00  0.00    +0.094 S 
ATOM      2  O   UNL     1      -4.128  -5.564  -2.018  0.00  0.00    -0.150 OA
ATOM      3  O   UNL     1      -2.141  -5.409  -3.511  0.00  0.00    -0.150 OA
ENDROOT
BRANCH   1   7
ATOM      4  N   UNL     1      -1.416  -1.997  -0.116  0.00  0.00    +0.382 N 
ATOM      5  C   UNL     1      -0.866  -2.365  -1.426  0.00  0.00    -0.061 C 
ATOM      6  C   UNL     1      -0.741  -3.889  -1.517  0.00  0.00    +0.091 C 
ATOM      7  N   UNL     1      -2.054  -4.483  -1.222  0.00  0.00    -0.177 NA
ATOM      8  C   UNL     1      -2.755  -4.046  -0.005  0.00  0.00    +0.091 C 
ATOM      9  C   UNL     1      -2.784  -2.514   0.015  0.00  0.00    -0.061 C 
ATOM     10  H   UNL     1      -0.839  -2.391   0.612  0.00  0.00    -0.082 HD
BRANCH   4  11
ATOM     11  C   UNL     1      -1.433  -0.534   0.013  0.00  0.00    -0.076 C 
BRANCH  11  13
ATOM     12  C   UNL     1      -0.019   1.526   0.010  0.00  0.00    +0.005 C 
ATOM     13  C   UNL     1       0.002  -0.004   0.002  0.00  0.00    -0.034 C 
ATOM     14  C   UNL     1       0.742  -0.511   1.242  0.00  0.00    +0.005 C 
ENDBRANCH  11  13
ENDBRANCH   4  11
ENDBRANCH   1   7
BRANCH   1  15
ATOM     15  C   UNL     1      -2.184  -7.194  -1.676  0.00  0.00    +0.259 A 
ATOM     16  C   UNL     1      -2.821  -7.970  -0.775  0.00  0.00    +0.072 A 
ATOM     17  C   UNL     1      -2.053  -9.139  -0.621  0.00  0.00    +0.057 A 
ATOM     18  C   UNL     1      -0.976  -9.013  -1.447  0.00  0.00    +0.193 A 
ATOM     19  O   UNL     1      -1.074  -7.829  -2.084  0.00  0.00    -0.432 OA
BRANCH  18  20
ATOM     20  C   UNL     1       0.102  -9.998  -1.617  0.00  0.00    +0.284 A 
ATOM     21  N   UNL     1       0.201 -11.160  -1.009  0.00  0.00    -0.104 NA
ATOM     22  N   UNL     1       1.272 -11.755  -1.403  0.00  0.00    -0.112 NA
ATOM     23  C   UNL     1       1.895 -11.005  -2.269  0.00  0.00    +0.221 A 
ATOM     24  O   UNL     1       1.172  -9.882  -2.431  0.00  0.00    -0.418 OA
BRANCH  23  25
ATOM     25  C   UNL     1       3.187 -11.339  -2.967  0.00  0.00    +0.077 C 
ATOM     26  C   UNL     1       3.316 -12.824  -3.349  0.00  0.00    +0.013 C 
ATOM     27  C   UNL     1       4.790 -12.724  -2.924  0.00  0.00    +0.001 C 
ATOM     28  C   UNL     1       4.366 -11.565  -2.006  0.00  0.00    +0.013 C 
ENDBRANCH  23  25
ENDBRANCH  18  20
ENDBRANCH   1  15
TORSDOF 6
