REMARK  Name = ZINC08345167
REMARK  8 active torsions:
REMARK  status: ('A' for Active; 'I' for Inactive)
REMARK    1  A    between atoms: C_1  and  N_48
REMARK    2  A    between atoms: C_2  and  C_3
REMARK    3  A    between atoms: C_2  and  N_48
REMARK    4  A    between atoms: N_5  and  C_6
REMARK    5  A    between atoms: C_16  and  C_17
REMARK    6  A    between atoms: C_16  and  N_48
REMARK    7  A    between atoms: N_19  and  C_20
REMARK    8  A    between atoms: C_21  and  C_25
REMARK                            x       y       z     vdW  Elec       q    Type
REMARK                         _______ _______ _______ _____ _____    ______ ____
ROOT
ATOM      1  C   UNL     1       2.477   0.277   1.223  0.00  0.00    -0.095 C 
ATOM      2  N   UNL     1       2.405   1.023  -0.052  0.00  0.00    +0.389 N 
ATOM      3  H   UNL     1       2.252   0.358  -0.819  0.00  0.00    -0.081 HD
ENDROOT
BRANCH   2   4
ATOM      4  C   UNL     1       1.280   1.980  -0.014  0.00  0.00    +0.019 C 
BRANCH   4   5
ATOM      5  C   UNL     1      -0.014   1.209   0.006  0.00  0.00    +0.201 C 
ATOM      6  O   UNL     1       0.002  -0.004   0.007  0.00  0.00    -0.278 OA
ATOM      7  N   UNL     1      -1.191   1.867   0.018  0.00  0.00    -0.287 N 
ATOM      8  H   UNL     1      -1.205   2.833   0.098  0.00  0.00    +0.155 HD
BRANCH   7   9
ATOM      9  C   UNL     1      -2.388   1.157  -0.086  0.00  0.00    +0.041 A 
ATOM     10  C   UNL     1      -2.413  -0.080  -0.693  0.00  0.00    +0.024 A 
ATOM     11  C   UNL     1      -3.602  -0.796  -0.801  0.00  0.00    +0.002 A 
ATOM     12  C   UNL     1      -4.770  -0.297  -0.311  0.00  0.00    +0.008 A 
ATOM     13  C   UNL     1      -4.788   0.961   0.315  0.00  0.00    -0.016 A 
ATOM     14  C   UNL     1      -3.583   1.697   0.435  0.00  0.00    +0.003 A 
ATOM     15  C   UNL     1      -3.603   2.955   1.056  0.00  0.00    +0.010 A 
ATOM     16  C   UNL     1      -4.776   3.448   1.543  0.00  0.00    +0.001 A 
ATOM     17  C   UNL     1      -5.960   2.723   1.430  0.00  0.00    +0.001 A 
ATOM     18  C   UNL     1      -5.979   1.502   0.830  0.00  0.00    +0.008 A 
ENDBRANCH   7   9
ENDBRANCH   4   5
ENDBRANCH   2   4
BRANCH   2  19
ATOM     19  C   UNL     1       3.674   1.743  -0.288  0.00  0.00    +0.019 C 
BRANCH  19  20
ATOM     20  C   UNL     1       4.766   0.735  -0.541  0.00  0.00    +0.201 C 
ATOM     21  O   UNL     1       4.515  -0.451  -0.510  0.00  0.00    -0.278 OA
ATOM     22  N   UNL     1       6.020   1.152  -0.802  0.00  0.00    -0.281 N 
ATOM     23  H   UNL     1       6.221   2.101  -0.827  0.00  0.00    +0.155 HD
BRANCH  22  24
ATOM     24  C   UNL     1       7.025   0.225  -1.035  0.00  0.00    +0.084 A 
ATOM     25  C   UNL     1       8.364   0.457  -1.324  0.00  0.00    +0.065 A 
ATOM     26  C   UNL     1       9.197  -0.706  -1.519  0.00  0.00    +0.022 A 
ATOM     27  C   UNL     1       8.606  -1.910  -1.416  0.00  0.00    +0.048 A 
ATOM     28  S   UNL     1       6.912  -1.503  -1.045  0.00  0.00    -0.081 S 
BRANCH  25  29
ATOM     29  C   UNL     1       8.906   1.816  -1.421  0.00  0.00    +0.244 C 
ATOM     30  O   UNL     1       8.177   2.775  -1.248  0.00  0.00    -0.270 OA
ATOM     31  N   UNL     1      10.210   2.003  -1.703  0.00  0.00    -0.325 N 
ATOM     32  H   UNL     1      10.791   1.238  -1.841  0.00  0.00    +0.145 HD
ATOM     33  H   UNL     1      10.568   2.902  -1.767  0.00  0.00    +0.145 HD
ENDBRANCH  25  29
ENDBRANCH  22  24
ENDBRANCH  19  20
ENDBRANCH   2  19
TORSDOF 7
