REMARK  Name = ZINC09264219
REMARK  3 active torsions:
REMARK  status: ('A' for Active; 'I' for Inactive)
REMARK    1  A    between atoms: C_10  and  C_22
REMARK    2  A    between atoms: N_15  and  C_16
REMARK    3  A    between atoms: C_16  and  C_17
REMARK                            x       y       z     vdW  Elec       q    Type
REMARK                         _______ _______ _______ _____ _____    ______ ____
ROOT
ATOM      1  C   UNL     1       2.373   1.416  -0.047  0.00  0.00    +0.002 A 
ATOM      2  C   UNL     1       2.391   0.033  -0.089  0.00  0.00    +0.002 A 
ATOM      3  C   UNL     1       1.207  -0.683  -0.064  0.00  0.00    +0.025 A 
ATOM      4  C   UNL     1       0.002  -0.004   0.002  0.00  0.00    +0.060 A 
ATOM      5  C   UNL     1      -0.017   1.382   0.010  0.00  0.00    +0.053 A 
ATOM      6  C   UNL     1       1.169   2.098   0.002  0.00  0.00    +0.025 A 
ATOM      7  N   UNL     1      -1.258   2.005  -0.029  0.00  0.00    -0.316 N 
ATOM      8  C   UNL     1      -2.188   1.940   0.956  0.00  0.00    +0.017 C 
ATOM      9  C   UNL     1      -2.566   0.810   1.578  0.00  0.00    +0.040 C 
ATOM     10  C   UNL     1      -2.024  -0.574   1.310  0.00  0.00    +0.184 C 
ATOM     11  N   UNL     1      -1.215  -0.681   0.114  0.00  0.00    -0.239 N 
ATOM     12  C   UNL     1      -1.643  -1.447  -0.909  0.00  0.00    +0.308 C 
ATOM     13  O   UNL     1      -2.701  -2.041  -0.823  0.00  0.00    -0.252 OA
ATOM     14  N   UNL     1      -0.898  -1.555  -2.027  0.00  0.00    -0.292 N 
ATOM     15  C   UNL     1      -3.560   0.850   2.584  0.00  0.00    +0.163 C 
ATOM     16  O   UNL     1      -3.871  -0.184   3.142  0.00  0.00    -0.292 OA
ATOM     17  C   UNL     1      -4.243   2.122   2.986  0.00  0.00    +0.080 C 
ATOM     18  C   UNL     1      -4.251   3.074   1.784  0.00  0.00    +0.014 C 
ATOM     19  C   UNL     1      -2.803   3.275   1.341  0.00  0.00    +0.051 C 
ATOM     20  H   UNL     1      -1.475   2.525  -0.819  0.00  0.00    +0.152 HD
ATOM     21  H   UNL     1      -0.055  -1.082  -2.096  0.00  0.00    +0.151 HD
ENDROOT
BRANCH  10  22
ATOM     22  C   UNL     1      -1.190  -0.997   2.490  0.00  0.00    +0.130 A 
ATOM     23  C   UNL     1      -1.616  -1.737   3.530  0.00  0.00    +0.047 A 
ATOM     24  C   UNL     1      -0.513  -1.895   4.400  0.00  0.00    +0.041 A 
ATOM     25  C   UNL     1       0.522  -1.242   3.840  0.00  0.00    +0.195 A 
ATOM     26  O   UNL     1       0.107  -0.705   2.681  0.00  0.00    -0.466 OA
ENDBRANCH  10  22
BRANCH  14  27
ATOM     27  C   UNL     1      -1.364  -2.388  -3.139  0.00  0.00    +0.180 C 
BRANCH  27  28
ATOM     28  C   UNL     1      -0.357  -2.339  -4.259  0.00  0.00    +0.122 A 
ATOM     29  C   UNL     1       0.690  -3.171  -4.413  0.00  0.00    +0.046 A 
ATOM     30  C   UNL     1       1.363  -2.768  -5.589  0.00  0.00    +0.041 A 
ATOM     31  C   UNL     1       0.692  -1.710  -6.080  0.00  0.00    +0.195 A 
ATOM     32  O   UNL     1      -0.348  -1.455  -5.270  0.00  0.00    -0.466 OA
ENDBRANCH  27  28
ENDBRANCH  14  27
TORSDOF 3
