REMARK  Name = ZINC17288254
REMARK  3 active torsions:
REMARK  status: ('A' for Active; 'I' for Inactive)
REMARK    1  A    between atoms: C_7  and  N_15
REMARK    2  A    between atoms: C_16  and  C_18
REMARK    3  A    between atoms: C_19  and  C_20
REMARK                            x       y       z     vdW  Elec       q    Type
REMARK                         _______ _______ _______ _____ _____    ______ ____
ROOT
ATOM      1  C   UNL     1       3.657   1.444   0.794  0.00  0.00    +0.001 A 
ATOM      2  C   UNL     1       4.014   2.522   0.005  0.00  0.00    +0.004 A 
ATOM      3  C   UNL     1       3.068   3.140  -0.788  0.00  0.00    +0.046 A 
ATOM      4  C   UNL     1       1.755   2.682  -0.794  0.00  0.00    +0.134 A 
ATOM      5  C   UNL     1       1.401   1.601  -0.003  0.00  0.00    +0.020 A 
ATOM      6  C   UNL     1       2.353   0.986   0.790  0.00  0.00    +0.009 A 
ATOM      7  C   UNL     1      -0.013   1.086   0.008  0.00  0.00    +0.141 C 
ATOM      8  C   UNL     1      -0.763   1.579  -1.199  0.00  0.00    +0.020 A 
ATOM      9  C   UNL     1      -1.930   0.940  -1.580  0.00  0.00    +0.009 A 
ATOM     10  C   UNL     1      -2.635   1.378  -2.685  0.00  0.00    +0.001 A 
ATOM     11  C   UNL     1      -2.174   2.458  -3.416  0.00  0.00    +0.004 A 
ATOM     12  C   UNL     1      -1.011   3.099  -3.041  0.00  0.00    +0.046 A 
ATOM     13  C   UNL     1      -0.299   2.661  -1.929  0.00  0.00    +0.134 A 
ATOM     14  O   UNL     1       0.841   3.302  -1.578  0.00  0.00    -0.455 OA
ENDROOT
BRANCH   7  15
ATOM     15  N   UNL     1      -0.689   1.553   1.221  0.00  0.00    -0.301 N 
ATOM     16  C   UNL     1      -1.726   0.856   1.726  0.00  0.00    +0.238 C 
ATOM     17  O   UNL     1      -2.101  -0.162   1.173  0.00  0.00    -0.271 OA
ATOM     18  H   UNL     1      -0.390   2.365   1.660  0.00  0.00    +0.150 HD
BRANCH  16  19
ATOM     19  C   UNL     1      -2.379   1.308   2.897  0.00  0.00    +0.071 C 
ATOM     20  C   UNL     1      -3.423   0.606   3.405  0.00  0.00    +0.051 C 
BRANCH  20  21
ATOM     21  C   UNL     1      -4.076   1.058   4.577  0.00  0.00    +0.128 A 
ATOM     22  C   UNL     1      -5.148   0.450   5.197  0.00  0.00    +0.049 A 
ATOM     23  C   UNL     1      -5.462   1.236   6.316  0.00  0.00    +0.042 A 
ATOM     24  C   UNL     1      -4.596   2.274   6.330  0.00  0.00    +0.195 A 
ATOM     25  O   UNL     1      -3.765   2.164   5.285  0.00  0.00    -0.464 OA
ENDBRANCH  20  21
ENDBRANCH  16  19
ENDBRANCH   7  15
TORSDOF 3
