REMARK  Name = ZINC09970318
REMARK  15 active torsions:
REMARK  status: ('A' for Active; 'I' for Inactive)
REMARK    1  A    between atoms: C_1  and  C_2
REMARK    2  A    between atoms: C_2  and  C_39
REMARK    3  A    between atoms: C_4  and  C_38
REMARK    4  A    between atoms: C_5  and  C_37
REMARK    5  A    between atoms: C_7  and  C_27
REMARK    6  A    between atoms: C_7  and  O_28
REMARK    7  A    between atoms: C_8  and  C_26
REMARK    8  A    between atoms: C_9  and  C_25
REMARK    9  A    between atoms: C_10  and  C_11
REMARK   10  A    between atoms: C_10  and  O_12
REMARK   11  A    between atoms: O_12  and  C_13
REMARK   12  A    between atoms: C_21  and  C_23
REMARK   13  A    between atoms: C_21  and  C_24
REMARK   14  A    between atoms: O_28  and  C_29
REMARK   15  A    between atoms: C_29  and  C_31
REMARK                            x       y       z     vdW  Elec       q    Type
REMARK                         _______ _______ _______ _____ _____    ______ ____
ROOT
ATOM      1  C   UNL     1       0.269  -2.086   0.914  0.00  0.00    +0.074 C 
ATOM      2  C   UNL     1       0.609  -0.996   1.932  0.00  0.00    +0.166 C 
ATOM      3  O   UNL     1       0.538  -1.538   3.260  0.00  0.00    -0.337 OA
ATOM      4  C   UNL     1       1.840  -1.319   3.872  0.00  0.00    +0.134 C 
ATOM      5  C   UNL     1       2.746  -1.272   2.624  0.00  0.00    +0.143 C 
ATOM      6  O   UNL     1       1.950  -0.516   1.699  0.00  0.00    -0.336 OA
ATOM      7  C   UNL     1       4.091  -0.661   2.907  0.00  0.00    +0.174 C 
ATOM      8  C   UNL     1       4.034   0.663   3.618  0.00  0.00    +0.143 C 
ATOM      9  C   UNL     1       3.135   0.627   4.871  0.00  0.00    +0.134 C 
ATOM     10  C   UNL     1       1.771   0.067   4.512  0.00  0.00    +0.132 C 
ATOM     11  C   UNL     1       0.917  -0.015   5.778  0.00  0.00    +0.048 C 
ATOM     12  O   UNL     1       2.935   2.049   5.109  0.00  0.00    -0.337 OA
ATOM     13  C   UNL     1       3.086   2.705   3.840  0.00  0.00    +0.166 C 
ATOM     14  O   UNL     1       3.442   1.720   2.848  0.00  0.00    -0.336 OA
ATOM     15  C   UNL     1       1.768   3.376   3.448  0.00  0.00    +0.074 C 
ATOM     16  C   UNL     1       4.189   3.761   3.935  0.00  0.00    +0.074 C 
ATOM     17  C   UNL     1       3.787  -0.093   6.052  0.00  0.00    +0.048 C 
ATOM     18  C   UNL     1       5.449   1.081   4.024  0.00  0.00    +0.049 C 
ATOM     19  C   UNL     1       4.824  -0.465   1.579  0.00  0.00    +0.062 C 
ATOM     20  C   UNL     1       2.937  -2.691   2.084  0.00  0.00    +0.049 C 
ATOM     21  C   UNL     1       2.236  -2.423   4.854  0.00  0.00    +0.048 C 
ATOM     22  C   UNL     1      -0.383   0.161   1.795  0.00  0.00    +0.074 C 
ENDROOT
BRANCH  10  23
ATOM     23  O   UNL     1       1.148   0.968   3.595  0.00  0.00    -0.339 OA
BRANCH  23  24
ATOM     24  C   UNL     1      -0.187   1.331   3.953  0.00  0.00    +0.251 C 
ATOM     25  C   UNL     1      -0.465   2.766   3.497  0.00  0.00    +0.061 C 
ATOM     26  C   UNL     1      -1.876   3.168   3.937  0.00  0.00    +0.007 C 
ATOM     27  C   UNL     1      -1.990   3.008   5.456  0.00  0.00    +0.028 C 
ATOM     28  C   UNL     1      -1.653   1.564   5.837  0.00  0.00    +0.163 C 
ATOM     29  O   UNL     1      -0.340   1.245   5.371  0.00  0.00    -0.351 OA
ENDBRANCH  23  24
ENDBRANCH  10  23
BRANCH   7  30
ATOM     30  O   UNL     1       4.856  -1.589   3.721  0.00  0.00    -0.449 OA
BRANCH  30  31
ATOM     31  C   UNL     1       5.382  -2.660   3.096  0.00  0.00    +0.340 C 
ATOM     32  O   UNL     1       5.274  -2.774   1.892  0.00  0.00    -0.245 OA
BRANCH  31  33
ATOM     33  C   UNL     1       6.090  -3.696   3.876  0.00  0.00    +0.059 A 
ATOM     34  C   UNL     1       6.220  -3.565   5.260  0.00  0.00    +0.015 A 
ATOM     35  C   UNL     1       6.879  -4.538   5.983  0.00  0.00    +0.001 A 
ATOM     36  C   UNL     1       7.419  -5.637   5.338  0.00  0.00    +0.000 A 
ATOM     37  C   UNL     1       7.297  -5.770   3.966  0.00  0.00    +0.001 A 
ATOM     38  C   UNL     1       6.637  -4.807   3.232  0.00  0.00    +0.015 A 
ENDBRANCH  31  33
ENDBRANCH  30  31
ENDBRANCH   7  30
TORSDOF 5
