REMARK  Name = ZINC02354428
REMARK  9 active torsions:
REMARK  status: ('A' for Active; 'I' for Inactive)
REMARK    1  A    between atoms: C_1  and  O_2
REMARK    2  A    between atoms: O_2  and  C_3
REMARK    3  A    between atoms: C_5  and  N_13
REMARK    4  A    between atoms: C_7  and  O_11
REMARK    5  A    between atoms: C_8  and  O_9
REMARK    6  A    between atoms: O_9  and  C_10
REMARK    7  A    between atoms: O_11  and  C_12
REMARK    8  A    between atoms: N_28  and  C_31
REMARK    9  A    between atoms: C_31  and  C_32
REMARK                            x       y       z     vdW  Elec       q    Type
REMARK                         _______ _______ _______ _____ _____    ______ ____
ROOT
ATOM      1  N   UNL     1       2.362   0.323  -4.159  0.00  0.00    -0.276 N 
ATOM      2  C   UNL     1       1.920   0.358  -5.457  0.00  0.00    +0.156 A 
ATOM      3  C   UNL     1       2.729   1.241  -6.183  0.00  0.00    +0.111 A 
ATOM      4  C   UNL     1       3.727   1.770  -5.245  0.00  0.00    +0.123 A 
ATOM      5  C   UNL     1       3.445   1.164  -3.990  0.00  0.00    +0.167 A 
ATOM      6  N   UNL     1       4.184   1.455  -2.938  0.00  0.00    -0.225 NA
ATOM      7  C   UNL     1       5.196   2.323  -3.051  0.00  0.00    +0.092 A 
ATOM      8  C   UNL     1       5.995   2.646  -1.941  0.00  0.00    +0.030 A 
ATOM      9  C   UNL     1       7.019   3.531  -2.079  0.00  0.00    +0.002 A 
ATOM     10  C   UNL     1       7.292   4.127  -3.310  0.00  0.00    +0.002 A 
ATOM     11  C   UNL     1       6.540   3.840  -4.407  0.00  0.00    +0.030 A 
ATOM     12  C   UNL     1       5.473   2.929  -4.303  0.00  0.00    +0.090 A 
ATOM     13  N   UNL     1       4.725   2.626  -5.369  0.00  0.00    -0.241 NA
ATOM     14  C   UNL     1       2.464   1.443  -7.554  0.00  0.00    +0.266 A 
ATOM     15  O   UNL     1       3.147   2.204  -8.218  0.00  0.00    -0.267 OA
ATOM     16  N   UNL     1       1.433   0.769  -8.112  0.00  0.00    -0.291 N 
ATOM     17  C   UNL     1       0.684  -0.072  -7.359  0.00  0.00    +0.204 A 
ATOM     18  N   UNL     1       0.917  -0.269  -6.091  0.00  0.00    -0.219 NA
ENDROOT
BRANCH   1  21
ATOM     19  C   UNL     1       0.606  -0.608  -1.056  0.00  0.00    +0.167 A 
ATOM     20  C   UNL     1       1.173   0.160  -2.062  0.00  0.00    +0.076 A 
ATOM     21  C   UNL     1       1.789  -0.455  -3.142  0.00  0.00    +0.057 A 
ATOM     22  C   UNL     1       1.839  -1.840  -3.217  0.00  0.00    +0.076 A 
ATOM     23  C   UNL     1       1.274  -2.610  -2.213  0.00  0.00    +0.167 A 
ATOM     24  C   UNL     1       0.661  -1.994  -1.128  0.00  0.00    +0.204 A 
BRANCH  19  26
ATOM     25  C   UNL     1      -0.017   1.425   0.010  0.00  0.00    +0.277 C 
ATOM     26  O   UNL     1       0.002  -0.004   0.002  0.00  0.00    -0.491 OA
ENDBRANCH  19  26
BRANCH  24  27
ATOM     27  O   UNL     1       0.110  -2.750  -0.138  0.00  0.00    -0.488 OA
ATOM     28  C   UNL     1      -1.261  -3.121  -0.292  0.00  0.00    +0.277 C 
ENDBRANCH  24  27
BRANCH  23  29
ATOM     29  O   UNL     1       1.322  -3.967  -2.287  0.00  0.00    -0.491 OA
ATOM     30  C   UNL     1       1.972  -4.532  -3.427  0.00  0.00    +0.277 C 
ENDBRANCH  23  29
ENDBRANCH   1  21
BRANCH  16  31
ATOM     31  C   UNL     1       1.125   0.950  -9.533  0.00  0.00    +0.200 C 
BRANCH  31  32
ATOM     32  C   UNL     1       1.894  -0.058 -10.346  0.00  0.00    +0.125 A 
ATOM     33  C   UNL     1       1.466  -1.287 -10.685  0.00  0.00    +0.046 A 
ATOM     34  C   UNL     1       2.498  -1.886 -11.443  0.00  0.00    +0.041 A 
ATOM     35  C   UNL     1       3.496  -0.987 -11.522  0.00  0.00    +0.195 A 
ATOM     36  O   UNL     1       3.122   0.120 -10.860  0.00  0.00    -0.466 OA
ENDBRANCH  31  32
ENDBRANCH  16  31
TORSDOF 6
