REMARK  Name = ZINC10966816
REMARK  4 active torsions:
REMARK  status: ('A' for Active; 'I' for Inactive)
REMARK    1  A    between atoms: C_1  and  N_2
REMARK    2  A    between atoms: N_11  and  C_25
REMARK    3  A    between atoms: C_14  and  C_17
REMARK    4  A    between atoms: C_25  and  C_26
REMARK                            x       y       z     vdW  Elec       q    Type
REMARK                         _______ _______ _______ _____ _____    ______ ____
ROOT
ATOM      1  C   UNL     1      -3.383   1.890   2.152  0.00  0.00    +0.155 C 
ATOM      2  N   UNL     1      -2.123   2.606   2.369  0.00  0.00    -0.281 N 
ATOM      3  C   UNL     1      -1.905   3.813   1.740  0.00  0.00    +0.155 A 
ATOM      4  C   UNL     1      -0.724   4.468   1.946  0.00  0.00    +0.152 A 
ATOM      5  C   UNL     1       0.243   3.894   2.803  0.00  0.00    +0.280 A 
ATOM      6  O   UNL     1       1.303   4.461   3.001  0.00  0.00    -0.265 OA
ATOM      7  N   UNL     1      -0.020   2.714   3.400  0.00  0.00    -0.273 N 
ATOM      8  H   UNL     1       0.660   2.303   4.007  0.00  0.00    +0.173 HD
ATOM      9  C   UNL     1      -1.189   2.084   3.184  0.00  0.00    +0.331 A 
ATOM     10  O   UNL     1      -1.404   1.021   3.733  0.00  0.00    -0.246 OA
ATOM     11  N   UNL     1      -0.753   5.647   1.199  0.00  0.00    -0.298 N 
ATOM     12  C   UNL     1      -1.962   5.692   0.545  0.00  0.00    +0.239 A 
ATOM     13  N   UNL     1      -2.665   4.567   0.879  0.00  0.00    -0.244 N 
ATOM     14  C   UNL     1      -3.860   4.659   0.202  0.00  0.00    +0.175 A 
ATOM     15  N   UNL     1      -3.830   5.782  -0.479  0.00  0.00    -0.127 NA
ATOM     16  N   UNL     1      -2.715   6.389  -0.279  0.00  0.00    -0.110 NA
ENDROOT
BRANCH  14  17
ATOM     17  C   UNL     1      -4.966   3.680   0.235  0.00  0.00    +0.073 A 
ATOM     18  C   UNL     1      -4.941   2.563  -0.606  0.00  0.00    +0.135 A 
ATOM     19  C   UNL     1      -5.977   1.649  -0.564  0.00  0.00    +0.039 A 
ATOM     20  C   UNL     1      -7.041   1.843   0.298  0.00  0.00    +0.004 A 
ATOM     21  C   UNL     1      -7.075   2.949   1.129  0.00  0.00    +0.021 A 
ATOM     22  C   UNL     1      -6.044   3.868   1.103  0.00  0.00    +0.054 A 
ATOM     23 CL   UNL     1      -6.089   5.255   2.146  0.00  0.00    -0.083 Cl
ATOM     24  F   UNL     1      -3.906   2.375  -1.452  0.00  0.00    -0.205 F 
ENDBRANCH  14  17
BRANCH  11  25
ATOM     25  C   UNL     1       0.309   6.653   1.126  0.00  0.00    +0.163 C 
BRANCH  25  26
ATOM     26  C   UNL     1       1.009   6.549  -0.205  0.00  0.00    +0.009 A 
ATOM     27  C   UNL     1       2.101   5.712  -0.348  0.00  0.00    +0.047 A 
ATOM     28  C   UNL     1       2.740   5.612  -1.572  0.00  0.00    +0.020 A 
ATOM     29  C   UNL     1       2.293   6.357  -2.647  0.00  0.00    +0.003 A 
ATOM     30  C   UNL     1       1.206   7.197  -2.503  0.00  0.00    +0.020 A 
ATOM     31  C   UNL     1       0.563   7.293  -1.282  0.00  0.00    +0.047 A 
ATOM     32 CL   UNL     1      -0.804   8.348  -1.101  0.00  0.00    -0.083 Cl
ATOM     33 CL   UNL     1       2.667   4.783   1.004  0.00  0.00    -0.083 Cl
ENDBRANCH  25  26
ENDBRANCH  11  25
TORSDOF 3
