REMARK  Name = ZINC36586952
REMARK  16 active torsions:
REMARK  status: ('A' for Active; 'I' for Inactive)
REMARK    1  A    between atoms: C_1  and  C_2
REMARK    2  A    between atoms: C_2  and  C_4
REMARK    3  A    between atoms: C_2  and  C_10
REMARK    4  A    between atoms: C_10  and  C_12
REMARK    5  A    between atoms: C_10  and  N_19
REMARK    6  A    between atoms: N_14  and  C_15
REMARK    7  A    between atoms: C_15  and  C_16
REMARK    8  A    between atoms: C_15  and  C_17
REMARK    9  A    between atoms: C_15  and  C_18
REMARK   10  A    between atoms: N_19  and  C_30
REMARK   11  A    between atoms: C_20  and  C_22
REMARK   12  A    between atoms: C_26  and  O_29
REMARK   13  A    between atoms: C_27  and  O_28
REMARK   14  A    between atoms: C_30  and  C_31
REMARK   15  A    between atoms: C_30  and  C_32
REMARK   16  A    between atoms: C_30  and  C_33
REMARK                            x       y       z     vdW  Elec       q    Type
REMARK                         _______ _______ _______ _____ _____    ______ ____
ROOT
ATOM      1  C   UNL     1      -2.583  -0.523  -0.456  0.00  0.00    +0.170 C 
ENDROOT
BRANCH   1   2
ATOM      2  C   UNL     1      -3.011   0.580  -1.390  0.00  0.00    +0.235 C 
ATOM      3  O   UNL     1      -3.353   1.654  -0.944  0.00  0.00    -0.274 OA
ATOM      4  N   UNL     1      -3.014   0.371  -2.722  0.00  0.00    -0.309 N 
ATOM      5  H   UNL     1      -2.592  -0.421  -3.090  0.00  0.00    +0.149 HD
BRANCH   4   6
ATOM      6  C   UNL     1      -3.653   1.342  -3.614  0.00  0.00    +0.026 C 
ATOM      7  C   UNL     1      -2.914   2.679  -3.526  0.00  0.00    +0.031 C 
ATOM      8  C   UNL     1      -3.601   0.824  -5.053  0.00  0.00    +0.031 C 
ATOM      9  C   UNL     1      -5.111   1.536  -3.195  0.00  0.00    +0.031 C 
ENDBRANCH   4   6
ENDBRANCH   1   2
BRANCH   1  10
ATOM     10  N   UNL     1      -2.738  -0.076   0.930  0.00  0.00    -0.280 N 
ATOM     11  C   UNL     1      -2.183   1.086   1.329  0.00  0.00    +0.251 C 
ATOM     12  O   UNL     1      -2.084   1.337   2.515  0.00  0.00    -0.270 OA
BRANCH  11  13
ATOM     13  C   UNL     1      -1.694   2.052   0.328  0.00  0.00    +0.082 A 
ATOM     14  C   UNL     1      -1.340   1.618  -0.953  0.00  0.00    +0.017 A 
ATOM     15  C   UNL     1      -0.884   2.524  -1.886  0.00  0.00    +0.005 A 
ATOM     16  C   UNL     1      -0.773   3.866  -1.562  0.00  0.00    +0.049 A 
ATOM     17  C   UNL     1      -1.119   4.311  -0.298  0.00  0.00    +0.159 A 
ATOM     18  C   UNL     1      -1.587   3.409   0.654  0.00  0.00    +0.171 A 
BRANCH  18  19
ATOM     19  O   UNL     1      -1.932   3.843   1.893  0.00  0.00    -0.503 OA
ATOM     20  H   UNL     1      -1.204   3.837   2.529  0.00  0.00    +0.292 HD
ENDBRANCH  18  19
BRANCH  17  21
ATOM     21  O   UNL     1      -1.007   5.631   0.013  0.00  0.00    -0.503 OA
ATOM     22  H   UNL     1      -1.804   6.147  -0.171  0.00  0.00    +0.292 HD
ENDBRANCH  17  21
ENDBRANCH  11  13
BRANCH  10  23
ATOM     23  C   UNL     1      -3.496  -0.891   1.883  0.00  0.00    +0.030 C 
ATOM     24  C   UNL     1      -3.966  -2.174   1.195  0.00  0.00    +0.031 C 
ATOM     25  C   UNL     1      -2.603  -1.247   3.073  0.00  0.00    +0.031 C 
ATOM     26  C   UNL     1      -4.711  -0.102   2.375  0.00  0.00    +0.031 C 
ENDBRANCH  10  23
ENDBRANCH   1  10
BRANCH   1  28
ATOM     27  C   UNL     1      -0.938  -1.247  -2.192  0.00  0.00    +0.015 C 
ATOM     28  C   UNL     1      -1.117  -0.874  -0.719  0.00  0.00    +0.045 C 
BRANCH  28  29
ATOM     29  C   UNL     1      -0.717  -2.040   0.148  0.00  0.00    -0.042 A 
ATOM     30  C   UNL     1      -1.271  -3.287  -0.073  0.00  0.00    +0.004 A 
ATOM     31  C   UNL     1      -0.904  -4.357   0.722  0.00  0.00    +0.000 A 
ATOM     32  C   UNL     1       0.018  -4.180   1.737  0.00  0.00    +0.000 A 
ATOM     33  C   UNL     1       0.573  -2.933   1.956  0.00  0.00    +0.000 A 
ATOM     34  C   UNL     1       0.209  -1.864   1.159  0.00  0.00    +0.004 A 
ENDBRANCH  28  29
ENDBRANCH   1  28
TORSDOF 9
