REMARK  Name = ZINC39325368
REMARK  7 active torsions:
REMARK  status: ('A' for Active; 'I' for Inactive)
REMARK    1  A    between atoms: C_4  and  C_7
REMARK    2  A    between atoms: C_7  and  C_8
REMARK    3  A    between atoms: C_8  and  N_9
REMARK    4  A    between atoms: N_9  and  C_10
REMARK    5  A    between atoms: N_9  and  S_27
REMARK    6  A    between atoms: C_10  and  C_11
REMARK    7  A    between atoms: S_27  and  C_30
REMARK                            x       y       z     vdW  Elec       q    Type
REMARK                         _______ _______ _______ _____ _____    ______ ____
ROOT
ATOM      1  N   UNL     1       5.509  -1.770   1.388  0.00  0.00    -0.175 NA
ENDROOT
BRANCH   1   2
ATOM      2  S   UNL     1       5.554  -3.395   1.073  0.00  0.00    +0.061 S 
ATOM      3  O   UNL     1       6.896  -3.812   1.285  0.00  0.00    -0.153 OA
ATOM      4  O   UNL     1       4.458  -3.973   1.768  0.00  0.00    -0.153 OA
BRANCH   2   5
ATOM      5  C   UNL     1       5.227  -3.602  -0.645  0.00  0.00    +0.106 A 
ATOM      6  C   UNL     1       3.926  -3.755  -1.087  0.00  0.00    +0.031 A 
ATOM      7  C   UNL     1       3.669  -3.916  -2.436  0.00  0.00    +0.040 A 
ATOM      8  C   UNL     1       4.714  -3.925  -3.344  0.00  0.00    +0.124 A 
ATOM      9  C   UNL     1       6.016  -3.772  -2.900  0.00  0.00    +0.040 A 
ATOM     10  C   UNL     1       6.271  -3.605  -1.552  0.00  0.00    +0.031 A 
ATOM     11  F   UNL     1       4.463  -4.084  -4.662  0.00  0.00    -0.205 F 
ENDBRANCH   2   5
ENDBRANCH   1   2
BRANCH   1  12
ATOM     12  C   UNL     1       4.282  -1.157   1.903  0.00  0.00    +0.114 C 
BRANCH  12  13
ATOM     13  C   UNL     1       3.482  -0.565   0.741  0.00  0.00    +0.052 C 
BRANCH  13  17
ATOM     14  C   UNL     1      -0.097   1.222   2.240  0.00  0.00    +0.000 A 
ATOM     15  C   UNL     1       1.058   1.974   2.132  0.00  0.00    +0.000 A 
ATOM     16  C   UNL     1       2.216   1.396   1.647  0.00  0.00    +0.003 A 
ATOM     17  C   UNL     1       2.219   0.066   1.270  0.00  0.00    -0.046 A 
ATOM     18  C   UNL     1       1.065  -0.686   1.379  0.00  0.00    +0.003 A 
ATOM     19  C   UNL     1      -0.094  -0.108   1.862  0.00  0.00    +0.000 A 
ENDBRANCH  13  17
ENDBRANCH  12  13
ENDBRANCH   1  12
BRANCH   1  20
ATOM     20  C   UNL     1       6.697  -0.945   1.152  0.00  0.00    +0.126 C 
BRANCH  20  21
ATOM     21  C   UNL     1       7.268  -0.477   2.493  0.00  0.00    +0.114 C 
ATOM     22  C   UNL     1       7.585  -1.709   3.317  0.00  0.00    -0.003 C 
ATOM     23  C   UNL     1       8.868  -1.866   3.739  0.00  0.00    -0.003 A 
ATOM     24  C   UNL     1       9.256  -3.027   4.541  0.00  0.00    +0.059 A 
ATOM     25  C   UNL     1      10.548  -3.156   4.948  0.00  0.00    +0.163 A 
ATOM     26  C   UNL     1      11.518  -2.192   4.607  0.00  0.00    +0.164 A 
ATOM     27  C   UNL     1      11.202  -1.078   3.855  0.00  0.00    +0.073 A 
ATOM     28  C   UNL     1       9.896  -0.866   3.396  0.00  0.00    +0.044 A 
ATOM     29  N   UNL     1       9.613   0.218   2.670  0.00  0.00    -0.284 N 
ATOM     30  C   UNL     1       8.404   0.477   2.205  0.00  0.00    +0.225 C 
ATOM     31  O   UNL     1       8.207   1.482   1.548  0.00  0.00    -0.275 OA
ATOM     32  O   UNL     1      12.807  -2.345   5.014  0.00  0.00    -0.485 OA
ATOM     33  C   UNL     1      13.043  -3.262   6.086  0.00  0.00    +0.270 C 
ATOM     34  C   UNL     1      12.278  -4.558   5.788  0.00  0.00    +0.270 C 
ATOM     35  O   UNL     1      10.884  -4.244   5.698  0.00  0.00    -0.485 OA
ATOM     36  H   UNL     1      10.328   0.843   2.474  0.00  0.00    +0.155 HD
ENDBRANCH  20  21
ENDBRANCH   1  20
TORSDOF 7
