REMARK  Name = ZINC09581584
REMARK  10 active torsions:
REMARK  status: ('A' for Active; 'I' for Inactive)
REMARK    1  A    between atoms: C_1  and  C_2
REMARK    2  A    between atoms: C_2  and  O_3
REMARK    3  A    between atoms: O_3  and  C_4
REMARK    4  A    between atoms: C_4  and  C_6
REMARK    5  A    between atoms: C_6  and  C_7
REMARK    6  A    between atoms: C_7  and  N_8
REMARK    7  A    between atoms: C_12  and  S_30
REMARK    8  A    between atoms: N_17  and  C_18
REMARK    9  A    between atoms: C_18  and  C_20
REMARK   10  A    between atoms: S_30  and  N_33
REMARK                            x       y       z     vdW  Elec       q    Type
REMARK                         _______ _______ _______ _____ _____    ______ ____
ROOT
ATOM      1  N   UNL     1       5.529   7.918  -1.230  0.00  0.00    -0.321 N 
ATOM      2  C   UNL     1       5.495   9.245  -1.616  0.00  0.00    +0.058 A 
ATOM      3  C   UNL     1       6.568  10.139  -1.756  0.00  0.00    +0.029 A 
ATOM      4  C   UNL     1       6.354  11.437  -2.154  0.00  0.00    +0.030 A 
ATOM      5  C   UNL     1       5.078  11.903  -2.428  0.00  0.00    +0.106 A 
ATOM      6  C   UNL     1       4.002  11.043  -2.298  0.00  0.00    +0.045 A 
ATOM      7  C   UNL     1       4.215   9.744  -1.900  0.00  0.00    +0.041 A 
ATOM      8  S   UNL     1       3.160   8.345  -1.619  0.00  0.00    -0.052 S 
ATOM      9  C   UNL     1       4.376   7.201  -1.149  0.00  0.00    +0.167 A 
ATOM     10  N   UNL     1       4.219   5.928  -0.800  0.00  0.00    -0.152 NA
ENDROOT
BRANCH   5  11
ATOM     11  S   UNL     1       4.829  13.572  -2.936  0.00  0.00    +0.056 S 
ATOM     12  O   UNL     1       3.488  13.902  -2.602  0.00  0.00    -0.153 OA
ATOM     13  O   UNL     1       5.940  14.314  -2.452  0.00  0.00    -0.153 OA
BRANCH  11  14
ATOM     14  N   UNL     1       4.926  13.600  -4.589  0.00  0.00    -0.204 NA
ATOM     15  H   UNL     1       5.094  12.779  -5.079  0.00  0.00    +0.144 HD
ATOM     16  H   UNL     1       4.815  14.436  -5.067  0.00  0.00    +0.144 HD
ENDBRANCH  11  14
ENDBRANCH   5  11
BRANCH  10  17
ATOM     17  C   UNL     1       2.997   5.387  -0.778  0.00  0.00    +0.269 C 
ATOM     18  O   UNL     1       2.027   6.061  -1.078  0.00  0.00    -0.268 OA
BRANCH  17  19
ATOM     19  C   UNL     1       2.822   3.969  -0.388  0.00  0.00    +0.039 A 
ATOM     20  C   UNL     1       3.929   3.193  -0.044  0.00  0.00    +0.013 A 
ATOM     21  C   UNL     1       3.752   1.875   0.313  0.00  0.00    +0.004 A 
ATOM     22  C   UNL     1       2.482   1.309   0.336  0.00  0.00    -0.044 A 
ATOM     23  C   UNL     1       1.384   2.072   0.000  0.00  0.00    -0.043 A 
ATOM     24  C   UNL     1       1.552   3.400  -0.364  0.00  0.00    +0.017 A 
ATOM     25  C   UNL     1      -0.019   1.523   0.010  0.00  0.00    +0.035 C 
ATOM     26  C   UNL     1       0.002  -0.004   0.002  0.00  0.00    +0.005 C 
ATOM     27  C   UNL     1       0.933  -0.481   1.123  0.00  0.00    +0.005 C 
ATOM     28  C   UNL     1       2.370  -0.140   0.733  0.00  0.00    +0.035 C 
ENDBRANCH  17  19
ENDBRANCH  10  17
BRANCH   1  29
ATOM     29  C   UNL     1       6.809   7.283  -0.907  0.00  0.00    +0.135 C 
BRANCH  29  30
ATOM     30  C   UNL     1       7.406   6.665  -2.173  0.00  0.00    +0.142 C 
BRANCH  30  31
ATOM     31  C   UNL     1       8.723   6.011  -1.841  0.00  0.00    +0.309 C 
ATOM     32  O   UNL     1       9.141   6.037  -0.707  0.00  0.00    -0.251 OA
BRANCH  31  33
ATOM     33  O   UNL     1       9.431   5.401  -2.804  0.00  0.00    -0.465 OA
BRANCH  33  35
ATOM     34  C   UNL     1      11.349   4.151  -3.633  0.00  0.00    +0.048 C 
ATOM     35  C   UNL     1      10.690   4.793  -2.411  0.00  0.00    +0.229 C 
ENDBRANCH  33  35
ENDBRANCH  31  33
ENDBRANCH  30  31
ENDBRANCH  29  30
ENDBRANCH   1  29
TORSDOF 9
