REMARK  Name = ZINC07449467
REMARK  5 active torsions:
REMARK  status: ('A' for Active; 'I' for Inactive)
REMARK    1  A    between atoms: C_1  and  N_2
REMARK    2  A    between atoms: C_7  and  N_19
REMARK    3  A    between atoms: N_11  and  C_12
REMARK    4  A    between atoms: N_19  and  C_20
REMARK    5  A    between atoms: C_20  and  C_21
REMARK                            x       y       z     vdW  Elec       q    Type
REMARK                         _______ _______ _______ _____ _____    ______ ____
ROOT
ATOM      1  C   UNL     1       2.713   8.633   0.480  0.00  0.00    +0.174 C 
ATOM      2  N   UNL     1       3.699   7.551   0.425  0.00  0.00    -0.249 N 
ATOM      3  C   UNL     1       3.420   6.222   0.307  0.00  0.00    +0.165 A 
ATOM      4  C   UNL     1       4.659   5.552   0.294  0.00  0.00    +0.078 A 
ATOM      5  C   UNL     1       5.663   6.538   0.408  0.00  0.00    +0.148 A 
ATOM      6  N   UNL     1       5.090   7.705   0.484  0.00  0.00    -0.177 NA
ATOM      7  C   UNL     1       4.660   4.148   0.180  0.00  0.00    +0.135 A 
ATOM      8  N   UNL     1       3.495   3.519   0.090  0.00  0.00    -0.199 NA
ATOM      9  C   UNL     1       2.349   4.190   0.106  0.00  0.00    +0.223 A 
ATOM     10  N   UNL     1       2.301   5.508   0.206  0.00  0.00    -0.195 NA
ATOM     11  N   UNL     1       1.162   3.485   0.009  0.00  0.00    -0.284 N 
ATOM     12  H   UNL     1       0.319   3.960  -0.062  0.00  0.00    +0.155 HD
ENDROOT
BRANCH  11  13
ATOM     13  C   UNL     1       1.177   2.086   0.013  0.00  0.00    +0.034 A 
ATOM     14  C   UNL     1       2.122   1.403   0.767  0.00  0.00    +0.024 A 
ATOM     15  C   UNL     1       2.134   0.022   0.769  0.00  0.00    +0.017 A 
ATOM     16  C   UNL     1       1.206  -0.681   0.022  0.00  0.00    +0.018 A 
ATOM     17  C   UNL     1       0.262  -0.003  -0.729  0.00  0.00    +0.017 A 
ATOM     18  C   UNL     1       0.245   1.378  -0.736  0.00  0.00    +0.024 A 
ATOM     19 BR   UNL     1       1.226  -2.572   0.028  0.00  0.00    -0.050 Br
ENDBRANCH  11  13
BRANCH   7  20
ATOM     20  N   UNL     1       5.847   3.442   0.162  0.00  0.00    -0.324 N 
ATOM     21  H   UNL     1       6.693   3.912   0.228  0.00  0.00    +0.148 HD
BRANCH  20  22
ATOM     22  C   UNL     1       5.829   1.982   0.042  0.00  0.00    +0.138 C 
BRANCH  22  23
ATOM     23  C   UNL     1       7.243   1.460   0.046  0.00  0.00    -0.030 A 
ATOM     24  C   UNL     1       7.929   1.312  -1.145  0.00  0.00    +0.005 A 
ATOM     25  C   UNL     1       9.227   0.839  -1.141  0.00  0.00    +0.000 A 
ATOM     26  C   UNL     1       9.836   0.502   0.054  0.00  0.00    +0.000 A 
ATOM     27  C   UNL     1       9.148   0.644   1.244  0.00  0.00    +0.000 A 
ATOM     28  C   UNL     1       7.852   1.123   1.241  0.00  0.00    +0.005 A 
ENDBRANCH  22  23
ENDBRANCH  20  22
ENDBRANCH   7  20
TORSDOF 4
