REMARK  Name = ZINC01126979
REMARK  9 active torsions:
REMARK  status: ('A' for Active; 'I' for Inactive)
REMARK    1  A    between atoms: C_1  and  C_2
REMARK    2  A    between atoms: C_2  and  O_3
REMARK    3  A    between atoms: O_3  and  C_4
REMARK    4  A    between atoms: C_6  and  C_13
REMARK    5  A    between atoms: C_9  and  O_10
REMARK    6  A    between atoms: C_15  and  C_22
REMARK    7  A    between atoms: C_16  and  C_21
REMARK    8  A    between atoms: C_22  and  O_24
REMARK    9  A    between atoms: O_24  and  C_25
REMARK                            x       y       z     vdW  Elec       q    Type
REMARK                         _______ _______ _______ _____ _____    ______ ____
ROOT
ATOM      1  C   UNL     1       5.147   3.430  -0.043  0.00  0.00    +0.145 C 
ATOM      2  C   UNL     1       6.074   2.253  -0.275  0.00  0.00    +0.078 C 
ATOM      3  C   UNL     1       7.007   1.993   0.666  0.00  0.00    +0.021 C 
ATOM      4  N   UNL     1       7.111   2.765   1.787  0.00  0.00    -0.273 N 
ATOM      5  C   UNL     1       6.320   3.815   2.043  0.00  0.00    +0.304 C 
ATOM      6  O   UNL     1       6.488   4.442   3.070  0.00  0.00    -0.252 OA
ATOM      7  N   UNL     1       5.343   4.197   1.198  0.00  0.00    -0.288 N 
ATOM      8  C   UNL     1       7.948   0.832   0.475  0.00  0.00    +0.061 C 
ATOM      9  H   UNL     1       7.797   2.540   2.436  0.00  0.00    +0.156 HD
ATOM     10  H   UNL     1       4.781   4.961   1.403  0.00  0.00    +0.151 HD
ENDROOT
BRANCH   1  13
ATOM     11  C   UNL     1       1.823   2.064   1.123  0.00  0.00    +0.163 A 
ATOM     12  C   UNL     1       3.128   2.533   1.130  0.00  0.00    +0.056 A 
ATOM     13  C   UNL     1       3.731   2.915  -0.054  0.00  0.00    +0.001 A 
ATOM     14  C   UNL     1       3.038   2.826  -1.248  0.00  0.00    +0.064 A 
ATOM     15  C   UNL     1       1.737   2.353  -1.261  0.00  0.00    +0.081 A 
ATOM     16  C   UNL     1       1.127   1.969  -0.077  0.00  0.00    +0.174 A 
ATOM     17 BR   UNL     1       0.792   2.232  -2.895  0.00  0.00    -0.045 Br
ATOM     18 CL   UNL     1       3.801   3.307  -2.731  0.00  0.00    -0.082 Cl
BRANCH  16  19
ATOM     19  O   UNL     1      -0.151   1.504  -0.088  0.00  0.00    -0.503 OA
ATOM     20  H   UNL     1      -0.220   0.546  -0.204  0.00  0.00    +0.292 HD
ENDBRANCH  16  19
BRANCH  11  21
ATOM     21  O   UNL     1       1.227   1.693   2.288  0.00  0.00    -0.489 OA
BRANCH  21  23
ATOM     22  C   UNL     1       1.170   1.357   4.681  0.00  0.00    +0.048 C 
ATOM     23  C   UNL     1       2.002   1.819   3.482  0.00  0.00    +0.226 C 
ENDBRANCH  21  23
ENDBRANCH  11  21
ENDBRANCH   1  13
BRANCH   2  24
ATOM     24  C   UNL     1       5.965   1.455  -1.438  0.00  0.00    +0.338 C 
ATOM     25  O   UNL     1       6.461   1.832  -2.483  0.00  0.00    -0.245 OA
BRANCH  24  26
ATOM     26  O   UNL     1       5.312   0.276  -1.388  0.00  0.00    -0.465 OA
ATOM     27  C   UNL     1       5.332  -0.528  -2.570  0.00  0.00    +0.280 C 
ENDBRANCH  24  26
ENDBRANCH   2  24
TORSDOF 6
