REMARK  Name = ZINC11915940
REMARK  6 active torsions:
REMARK  status: ('A' for Active; 'I' for Inactive)
REMARK    1  A    between atoms: C_6  and  C_7
REMARK    2  A    between atoms: C_9  and  C_12
REMARK    3  A    between atoms: N_14  and  C_15
REMARK    4  A    between atoms: C_16  and  C_24
REMARK    5  A    between atoms: N_26  and  C_27
REMARK    6  A    between atoms: C_27  and  C_28
REMARK                            x       y       z     vdW  Elec       q    Type
REMARK                         _______ _______ _______ _____ _____    ______ ____
ROOT
ATOM      1  C   UNL     1      -2.399   6.367  -1.601  0.00  0.00    +0.085 A 
ATOM      2  C   UNL     1      -1.364   5.665  -2.202  0.00  0.00    +0.069 A 
ATOM      3  C   UNL     1      -0.293   6.436  -2.809  0.00  0.00    -0.023 A 
ATOM      4  C   UNL     1      -0.432   7.777  -2.728  0.00  0.00    -0.004 A 
ATOM      5  S   UNL     1      -1.950   8.022  -1.850  0.00  0.00    -0.077 S 
ATOM      6  C   UNL     1       0.505   8.817  -3.261  0.00  0.00    +0.043 C 
ATOM      7  C   UNL     1       1.847   8.137  -3.582  0.00  0.00    +0.005 C 
ATOM      8  C   UNL     1       1.568   6.869  -4.394  0.00  0.00    +0.005 C 
ATOM      9  C   UNL     1       0.913   5.813  -3.502  0.00  0.00    +0.037 C 
ENDROOT
BRANCH   1  12
ATOM     10  C   UNL     1      -4.426   6.712  -0.428  0.00  0.00    +0.270 C 
ATOM     11  O   UNL     1      -4.261   7.912  -0.516  0.00  0.00    -0.268 OA
ATOM     12  N   UNL     1      -3.519   5.867  -0.957  0.00  0.00    -0.274 N 
ATOM     13  H   UNL     1      -3.651   4.908  -0.888  0.00  0.00    +0.156 HD
BRANCH  10  16
ATOM     14  C   UNL     1      -7.517   5.974   1.351  0.00  0.00    +0.168 A 
ATOM     15  C   UNL     1      -6.663   6.928   0.870  0.00  0.00    +0.086 A 
ATOM     16  C   UNL     1      -5.625   6.176   0.260  0.00  0.00    +0.169 A 
ATOM     17  N   UNL     1      -5.936   4.914   0.431  0.00  0.00    -0.073 NA
ATOM     18  O   UNL     1      -6.977   4.785   1.032  0.00  0.00    -0.354 OA
BRANCH  14  24
ATOM     19  C   UNL     1      -9.211   7.507   2.345  0.00  0.00    +0.013 A 
ATOM     20  C   UNL     1     -10.393   7.716   3.025  0.00  0.00    +0.021 A 
ATOM     21  C   UNL     1     -11.148   6.637   3.454  0.00  0.00    +0.041 A 
ATOM     22  C   UNL     1     -10.724   5.343   3.200  0.00  0.00    +0.021 A 
ATOM     23  C   UNL     1      -9.546   5.122   2.518  0.00  0.00    +0.013 A 
ATOM     24  C   UNL     1      -8.781   6.205   2.083  0.00  0.00    +0.020 A 
ATOM     25 CL   UNL     1     -12.632   6.908   4.314  0.00  0.00    -0.084 Cl
ENDBRANCH  14  24
ENDBRANCH  10  16
ENDBRANCH   1  12
BRANCH   2  26
ATOM     26  C   UNL     1      -1.349   4.199  -2.219  0.00  0.00    +0.247 C 
ATOM     27  O   UNL     1      -1.870   3.595  -3.139  0.00  0.00    -0.270 OA
ATOM     28  N   UNL     1      -0.759   3.519  -1.216  0.00  0.00    -0.309 N 
ATOM     29  H   UNL     1      -0.344   4.000  -0.483  0.00  0.00    +0.149 HD
BRANCH  28  30
ATOM     30  C   UNL     1      -0.745   2.054  -1.233  0.00  0.00    +0.136 C 
BRANCH  30  31
ATOM     31  C   UNL     1      -0.019   1.537   0.011  0.00  0.00    +0.135 C 
ATOM     32  C   UNL     1       0.002  -0.004   0.002  0.00  0.00    +0.035 C 
ATOM     33  C   UNL     1       1.508  -0.363   0.039  0.00  0.00    +0.031 C 
ATOM     34  C   UNL     1       2.138   0.935   0.603  0.00  0.00    +0.160 C 
ATOM     35  O   UNL     1       1.348   1.983  -0.000  0.00  0.00    -0.375 OA
ENDBRANCH  30  31
ENDBRANCH  28  30
ENDBRANCH   2  26
TORSDOF 6
