REMARK  Name = ZINC39835041
REMARK  8 active torsions:
REMARK  status: ('A' for Active; 'I' for Inactive)
REMARK    1  A    between atoms: C_1  and  C_2
REMARK    2  A    between atoms: C_5  and  N_8
REMARK    3  A    between atoms: N_10  and  C_30
REMARK    4  A    between atoms: C_11  and  C_14
REMARK    5  A    between atoms: C_17  and  S_20
REMARK    6  A    between atoms: S_20  and  N_23
REMARK    7  A    between atoms: C_30  and  C_31
REMARK    8  A    between atoms: C_31  and  C_32
REMARK                            x       y       z     vdW  Elec       q    Type
REMARK                         _______ _______ _______ _____ _____    ______ ____
ROOT
ATOM      1  N   UNL     1       0.592  -4.196   0.471  0.00  0.00    -0.295 N 
ATOM      2  C   UNL     1       0.418  -5.087   1.519  0.00  0.00    +0.143 A 
ATOM      3  N   UNL     1       0.108  -6.370   1.482  0.00  0.00    -0.322 N 
ATOM      4  C   UNL     1      -0.019  -7.079   2.601  0.00  0.00    +0.057 A 
ATOM      5  C   UNL     1       0.175  -6.467   3.807  0.00  0.00    +0.074 A 
ATOM      6  S   UNL     1       0.562  -4.803   3.278  0.00  0.00    -0.062 S 
ATOM      7  H   UNL     1       0.400  -4.474  -0.438  0.00  0.00    +0.154 HD
ENDROOT
BRANCH   1  12
ATOM      8  C   UNL     1       2.427   1.071   1.497  0.00  0.00    +0.044 C 
ATOM      9  C   UNL     1       1.939  -0.328   1.225  0.00  0.00    -0.050 A 
ATOM     10  C   UNL     1       2.361  -1.374   2.025  0.00  0.00    +0.005 A 
ATOM     11  C   UNL     1       1.916  -2.658   1.778  0.00  0.00    +0.023 A 
ATOM     12  C   UNL     1       1.044  -2.898   0.724  0.00  0.00    +0.033 A 
ATOM     13  C   UNL     1       0.622  -1.845  -0.078  0.00  0.00    +0.023 A 
ATOM     14  C   UNL     1       1.066  -0.563   0.178  0.00  0.00    +0.005 A 
ENDBRANCH   1  12
BRANCH   4  15
ATOM     15  C   UNL     1      -0.369  -8.519   2.539  0.00  0.00    -0.001 A 
ATOM     16  C   UNL     1       0.113  -9.312   1.499  0.00  0.00    +0.012 A 
ATOM     17  C   UNL     1      -0.215 -10.651   1.447  0.00  0.00    +0.029 A 
ATOM     18  C   UNL     1      -1.021 -11.207   2.425  0.00  0.00    +0.106 A 
ATOM     19  C   UNL     1      -1.502 -10.425   3.459  0.00  0.00    +0.029 A 
ATOM     20  C   UNL     1      -1.176  -9.086   3.525  0.00  0.00    +0.012 A 
BRANCH  18  21
ATOM     21  S   UNL     1      -1.437 -12.918   2.352  0.00  0.00    +0.061 S 
ATOM     22  O   UNL     1      -2.647 -13.073   3.080  0.00  0.00    -0.153 OA
ATOM     23  O   UNL     1      -1.311 -13.309   0.991  0.00  0.00    -0.153 OA
BRANCH  21  24
ATOM     24  N   UNL     1      -0.270 -13.741   3.190  0.00  0.00    -0.177 NA
ATOM     25  C   UNL     1       0.901 -14.201   2.478  0.00  0.00    +0.109 C 
ATOM     26  C   UNL     1       0.641 -15.617   1.909  0.00  0.00    +0.017 C 
ATOM     27  C   UNL     1       0.610 -16.607   2.996  0.00  0.00    +0.001 C 
ATOM     28  C   UNL     1      -0.512 -16.395   4.008  0.00  0.00    +0.001 C 
ATOM     29  C   UNL     1      -0.063 -15.401   5.051  0.00  0.00    +0.017 C 
ATOM     30  C   UNL     1      -0.466 -13.971   4.635  0.00  0.00    +0.109 C 
ENDBRANCH  21  24
ENDBRANCH  18  21
ENDBRANCH   4  15
BRANCH   3  31
ATOM     31  C   UNL     1      -0.100  -7.023   0.188  0.00  0.00    +0.129 C 
BRANCH  31  32
ATOM     32  C   UNL     1       1.256  -7.342  -0.446  0.00  0.00    +0.057 C 
BRANCH  32  33
ATOM     33  C   UNL     1       1.046  -8.142  -1.706  0.00  0.00    -0.046 A 
ATOM     34  C   UNL     1       1.002  -9.522  -1.649  0.00  0.00    +0.004 A 
ATOM     35  C   UNL     1       0.809 -10.256  -2.805  0.00  0.00    +0.000 A 
ATOM     36  C   UNL     1       0.659  -9.609  -4.017  0.00  0.00    +0.000 A 
ATOM     37  C   UNL     1       0.702  -8.228  -4.074  0.00  0.00    +0.000 A 
ATOM     38  C   UNL     1       0.891  -7.495  -2.918  0.00  0.00    +0.004 A 
ENDBRANCH  32  33
ENDBRANCH  31  32
ENDBRANCH   3  31
TORSDOF 7
