REMARK  Name = ZINC40010451
REMARK  6 active torsions:
REMARK  status: ('A' for Active; 'I' for Inactive)
REMARK    1  A    between atoms: C_1  and  C_2
REMARK    2  A    between atoms: C_10  and  C_14
REMARK    3  A    between atoms: C_14  and  O_15
REMARK    4  A    between atoms: O_15  and  C_16
REMARK    5  A    between atoms: C_16  and  C_18
REMARK    6  A    between atoms: C_21  and  N_23
REMARK                            x       y       z     vdW  Elec       q    Type
REMARK                         _______ _______ _______ _____ _____    ______ ____
ROOT
ATOM      1  C   UNL     1      -0.019   1.526   0.010  0.00  0.00    +0.007 C 
ATOM      2  C   UNL     1       0.002  -0.004   0.002  0.00  0.00    -0.012 C 
ATOM      3  C   UNL     1      -1.433  -0.525  -0.005  0.00  0.00    +0.008 C 
ATOM      4  C   UNL     1      -1.445  -2.057  -0.096  0.00  0.00    +0.033 C 
ATOM      5  C   UNL     1      -0.553  -2.568   1.033  0.00  0.00    -0.042 C 
ATOM      6  C   UNL     1      -0.928  -3.448   1.962  0.00  0.00    +0.071 C 
ATOM      7  C   UNL     1      -0.010  -3.701   3.104  0.00  0.00    +0.112 C 
ATOM      8  N   UNL     1      -0.317  -4.516   4.085  0.00  0.00    -0.224 NA
ATOM      9  C   UNL     1      -1.498  -5.132   4.032  0.00  0.00    +0.161 C 
ATOM     10  N   UNL     1      -2.385  -4.990   3.081  0.00  0.00    -0.158 NA
ATOM     11  C   UNL     1      -2.232  -4.190   2.010  0.00  0.00    +0.271 C 
ATOM     12  O   UNL     1      -3.086  -4.076   1.147  0.00  0.00    -0.268 OA
ATOM     13  S   UNL     1       1.412  -2.712   2.765  0.00  0.00    -0.097 S 
ATOM     14  C   UNL     1       0.874  -2.028   1.151  0.00  0.00    +0.080 C 
ATOM     15  C   UNL     1       0.760  -0.504   1.236  0.00  0.00    +0.022 C 
ENDROOT
BRANCH   9  16
ATOM     16  C   UNL     1      -1.840  -6.069   5.162  0.00  0.00    +0.305 C 
BRANCH  16  17
ATOM     17  O   UNL     1      -3.134  -6.632   4.938  0.00  0.00    -0.453 OA
BRANCH  17  18
ATOM     18  C   UNL     1      -3.593  -7.499   5.865  0.00  0.00    +0.346 C 
ATOM     19  O   UNL     1      -2.912  -7.768   6.836  0.00  0.00    -0.244 OA
BRANCH  18  20
ATOM     20  C   UNL     1      -4.910  -8.115   5.701  0.00  0.00    +0.098 A 
ATOM     21  C   UNL     1      -5.564  -9.017   6.529  0.00  0.00    +0.025 A 
ATOM     22  C   UNL     1      -6.806  -9.422   6.107  0.00  0.00    +0.041 A 
ATOM     23  C   UNL     1      -7.301  -8.931   4.944  0.00  0.00    +0.164 A 
ATOM     24  S   UNL     1      -6.097  -7.898   4.389  0.00  0.00    -0.058 S 
BRANCH  23  25
ATOM     25  N   UNL     1      -8.604  -9.231   4.311  0.00  0.00    +0.063 N 
ATOM     26  O   UNL     1      -9.371 -10.000   4.842  0.00  0.00    -0.126 OA
ATOM     27  O   UNL     1      -8.902  -8.708   3.262  0.00  0.00    -0.126 OA
ENDBRANCH  23  25
ENDBRANCH  18  20
ENDBRANCH  17  18
ENDBRANCH  16  17
ENDBRANCH   9  16
TORSDOF 5
