REMARK  Name = ZINC12413789
REMARK  19 active torsions:
REMARK  status: ('A' for Active; 'I' for Inactive)
REMARK    1  A    between atoms: C_1  and  C_2
REMARK    2  A    between atoms: C_2  and  O_3
REMARK    3  A    between atoms: O_3  and  C_4
REMARK    4  A    between atoms: C_4  and  C_6
REMARK    5  A    between atoms: C_7  and  C_35
REMARK    6  A    between atoms: C_9  and  C_12
REMARK    7  A    between atoms: C_10  and  O_11
REMARK    8  A    between atoms: C_12  and  C_13
REMARK    9  A    between atoms: C_12  and  C_23
REMARK   10  A    between atoms: C_17  and  O_21
REMARK   11  A    between atoms: C_18  and  O_19
REMARK   12  A    between atoms: O_19  and  C_20
REMARK   13  A    between atoms: O_21  and  C_22
REMARK   14  A    between atoms: C_24  and  O_34
REMARK   15  A    between atoms: C_25  and  C_29
REMARK   16  A    between atoms: C_26  and  C_28
REMARK   17  A    between atoms: C_29  and  O_31
REMARK   18  A    between atoms: O_31  and  C_32
REMARK   19  A    between atoms: C_32  and  C_33
REMARK                            x       y       z     vdW  Elec       q    Type
REMARK                         _______ _______ _______ _____ _____    ______ ____
ROOT
ATOM      1  C   UNL     1       1.377   6.658   2.251  0.00  0.00    +0.103 C 
ENDROOT
BRANCH   1   5
ATOM      2  C   UNL     1       1.232   3.544   0.009  0.00  0.00    +0.110 A 
ATOM      3  C   UNL     1       1.248   4.272  -1.165  0.00  0.00    +0.005 A 
ATOM      4  S   UNL     1       1.318   5.913  -0.616  0.00  0.00    -0.093 S 
ATOM      5  C   UNL     1       1.325   5.637   1.143  0.00  0.00    +0.045 A 
ATOM      6  C   UNL     1       1.268   4.292   1.244  0.00  0.00    +0.142 A 
ATOM      7  C   UNL     1       1.214   3.761  -2.582  0.00  0.00    +0.052 C 
BRANCH   2   8
ATOM      8  C   UNL     1       1.175   2.076   0.002  0.00  0.00    +0.344 C 
ATOM      9  O   UNL     1       2.204   1.428  -0.011  0.00  0.00    -0.245 OA
BRANCH   8  10
ATOM     10  O   UNL     1      -0.018   1.448   0.010  0.00  0.00    -0.461 OA
BRANCH  10  12
ATOM     11  C   UNL     1      -1.433  -0.534   0.013  0.00  0.00    +0.048 C 
ATOM     12  C   UNL     1       0.002  -0.004   0.002  0.00  0.00    +0.229 C 
ENDBRANCH  10  12
ENDBRANCH   8  10
ENDBRANCH   2   8
BRANCH   6  13
ATOM     13  O   UNL     1       1.250   3.668   2.454  0.00  0.00    -0.505 OA
ATOM     14  H   UNL     1       2.127   3.454   2.799  0.00  0.00    +0.292 HD
ENDBRANCH   6  13
ENDBRANCH   1   5
BRANCH   1  15
ATOM     15  C   UNL     1       0.179   7.568   2.152  0.00  0.00    +0.011 A 
ATOM     16  C   UNL     1      -0.019   8.327   1.013  0.00  0.00    +0.008 A 
ATOM     17  C   UNL     1      -1.118   9.159   0.917  0.00  0.00    +0.004 A 
ATOM     18  C   UNL     1      -2.019   9.244   1.963  0.00  0.00    +0.049 A 
ATOM     19  C   UNL     1      -1.823   8.490   3.108  0.00  0.00    +0.162 A 
ATOM     20  C   UNL     1      -0.719   7.648   3.203  0.00  0.00    +0.166 A 
BRANCH  20  21
ATOM     21  O   UNL     1      -0.522   6.906   4.326  0.00  0.00    -0.491 OA
ATOM     22  C   UNL     1       0.252   7.502   5.369  0.00  0.00    +0.277 C 
ENDBRANCH  20  21
BRANCH  19  23
ATOM     23  O   UNL     1      -2.708   8.572   4.138  0.00  0.00    -0.491 OA
ATOM     24  C   UNL     1      -3.818   9.457   3.970  0.00  0.00    +0.277 C 
ENDBRANCH  19  23
ENDBRANCH   1  15
BRANCH   1  25
ATOM     25  C   UNL     1       2.638   7.472   2.126  0.00  0.00    +0.045 A 
ATOM     26  C   UNL     1       3.642   7.608   3.019  0.00  0.00    +0.142 A 
ATOM     27  C   UNL     1       4.747   8.456   2.639  0.00  0.00    +0.110 A 
ATOM     28  C   UNL     1       4.674   9.061   1.399  0.00  0.00    +0.005 A 
ATOM     29  S   UNL     1       3.165   8.495   0.766  0.00  0.00    -0.093 S 
ATOM     30  C   UNL     1       5.669   9.990   0.752  0.00  0.00    +0.052 C 
BRANCH  27  31
ATOM     31  C   UNL     1       5.893   8.670   3.532  0.00  0.00    +0.344 C 
ATOM     32  O   UNL     1       5.877   9.584   4.333  0.00  0.00    -0.245 OA
BRANCH  31  33
ATOM     33  O   UNL     1       6.963   7.853   3.463  0.00  0.00    -0.461 OA
BRANCH  33  34
ATOM     34  C   UNL     1       8.059   8.124   4.376  0.00  0.00    +0.229 C 
ATOM     35  C   UNL     1       9.175   7.101   4.152  0.00  0.00    +0.048 C 
ENDBRANCH  33  34
ENDBRANCH  31  33
ENDBRANCH  27  31
BRANCH  26  36
ATOM     36  O   UNL     1       3.615   6.971   4.222  0.00  0.00    -0.505 OA
ATOM     37  H   UNL     1       4.020   6.093   4.211  0.00  0.00    +0.292 HD
ENDBRANCH  26  36
ENDBRANCH   1  25
TORSDOF 13
