REMARK  Name = ZINC47138620
REMARK  11 active torsions:
REMARK  status: ('A' for Active; 'I' for Inactive)
REMARK    1  A    between atoms: C_1  and  C_2
REMARK    2  A    between atoms: C_7  and  C_8
REMARK    3  A    between atoms: N_9  and  N_10
REMARK    4  A    between atoms: N_12  and  C_29
REMARK    5  A    between atoms: C_16  and  C_17
REMARK    6  A    between atoms: C_19  and  O_26
REMARK    7  A    between atoms: C_20  and  O_25
REMARK    8  A    between atoms: C_21  and  O_23
REMARK    9  A    between atoms: O_23  and  C_24
REMARK   10  A    between atoms: O_26  and  C_27
REMARK   11  A    between atoms: C_29  and  C_30
REMARK                            x       y       z     vdW  Elec       q    Type
REMARK                         _______ _______ _______ _____ _____    ______ ____
ROOT
ATOM      1  N   UNL     1      -1.780   1.789   1.577  0.00  0.00    -0.126 NA
ATOM      2  C   UNL     1      -1.797   3.108   1.549  0.00  0.00    +0.190 C 
ATOM      3  N   UNL     1      -1.726   3.988   2.605  0.00  0.00    -0.237 N 
ATOM      4  C   UNL     1      -1.756   5.294   2.398  0.00  0.00    +0.259 C 
ATOM      5  O   UNL     1      -1.694   6.086   3.321  0.00  0.00    -0.269 OA
ATOM      6  C   UNL     1      -1.866   5.747   0.999  0.00  0.00    +0.078 C 
ATOM      7  C   UNL     1      -1.917   7.011   0.504  0.00  0.00    +0.028 C 
ATOM      8  S   UNL     1      -1.908   4.186   0.130  0.00  0.00    -0.047 S 
ENDROOT
BRANCH   7   9
ATOM      9  C   UNL     1      -2.167   7.229  -0.926  0.00  0.00    -0.017 A 
ATOM     10  C   UNL     1      -2.783   6.232  -1.692  0.00  0.00    +0.057 A 
ATOM     11  C   UNL     1      -3.017   6.442  -3.037  0.00  0.00    +0.166 A 
ATOM     12  C   UNL     1      -2.639   7.644  -3.633  0.00  0.00    +0.201 A 
ATOM     13  C   UNL     1      -2.025   8.637  -2.875  0.00  0.00    +0.166 A 
ATOM     14  C   UNL     1      -1.793   8.438  -1.527  0.00  0.00    +0.057 A 
BRANCH  13  15
ATOM     15  O   UNL     1      -1.657   9.808  -3.461  0.00  0.00    -0.491 OA
ATOM     16  C   UNL     1      -1.032  10.784  -2.625  0.00  0.00    +0.277 C 
ENDBRANCH  13  15
BRANCH  12  17
ATOM     17  O   UNL     1      -2.870   7.846  -4.957  0.00  0.00    -0.501 OA
ATOM     18  H   UNL     1      -3.728   8.248  -5.149  0.00  0.00    +0.292 HD
ENDBRANCH  12  17
BRANCH  11  19
ATOM     19  O   UNL     1      -3.616   5.475  -3.782  0.00  0.00    -0.491 OA
ATOM     20  C   UNL     1      -3.977   4.268  -3.107  0.00  0.00    +0.277 C 
ENDBRANCH  11  19
ENDBRANCH   7   9
BRANCH   1  22
ATOM     21  C   UNL     1      -1.778  -0.134   2.743  0.00  0.00    +0.143 C 
ATOM     22  N   UNL     1      -1.694   1.169   2.705  0.00  0.00    -0.155 NA
BRANCH  21  29
ATOM     23  C   UNL     1      -2.600  -2.907   2.820  0.00  0.00    +0.044 C 
ATOM     24  C   UNL     1      -2.251  -2.244   1.512  0.00  0.00    -0.042 A 
ATOM     25  C   UNL     1      -2.326  -2.955   0.334  0.00  0.00    +0.004 A 
ATOM     26  C   UNL     1      -2.006  -2.348  -0.868  0.00  0.00    +0.000 A 
ATOM     27  C   UNL     1      -1.608  -1.022  -0.897  0.00  0.00    +0.001 A 
ATOM     28  C   UNL     1      -1.528  -0.297   0.273  0.00  0.00    +0.010 A 
ATOM     29  C   UNL     1      -1.856  -0.902   1.491  0.00  0.00    -0.002 A 
ENDBRANCH  21  29
ENDBRANCH   1  22
BRANCH   3  30
ATOM     30  C   UNL     1      -1.618   3.473   3.972  0.00  0.00    +0.190 C 
BRANCH  30  31
ATOM     31  C   UNL     1      -0.164   3.311   4.334  0.00  0.00    +0.123 A 
ATOM     32  C   UNL     1       0.612   4.246   4.912  0.00  0.00    +0.046 A 
ATOM     33  C   UNL     1       1.895   3.674   5.069  0.00  0.00    +0.041 A 
ATOM     34  C   UNL     1       1.827   2.424   4.579  0.00  0.00    +0.195 A 
ATOM     35  O   UNL     1       0.576   2.207   4.140  0.00  0.00    -0.466 OA
ENDBRANCH  30  31
ENDBRANCH   3  30
TORSDOF 8
