REMARK  Name = ZINC06511819
REMARK  18 active torsions:
REMARK  status: ('A' for Active; 'I' for Inactive)
REMARK    1  A    between atoms: C_1  and  C_2
REMARK    2  A    between atoms: C_2  and  N_73
REMARK    3  A    between atoms: C_3  and  C_4
REMARK    4  A    between atoms: C_3  and  N_73
REMARK    5  A    between atoms: C_5  and  C_6
REMARK    6  A    between atoms: C_5  and  N_73
REMARK    7  A    between atoms: C_6  and  N_7
REMARK    8  A    between atoms: N_7  and  C_8
REMARK    9  A    between atoms: C_8  and  C_10
REMARK   10  A    between atoms: C_8  and  C_17
REMARK   11  A    between atoms: N_19  and  C_20
REMARK   12  A    between atoms: C_20  and  C_21
REMARK   13  A    between atoms: C_20  and  C_22
REMARK   14  A    between atoms: C_20  and  C_23
REMARK   15  A    between atoms: C_24  and  C_26
REMARK   16  A    between atoms: C_26  and  N_27
REMARK   17  A    between atoms: C_29  and  C_32
REMARK   18  A    between atoms: C_35  and  C_37
REMARK                            x       y       z     vdW  Elec       q    Type
REMARK                         _______ _______ _______ _____ _____    ______ ____
ROOT
ATOM      1  N   UNL     1       0.329   0.713   1.632  0.00  0.00    -0.286 N 
ATOM      2  C   UNL     1      -0.585  -0.220   1.964  0.00  0.00    +0.240 C 
ATOM      3  O   UNL     1      -1.445   0.037   2.780  0.00  0.00    -0.273 OA
ENDROOT
BRANCH   1   4
ATOM      4  C   UNL     1       1.368   0.403   0.647  0.00  0.00    +0.090 C 
BRANCH   4   5
ATOM      5  C   UNL     1       0.816   0.625  -0.763  0.00  0.00    -0.060 C 
BRANCH   5   6
ATOM      6  N   UNL     1       1.859   0.358  -1.776  0.00  0.00    +0.380 N 
ATOM      7  H   UNL     1       1.442   0.431  -2.711  0.00  0.00    -0.082 HD
BRANCH   6   9
ATOM      8  C   UNL     1       2.500   2.648  -2.338  0.00  0.00    -0.017 C 
ATOM      9  C   UNL     1       2.946   1.353  -1.656  0.00  0.00    -0.082 C 
ENDBRANCH   6   9
BRANCH   6  10
ATOM     10  C   UNL     1       2.401  -1.006  -1.596  0.00  0.00    -0.082 C 
ATOM     11  C   UNL     1       1.369  -2.015  -2.105  0.00  0.00    -0.017 C 
ENDBRANCH   6  10
ENDBRANCH   5   6
ENDBRANCH   4   5
ENDBRANCH   1   4
BRANCH   1  12
ATOM     12  C   UNL     1       0.284   2.038   2.256  0.00  0.00    +0.192 C 
BRANCH  12  13
ATOM     13  C   UNL     1      -1.059   2.670   1.995  0.00  0.00    -0.018 A 
ATOM     14  C   UNL     1      -1.676   2.500   0.770  0.00  0.00    +0.009 A 
ATOM     15  C   UNL     1      -2.910   3.076   0.531  0.00  0.00    +0.038 A 
ATOM     16  C   UNL     1      -3.522   3.832   1.516  0.00  0.00    +0.123 A 
ATOM     17  C   UNL     1      -2.901   4.006   2.741  0.00  0.00    +0.038 A 
ATOM     18  C   UNL     1      -1.670   3.425   2.979  0.00  0.00    +0.009 A 
ATOM     19  F   UNL     1      -4.725   4.400   1.282  0.00  0.00    -0.205 F 
ENDBRANCH  12  13
BRANCH  12  20
ATOM     20  C   UNL     1       1.370   2.905   1.674  0.00  0.00    +0.238 C 
ATOM     21  O   UNL     1       1.659   2.808   0.500  0.00  0.00    -0.273 OA
ATOM     22  N   UNL     1       2.019   3.788   2.457  0.00  0.00    -0.309 N 
ATOM     23  H   UNL     1       1.841   3.814   3.410  0.00  0.00    +0.149 HD
BRANCH  22  24
ATOM     24  C   UNL     1       2.995   4.710   1.869  0.00  0.00    +0.026 C 
ATOM     25  C   UNL     1       2.345   5.470   0.711  0.00  0.00    +0.031 C 
ATOM     26  C   UNL     1       3.462   5.705   2.933  0.00  0.00    +0.031 C 
ATOM     27  C   UNL     1       4.196   3.918   1.349  0.00  0.00    +0.031 C 
ENDBRANCH  22  24
ENDBRANCH  12  20
ENDBRANCH   1  12
BRANCH   2  28
ATOM     28  C   UNL     1      -0.539  -1.583   1.322  0.00  0.00    +0.264 C 
BRANCH  28  29
ATOM     29  N   UNL     1      -1.630  -2.407   1.847  0.00  0.00    -0.154 N 
ATOM     30  N   UNL     1      -1.554  -3.172   2.881  0.00  0.00    -0.127 NA
ATOM     31  C   UNL     1      -2.731  -3.749   3.043  0.00  0.00    +0.239 A 
ATOM     32  N   UNL     1      -3.517  -3.300   2.052  0.00  0.00    -0.105 NA
ATOM     33  N   UNL     1      -2.812  -2.485   1.344  0.00  0.00    -0.045 NA
BRANCH  31  34
ATOM     34  C   UNL     1      -3.108  -4.705   4.106  0.00  0.00    +0.175 A 
ATOM     35  C   UNL     1      -4.325  -5.289   4.259  0.00  0.00    +0.053 A 
ATOM     36  C   UNL     1      -4.237  -6.123   5.392  0.00  0.00    +0.045 A 
ATOM     37  C   UNL     1      -2.985  -6.001   5.874  0.00  0.00    +0.103 A 
ATOM     38  O   UNL     1      -2.305  -5.144   5.095  0.00  0.00    -0.457 OA
ATOM     39  C   UNL     1      -2.438  -6.709   7.087  0.00  0.00    +0.086 C 
ENDBRANCH  31  34
ENDBRANCH  28  29
ENDBRANCH   2  28
TORSDOF 12
