REMARK  Name = ZINC13033944
REMARK  9 active torsions:
REMARK  status: ('A' for Active; 'I' for Inactive)
REMARK    1  A    between atoms: C_4  and  C_7
REMARK    2  A    between atoms: C_7  and  C_8
REMARK    3  A    between atoms: C_8  and  N_9
REMARK    4  A    between atoms: C_10  and  C_14
REMARK    5  A    between atoms: C_14  and  N_63
REMARK    6  A    between atoms: C_15  and  C_16
REMARK    7  A    between atoms: C_15  and  N_63
REMARK    8  A    between atoms: C_21  and  C_22
REMARK    9  A    between atoms: C_21  and  N_63
REMARK                            x       y       z     vdW  Elec       q    Type
REMARK                         _______ _______ _______ _____ _____    ______ ____
ROOT
ATOM      1  N   UNL     1      -0.206   1.400   0.149  0.00  0.00    +0.390 N 
ATOM      2  H   UNL     1      -0.507   1.899   0.995  0.00  0.00    -0.080 HD
ENDROOT
BRANCH   1   3
ATOM      3  C   UNL     1       1.114   1.917  -0.269  0.00  0.00    +0.001 C 
BRANCH   3   5
ATOM      4  N   UNL     1       2.863   0.859   1.257  0.00  0.00    -0.231 N 
ATOM      5  C   UNL     1       2.049   1.874   0.912  0.00  0.00    +0.135 A 
ATOM      6  N   UNL     1       2.231   2.821   1.800  0.00  0.00    -0.115 NA
ATOM      7  N   UNL     1       3.106   2.406   2.651  0.00  0.00    -0.023 NA
ATOM      8  N   UNL     1       3.492   1.222   2.324  0.00  0.00    -0.044 NA
BRANCH   4   9
ATOM      9  C   UNL     1       3.008  -0.417   0.553  0.00  0.00    +0.152 C 
BRANCH   9  10
ATOM     10  C   UNL     1       4.108  -0.295  -0.503  0.00  0.00    +0.058 C 
BRANCH  10  14
ATOM     11  C   UNL     1       4.532  -4.016  -2.557  0.00  0.00    +0.000 A 
ATOM     12  C   UNL     1       3.651  -3.062  -3.030  0.00  0.00    +0.000 A 
ATOM     13  C   UNL     1       3.514  -1.858  -2.365  0.00  0.00    +0.004 A 
ATOM     14  C   UNL     1       4.258  -1.608  -1.228  0.00  0.00    -0.046 A 
ATOM     15  C   UNL     1       5.143  -2.560  -0.757  0.00  0.00    +0.004 A 
ATOM     16  C   UNL     1       5.276  -3.766  -1.419  0.00  0.00    +0.000 A 
ENDBRANCH  10  14
ENDBRANCH   9  10
ENDBRANCH   4   9
ENDBRANCH   3   5
ENDBRANCH   1   3
BRANCH   1  17
ATOM     17  C   UNL     1      -0.111  -0.044   0.452  0.00  0.00    -0.035 C 
BRANCH  17  18
ATOM     18  C   UNL     1      -1.432  -0.514   1.003  0.00  0.00    -0.027 A 
ATOM     19  C   UNL     1      -2.463  -1.112   0.356  0.00  0.00    +0.009 A 
ATOM     20  C   UNL     1      -3.590  -1.465   1.074  0.00  0.00    +0.008 A 
ATOM     21  C   UNL     1      -3.636  -1.193   2.401  0.00  0.00    +0.045 A 
ATOM     22  S   UNL     1      -2.050  -0.423   2.675  0.00  0.00    -0.103 S 
ENDBRANCH  17  18
ENDBRANCH   1  17
BRANCH   1  23
ATOM     23  C   UNL     1      -1.200   1.628  -0.921  0.00  0.00    -0.036 C 
BRANCH  23  24
ATOM     24  C   UNL     1      -1.525   3.098  -0.975  0.00  0.00    +0.001 A 
ATOM     25  C   UNL     1      -0.902   3.896  -1.879  0.00  0.00    +0.017 A 
ATOM     26  C   UNL     1      -1.243   5.317  -1.910  0.00  0.00    +0.002 A 
ATOM     27  C   UNL     1      -0.635   6.187  -2.824  0.00  0.00    +0.059 A 
ATOM     28  C   UNL     1      -0.974   7.523  -2.827  0.00  0.00    +0.163 A 
ATOM     29  C   UNL     1      -1.921   8.012  -1.922  0.00  0.00    +0.164 A 
ATOM     30  C   UNL     1      -2.527   7.159  -1.015  0.00  0.00    +0.075 A 
ATOM     31  C   UNL     1      -2.196   5.811  -0.998  0.00  0.00    +0.053 A 
ATOM     32  N   UNL     1      -2.790   4.947  -0.100  0.00  0.00    -0.322 N 
ATOM     33  H   UNL     1      -3.446   5.288   0.529  0.00  0.00    +0.169 HD
ATOM     34  C   UNL     1      -2.472   3.641  -0.083  0.00  0.00    +0.251 A 
ATOM     35  O   UNL     1      -3.017   2.907   0.725  0.00  0.00    -0.268 OA
ATOM     36  O   UNL     1      -2.263   9.328  -1.921  0.00  0.00    -0.485 OA
ATOM     37  C   UNL     1      -1.370  10.227  -2.587  0.00  0.00    +0.270 C 
ATOM     38  C   UNL     1      -1.004   9.621  -3.948  0.00  0.00    +0.270 C 
ATOM     39  O   UNL     1      -0.371   8.357  -3.720  0.00  0.00    -0.485 OA
ENDBRANCH  23  24
ENDBRANCH   1  23
TORSDOF 9
