REMARK  Name = ZINC41548862
REMARK  4 active torsions:
REMARK  status: ('A' for Active; 'I' for Inactive)
REMARK    1  A    between atoms: C_1  and  C_2
REMARK    2  A    between atoms: C_2  and  N_3
REMARK    3  A    between atoms: C_9  and  C_11
REMARK    4  A    between atoms: C_11  and  C_23
REMARK                            x       y       z     vdW  Elec       q    Type
REMARK                         _______ _______ _______ _____ _____    ______ ____
ROOT
ATOM      1  C   UNL     1       2.143  -1.272  -6.933  0.00  0.00    +0.258 C 
ATOM      2  C   UNL     1       2.780  -2.515  -7.503  0.00  0.00    +0.270 C 
ATOM      3  O   UNL     1       3.968  -2.533  -7.746  0.00  0.00    -0.271 OA
ATOM      4  N   UNL     1       2.023  -3.606  -7.741  0.00  0.00    -0.279 N 
ATOM      5  C   UNL     1       0.634  -3.525  -7.573  0.00  0.00    +0.077 A 
ATOM      6  C   UNL     1      -0.145  -4.671  -7.585  0.00  0.00    +0.047 A 
ATOM      7  C   UNL     1      -1.513  -4.575  -7.405  0.00  0.00    +0.043 A 
ATOM      8  C   UNL     1      -2.104  -3.339  -7.212  0.00  0.00    +0.024 A 
ATOM      9  C   UNL     1      -1.332  -2.192  -7.205  0.00  0.00    +0.049 A 
ATOM     10  C   UNL     1       0.037  -2.280  -7.390  0.00  0.00    +0.144 A 
ATOM     11  O   UNL     1       0.802  -1.155  -7.415  0.00  0.00    -0.465 OA
ATOM     12 CL   UNL     1      -2.491  -6.010  -7.422  0.00  0.00    -0.083 Cl
ATOM     13  C   UNL     1       2.947  -0.045  -7.364  0.00  0.00    +0.076 C 
ATOM     14  H   UNL     1       2.436  -4.437  -8.024  0.00  0.00    +0.155 HD
ENDROOT
BRANCH   1  21
ATOM     15  N   UNL     1       0.688  -0.476  -1.203  0.00  0.00    -0.270 N 
ATOM     16  C   UNL     1       1.740  -1.321  -1.237  0.00  0.00    +0.110 A 
ATOM     17  C   UNL     1       2.079  -1.510  -2.533  0.00  0.00    +0.065 A 
ATOM     18  C   UNL     1       1.200  -0.751  -3.323  0.00  0.00    +0.147 A 
ATOM     19  N   UNL     1       0.362  -0.135  -2.522  0.00  0.00    -0.156 NA
ATOM     20  N   UNL     1       1.213  -0.669  -4.722  0.00  0.00    -0.265 N 
ATOM     21  C   UNL     1       2.129  -1.360  -5.429  0.00  0.00    +0.271 C 
ATOM     22  O   UNL     1       2.943  -2.053  -4.854  0.00  0.00    -0.270 OA
ATOM     23  H   UNL     1       0.562  -0.116  -5.181  0.00  0.00    +0.156 HD
BRANCH  15  25
ATOM     24  C   UNL     1      -0.019   1.526   0.010  0.00  0.00    +0.029 C 
ATOM     25  C   UNL     1       0.002  -0.004   0.002  0.00  0.00    +0.140 C 
ENDBRANCH  15  25
ENDBRANCH   1  21
TORSDOF 2
