REMARK  Name = ZINC15016239
REMARK  5 active torsions:
REMARK  status: ('A' for Active; 'I' for Inactive)
REMARK    1  A    between atoms: C_2  and  C_3
REMARK    2  A    between atoms: C_3  and  S_4
REMARK    3  A    between atoms: S_4  and  C_5
REMARK    4  A    between atoms: C_18  and  C_21
REMARK    5  A    between atoms: C_26  and  C_27
REMARK                            x       y       z     vdW  Elec       q    Type
REMARK                         _______ _______ _______ _____ _____    ______ ____
ROOT
ATOM      1  C   UNL     1      -0.168  -0.440   2.734  0.00  0.00    +0.213 A 
ATOM      2  N   UNL     1      -0.330   0.058   3.956  0.00  0.00    -0.184 NA
ATOM      3  C   UNL     1       0.411  -0.408   4.947  0.00  0.00    +0.248 A 
ATOM      4  C   UNL     1       1.357  -1.421   4.670  0.00  0.00    +0.156 A 
ATOM      5  N   UNL     1       1.473  -1.868   3.429  0.00  0.00    -0.141 NA
ATOM      6  N   UNL     1       0.730  -1.387   2.493  0.00  0.00    -0.122 NA
ATOM      7  C   UNL     1       2.190  -1.961   5.765  0.00  0.00    +0.029 A 
ATOM      8  C   UNL     1       3.565  -2.107   5.628  0.00  0.00    +0.027 A 
ATOM      9  C   UNL     1       4.307  -2.628   6.670  0.00  0.00    +0.019 A 
ATOM     10  C   UNL     1       3.689  -3.007   7.850  0.00  0.00    +0.017 A 
ATOM     11  C   UNL     1       2.322  -2.862   8.001  0.00  0.00    +0.025 A 
ATOM     12  C   UNL     1       1.567  -2.335   6.970  0.00  0.00    +0.040 A 
ATOM     13  N   UNL     1       0.188  -2.141   7.101  0.00  0.00    -0.305 N 
ATOM     14  C   UNL     1      -0.326  -0.777   7.173  0.00  0.00    +0.297 C 
ATOM     15  O   UNL     1       0.287   0.071   6.208  0.00  0.00    -0.449 OA
ATOM     16 BR   UNL     1       6.179  -2.826   6.485  0.00  0.00    -0.050 Br
ATOM     17  H   UNL     1      -0.415  -2.899   7.145  0.00  0.00    +0.150 HD
ENDROOT
BRANCH  14  18
ATOM     18  C   UNL     1      -0.061  -0.223   8.549  0.00  0.00    +0.056 A 
ATOM     19  C   UNL     1       1.028  -0.471   9.310  0.00  0.00    +0.114 A 
ATOM     20  N   UNL     1       0.890   0.209  10.469  0.00  0.00    -0.284 N 
ATOM     21  H   UNL     1       1.543   0.215  11.226  0.00  0.00    +0.188 HD
ATOM     22  N   UNL     1      -0.326   0.902  10.425  0.00  0.00    -0.173 NA
ATOM     23  C   UNL     1      -0.901   0.649   9.268  0.00  0.00    +0.101 A 
BRANCH  23  24
ATOM     24  C   UNL     1      -2.205   1.186   8.805  0.00  0.00    +0.003 A 
ATOM     25  C   UNL     1      -2.349   1.637   7.495  0.00  0.00    +0.010 A 
ATOM     26  C   UNL     1      -3.566   2.129   7.068  0.00  0.00    +0.001 A 
ATOM     27  C   UNL     1      -4.637   2.186   7.941  0.00  0.00    +0.000 A 
ATOM     28  C   UNL     1      -4.497   1.745   9.245  0.00  0.00    +0.001 A 
ATOM     29  C   UNL     1      -3.287   1.245   9.681  0.00  0.00    +0.010 A 
ENDBRANCH  23  24
ENDBRANCH  14  18
BRANCH   1  30
ATOM     30  S   UNL     1      -1.157   0.172   1.411  0.00  0.00    -0.080 S 
BRANCH  30  31
ATOM     31  C   UNL     1      -0.514  -0.830   0.047  0.00  0.00    +0.104 C 
BRANCH  31  33
ATOM     32  C   UNL     1      -0.578   0.088  -2.214  0.00  0.00    +0.005 C 
ATOM     33  C   UNL     1      -1.234  -0.468  -1.226  0.00  0.00    -0.023 C 
ENDBRANCH  31  33
ENDBRANCH  30  31
ENDBRANCH   1  30
TORSDOF 5
