REMARK  Name = ZINC67642247
REMARK  5 active torsions:
REMARK  status: ('A' for Active; 'I' for Inactive)
REMARK    1  A    between atoms: C_4  and  C_7
REMARK    2  A    between atoms: C_7  and  C_8
REMARK    3  A    between atoms: N_18  and  C_19
REMARK    4  A    between atoms: C_19  and  C_20
REMARK    5  A    between atoms: C_23  and  C_25
REMARK                            x       y       z     vdW  Elec       q    Type
REMARK                         _______ _______ _______ _____ _____    ______ ____
ROOT
ATOM      1  C   UNL     1       4.002  -1.088   1.211  0.00  0.00    +0.110 C 
ATOM      2  C   UNL     1       5.397  -1.652   1.314  0.00  0.00    +0.054 A 
ATOM      3  C   UNL     1       5.765  -2.552   2.254  0.00  0.00    +0.039 A 
ATOM      4  N   UNL     1       7.078  -2.834   2.046  0.00  0.00    -0.349 N 
ATOM      5  H   UNL     1       7.625  -3.448   2.561  0.00  0.00    +0.166 HD
ATOM      6  C   UNL     1       7.477  -2.096   0.984  0.00  0.00    +0.171 A 
ATOM      7  N   UNL     1       6.461  -1.392   0.554  0.00  0.00    -0.348 N 
ATOM      8  C   UNL     1       4.828  -3.088   3.305  0.00  0.00    +0.070 C 
ATOM      9  C   UNL     1       3.598  -2.169   3.352  0.00  0.00    +0.091 C 
ATOM     10  N   UNL     1       3.095  -1.949   1.989  0.00  0.00    -0.286 NA
ATOM     11  H   UNL     1       6.480  -0.778  -0.197  0.00  0.00    +0.166 HD
ENDROOT
BRANCH   1  12
ATOM     12  C   UNL     1       3.561  -1.067  -0.255  0.00  0.00    +0.060 C 
BRANCH  12  16
ATOM     13  C   UNL     1       3.680  -5.033  -1.837  0.00  0.00    +0.000 A 
ATOM     14  C   UNL     1       2.560  -4.593  -1.157  0.00  0.00    +0.000 A 
ATOM     15  C   UNL     1       2.521  -3.310  -0.645  0.00  0.00    +0.004 A 
ATOM     16  C   UNL     1       3.604  -2.466  -0.812  0.00  0.00    -0.046 A 
ATOM     17  C   UNL     1       4.725  -2.906  -1.491  0.00  0.00    +0.004 A 
ATOM     18  C   UNL     1       4.763  -4.189  -2.005  0.00  0.00    +0.000 A 
ENDBRANCH  12  16
ENDBRANCH   1  12
BRANCH  10  19
ATOM     19  C   UNL     1       1.734  -1.395   2.013  0.00  0.00    +0.159 C 
BRANCH  19  20
ATOM     20  C   UNL     1       0.768  -2.456   2.474  0.00  0.00    +0.120 A 
ATOM     21  C   UNL     1       0.408  -2.688   3.751  0.00  0.00    +0.046 A 
ATOM     22  C   UNL     1      -0.507  -3.760   3.734  0.00  0.00    +0.052 A 
ATOM     23  C   UNL     1      -0.655  -4.127   2.433  0.00  0.00    +0.155 A 
ATOM     24  O   UNL     1       0.119  -3.324   1.680  0.00  0.00    -0.457 OA
BRANCH  23  25
ATOM     25  C   UNL     1      -1.522  -5.215   1.933  0.00  0.00    +0.127 A 
ATOM     26  C   UNL     1      -1.675  -5.602   0.585  0.00  0.00    +0.052 A 
ATOM     27  C   UNL     1      -2.550  -6.629   0.545  0.00  0.00    +0.105 A 
ATOM     28  N   UNL     1      -2.943  -6.892   1.811  0.00  0.00    -0.284 N 
ATOM     29  H   UNL     1      -3.570  -7.581   2.080  0.00  0.00    +0.188 HD
ATOM     30  N   UNL     1      -2.286  -6.000   2.667  0.00  0.00    -0.171 NA
ENDBRANCH  23  25
ENDBRANCH  19  20
ENDBRANCH  10  19
TORSDOF 5
