REMARK  Name = ZINC44714680
REMARK  8 active torsions:
REMARK  status: ('A' for Active; 'I' for Inactive)
REMARK    1  A    between atoms: C_1  and  C_2
REMARK    2  A    between atoms: C_3  and  C_14
REMARK    3  A    between atoms: C_6  and  C_12
REMARK    4  A    between atoms: C_14  and  C_15
REMARK    5  A    between atoms: C_15  and  N_16
REMARK    6  A    between atoms: C_17  and  C_19
REMARK    7  A    between atoms: C_30  and  C_32
REMARK    8  A    between atoms: N_36  and  C_37
REMARK                            x       y       z     vdW  Elec       q    Type
REMARK                         _______ _______ _______ _____ _____    ______ ____
ROOT
ATOM      1  C   UNL     1       2.014   1.373  -7.230  0.00  0.00    +0.100 C 
ATOM      2  C   UNL     1       1.471   2.817  -7.146  0.00  0.00    +0.121 C 
ATOM      3  N   UNL     1       2.647   3.638  -6.773  0.00  0.00    -0.295 N 
ATOM      4  C   UNL     1       3.767   3.053  -7.550  0.00  0.00    +0.115 C 
ATOM      5  C   UNL     1       3.520   1.532  -7.500  0.00  0.00    -0.004 C 
ATOM      6  C   UNL     1       3.889   0.892  -8.835  0.00  0.00    -0.010 C 
ATOM      7  C   UNL     1       5.400   1.011  -9.053  0.00  0.00    -0.082 C 
ATOM      8  N   UNL     1       6.109   0.343  -7.955  0.00  0.00    +0.379 N 
ATOM      9  C   UNL     1       5.821   1.023  -6.686  0.00  0.00    -0.082 C 
ATOM     10  C   UNL     1       4.328   0.904  -6.368  0.00  0.00    -0.010 C 
ATOM     11  C   UNL     1       2.690   4.681  -5.921  0.00  0.00    +0.265 C 
ATOM     12  O   UNL     1       3.686   5.377  -5.861  0.00  0.00    -0.268 OA
ATOM     13  H   UNL     1       5.806  -0.618  -7.896  0.00  0.00    -0.086 HD
ATOM     14  H   UNL     1       7.102   0.370  -8.132  0.00  0.00    -0.086 HD
ENDROOT
BRANCH  11  15
ATOM     15  C   UNL     1       1.535   4.977  -5.065  0.00  0.00    +0.124 A 
ATOM     16  C   UNL     1       0.497   4.138  -4.770  0.00  0.00    +0.143 A 
ATOM     17  N   UNL     1      -0.337   4.791  -3.962  0.00  0.00    -0.243 NA
ATOM     18  C   UNL     1       0.122   5.995  -3.734  0.00  0.00    +0.199 A 
ATOM     19  N   UNL     1       1.284   6.156  -4.392  0.00  0.00    -0.330 N 
ATOM     20  C   UNL     1       2.123   7.357  -4.396  0.00  0.00    +0.150 C 
ENDBRANCH  11  15
BRANCH   1  22
ATOM     21  N   UNL     1       1.597  -0.684  -5.921  0.00  0.00    -0.315 N 
ATOM     22  C   UNL     1       1.788   0.650  -5.928  0.00  0.00    +0.218 C 
ATOM     23  O   UNL     1       1.776   1.269  -4.885  0.00  0.00    -0.275 OA
ATOM     24  H   UNL     1       1.606  -1.180  -6.755  0.00  0.00    +0.149 HD
BRANCH  21  25
ATOM     25  C   UNL     1       1.377  -1.387  -4.655  0.00  0.00    +0.109 C 
BRANCH  25  26
ATOM     26  C   UNL     1       1.190  -2.881  -4.926  0.00  0.00    +0.056 C 
BRANCH  26  29
ATOM     27  C   UNL     1      -1.557  -3.407  -3.580  0.00  0.00    +0.063 C 
ATOM     28  C   UNL     1      -0.219  -3.836  -3.034  0.00  0.00    +0.017 A 
ATOM     29  C   UNL     1       0.964  -3.604  -3.623  0.00  0.00    -0.018 A 
ATOM     30  C   UNL     1       1.993  -4.187  -2.759  0.00  0.00    +0.004 A 
ATOM     31  C   UNL     1       3.382  -4.269  -2.829  0.00  0.00    +0.029 A 
ATOM     32  C   UNL     1       4.081  -4.912  -1.811  0.00  0.00    +0.052 A 
ATOM     33  C   UNL     1       3.387  -5.469  -0.727  0.00  0.00    +0.021 A 
ATOM     34  C   UNL     1       2.028  -5.390  -0.656  0.00  0.00    +0.027 A 
ATOM     35  C   UNL     1       1.309  -4.752  -1.665  0.00  0.00    +0.047 A 
ATOM     36  N   UNL     1      -0.031  -4.516  -1.861  0.00  0.00    -0.358 N 
ATOM     37  H   UNL     1      -0.739  -4.792  -1.258  0.00  0.00    +0.166 HD
BRANCH  32  38
ATOM     38  C   UNL     1       5.509  -5.003  -1.870  0.00  0.00    +0.099 C 
ATOM     39  N   UNL     1       6.641  -5.076  -1.917  0.00  0.00    -0.191 NA
ENDBRANCH  32  38
ENDBRANCH  26  29
ENDBRANCH  25  26
ENDBRANCH  21  25
ENDBRANCH   1  22
TORSDOF 6
