REMARK  Name = ZINC39728698
REMARK  8 active torsions:
REMARK  status: ('A' for Active; 'I' for Inactive)
REMARK    1  A    between atoms: C_1  and  C_2
REMARK    2  A    between atoms: C_2  and  C_3
REMARK    3  A    between atoms: C_2  and  C_4
REMARK    4  A    between atoms: N_11  and  O_12
REMARK    5  A    between atoms: O_12  and  C_13
REMARK    6  A    between atoms: C_13  and  C_14
REMARK    7  A    between atoms: N_25  and  C_30
REMARK    8  A    between atoms: N_28  and  C_29
REMARK                            x       y       z     vdW  Elec       q    Type
REMARK                         _______ _______ _______ _____ _____    ______ ____
ROOT
ATOM      1  C   UNL     1       0.881  -0.380   1.116  0.00  0.00    -0.001 C 
ATOM      2  C   UNL     1       0.433  -1.193   2.091  0.00  0.00    +0.118 C 
ATOM      3  N   UNL     1       1.184  -1.665   3.094  0.00  0.00    -0.243 NA
ATOM      4  C   UNL     1       2.433  -1.352   3.250  0.00  0.00    +0.123 C 
ATOM      5  C   UNL     1       3.050  -0.307   2.339  0.00  0.00    +0.191 C 
ATOM      6  C   UNL     1       2.227   0.090   1.132  0.00  0.00    +0.104 C 
ATOM      7  N   UNL     1       2.716   0.818   0.172  0.00  0.00    -0.088 NA
ATOM      8  C   UNL     1       4.353  -0.893   1.867  0.00  0.00    +0.239 C 
ATOM      9  O   UNL     1       4.788  -0.617   0.770  0.00  0.00    -0.274 OA
ATOM     10  N   UNL     1       5.032  -1.729   2.679  0.00  0.00    -0.228 N 
ATOM     11  C   UNL     1       4.537  -2.144   3.857  0.00  0.00    +0.316 C 
ATOM     12  O   UNL     1       5.268  -2.716   4.642  0.00  0.00    -0.252 OA
ATOM     13  N   UNL     1       3.242  -1.939   4.187  0.00  0.00    -0.245 N 
ATOM     14  C   UNL     1       2.722  -2.330   5.500  0.00  0.00    +0.141 C 
ATOM     15  C   UNL     1       6.355  -2.200   2.262  0.00  0.00    +0.143 C 
ENDROOT
BRANCH   1  17
ATOM     16  C   UNL     1      -1.315  -0.817   0.051  0.00  0.00    +0.012 C 
ATOM     17  C   UNL     1      -0.043   0.030  -0.002  0.00  0.00    +0.016 C 
ATOM     18  C   UNL     1      -0.407   1.508   0.153  0.00  0.00    +0.012 C 
ENDBRANCH   1  17
BRANCH   7  19
ATOM     19  O   UNL     1       1.947   1.064  -0.991  0.00  0.00    -0.384 OA
BRANCH  19  20
ATOM     20  C   UNL     1       2.607   1.878  -1.963  0.00  0.00    +0.358 C 
BRANCH  20  21
ATOM     21  C   UNL     1       1.703   2.075  -3.152  0.00  0.00    +0.256 C 
ATOM     22  O   UNL     1       0.602   1.567  -3.167  0.00  0.00    -0.272 OA
ATOM     23  N   UNL     1       2.119   2.814  -4.200  0.00  0.00    -0.299 N 
ATOM     24  C   UNL     1       3.439   3.400  -4.154  0.00  0.00    +0.108 C 
ATOM     25  C   UNL     1       3.364   4.800  -3.496  0.00  0.00    +0.019 C 
ATOM     26  C   UNL     1       2.702   5.754  -4.399  0.00  0.00    +0.002 C 
ATOM     27  C   UNL     1       1.252   5.411  -4.723  0.00  0.00    +0.002 C 
ATOM     28  C   UNL     1       1.214   4.437  -5.875  0.00  0.00    +0.019 C 
ATOM     29  C   UNL     1       1.208   2.987  -5.349  0.00  0.00    +0.108 C 
ENDBRANCH  20  21
ENDBRANCH  19  20
ENDBRANCH   7  19
TORSDOF 4
