REMARK  Name = ZINC15246118
REMARK  11 active torsions:
REMARK  status: ('A' for Active; 'I' for Inactive)
REMARK    1  A    between atoms: C_1  and  C_2
REMARK    2  A    between atoms: C_4  and  N_26
REMARK    3  A    between atoms: C_6  and  S_9
REMARK    4  A    between atoms: C_7  and  C_8
REMARK    5  A    between atoms: S_9  and  N_12
REMARK    6  A    between atoms: N_12  and  C_13
REMARK    7  A    between atoms: C_16  and  S_19
REMARK    8  A    between atoms: S_19  and  N_22
REMARK    9  A    between atoms: N_22  and  C_23
REMARK   10  A    between atoms: C_23  and  C_24
REMARK   11  A    between atoms: C_23  and  C_25
REMARK                            x       y       z     vdW  Elec       q    Type
REMARK                         _______ _______ _______ _____ _____    ______ ____
ROOT
ATOM      1  N   UNL     1      -3.009   3.059   4.748  0.00  0.00    -0.216 N 
ATOM      2  H   UNL     1      -3.969   2.923   4.730  0.00  0.00    +0.174 HD
ENDROOT
BRANCH   1   3
ATOM      3  C   UNL     1      -2.238   2.749   3.624  0.00  0.00    +0.048 A 
ATOM      4  C   UNL     1      -2.431   1.546   2.958  0.00  0.00    +0.026 A 
ATOM      5  C   UNL     1      -1.668   1.244   1.847  0.00  0.00    +0.030 A 
ATOM      6  C   UNL     1      -0.713   2.137   1.398  0.00  0.00    +0.105 A 
ATOM      7  C   UNL     1      -0.514   3.333   2.063  0.00  0.00    +0.030 A 
ATOM      8  C   UNL     1      -1.278   3.644   3.171  0.00  0.00    +0.026 A 
BRANCH   6   9
ATOM      9  S   UNL     1       0.259   1.747  -0.019  0.00  0.00    +0.059 S 
ATOM     10  O   UNL     1       0.261   0.331  -0.133  0.00  0.00    -0.153 OA
ATOM     11  O   UNL     1       1.456   2.505   0.088  0.00  0.00    -0.153 OA
BRANCH   9  12
ATOM     12  N   UNL     1      -0.551   2.327  -1.342  0.00  0.00    -0.187 NA
ATOM     13  H   UNL     1      -0.895   1.711  -2.008  0.00  0.00    +0.148 HD
BRANCH  12  14
ATOM     14  C   UNL     1      -0.748   3.769  -1.506  0.00  0.00    +0.070 C 
ATOM     15  C   UNL     1       0.362   4.338  -2.392  0.00  0.00    +0.025 C 
ATOM     16  C   UNL     1      -2.106   4.027  -2.162  0.00  0.00    +0.025 C 
ENDBRANCH  12  14
ENDBRANCH   9  12
ENDBRANCH   6   9
ENDBRANCH   1   3
BRANCH   1  17
ATOM     17  S   UNL     1      -2.282   3.657   6.110  0.00  0.00    +0.073 S 
ATOM     18  O   UNL     1      -1.499   4.769   5.698  0.00  0.00    -0.150 OA
ATOM     19  O   UNL     1      -3.298   3.765   7.098  0.00  0.00    -0.150 OA
BRANCH  17  25
ATOM     20  C   UNL     1      -1.251  -1.108   7.994  0.00  0.00    +0.044 C 
ATOM     21  C   UNL     1      -0.739   0.235   7.543  0.00  0.00    -0.044 A 
ATOM     22  C   UNL     1       0.617   0.505   7.577  0.00  0.00    +0.036 A 
ATOM     23  C   UNL     1       1.087   1.737   7.162  0.00  0.00    +0.128 A 
ATOM     24  C   UNL     1       0.201   2.700   6.714  0.00  0.00    +0.061 A 
ATOM     25  C   UNL     1      -1.154   2.430   6.681  0.00  0.00    +0.114 A 
ATOM     26  C   UNL     1      -1.624   1.200   7.100  0.00  0.00    -0.021 A 
ATOM     27  C   UNL     1      -3.103   0.908   7.070  0.00  0.00    +0.046 C 
BRANCH  23  28
ATOM     28  N   UNL     1       2.538   2.026   7.198  0.00  0.00    +0.056 N 
ATOM     29  O   UNL     1       2.952   3.111   6.833  0.00  0.00    -0.126 OA
ATOM     30  O   UNL     1       3.318   1.178   7.593  0.00  0.00    -0.126 OA
ENDBRANCH  23  28
ENDBRANCH  17  25
ENDBRANCH   1  17
TORSDOF 7
