REMARK  Name = ZINC39379086
REMARK  4 active torsions:
REMARK  status: ('A' for Active; 'I' for Inactive)
REMARK    1  A    between atoms: C_1  and  O_2
REMARK    2  A    between atoms: O_2  and  C_3
REMARK    3  A    between atoms: C_6  and  C_10
REMARK    4  A    between atoms: N_11  and  N_12
REMARK                            x       y       z     vdW  Elec       q    Type
REMARK                         _______ _______ _______ _____ _____    ______ ____
ROOT
ATOM      1  N   UNL     1       3.275  -4.466   5.410  0.00  0.00    -0.206 N 
ATOM      2  C   UNL     1       3.335  -5.843   5.463  0.00  0.00    +0.227 C 
ATOM      3  N   UNL     1       2.782  -6.524   4.487  0.00  0.00    -0.220 NA
ATOM      4  C   UNL     1       2.782  -7.981   4.590  0.00  0.00    +0.253 C 
ATOM      5  C   UNL     1       4.004  -8.352   5.418  0.00  0.00    +0.115 C 
ATOM      6  C   UNL     1       4.636  -9.334   4.716  0.00  0.00    +0.025 A 
ATOM      7  C   UNL     1       5.756 -10.148   5.017  0.00  0.00    +0.012 A 
ATOM      8  C   UNL     1       6.151 -11.042   4.072  0.00  0.00    +0.001 A 
ATOM      9  C   UNL     1       5.525 -11.205   2.833  0.00  0.00    +0.002 A 
ATOM     10  C   UNL     1       4.440 -10.485   2.441  0.00  0.00    +0.026 A 
ATOM     11  C   UNL     1       3.935  -9.493   3.405  0.00  0.00    +0.046 A 
ATOM     12  N   UNL     1       2.922  -8.686   3.323  0.00  0.00    -0.358 N 
ATOM     13  N   UNL     1       4.338  -7.658   6.510  0.00  0.00    -0.171 NA
ATOM     14  N   UNL     1       3.967  -6.415   6.516  0.00  0.00    -0.247 N 
ATOM     15  H   UNL     1       3.678  -3.935   6.115  0.00  0.00    +0.177 HD
ATOM     16  H   UNL     1       4.145  -5.878   7.304  0.00  0.00    +0.192 HD
ATOM     17  H   UNL     1       2.353  -8.570   2.547  0.00  0.00    +0.162 HD
ENDROOT
BRANCH   1  19
ATOM     18  C   UNL     1       2.575  -2.537   4.289  0.00  0.00    +0.138 C 
ATOM     19  N   UNL     1       2.631  -3.833   4.338  0.00  0.00    -0.188 NA
BRANCH  18  23
ATOM     20  C   UNL     1       0.626  -0.618   1.041  0.00  0.00    +0.134 A 
ATOM     21  C   UNL     1       1.202   0.142   2.050  0.00  0.00    +0.047 A 
ATOM     22  C   UNL     1       1.835  -0.476   3.106  0.00  0.00    +0.013 A 
ATOM     23  C   UNL     1       1.897  -1.871   3.162  0.00  0.00    -0.004 A 
ATOM     24  C   UNL     1       1.316  -2.633   2.145  0.00  0.00    +0.028 A 
ATOM     25  C   UNL     1       0.680  -2.006   1.094  0.00  0.00    +0.060 A 
ATOM     26 BR   UNL     1      -0.113  -3.035  -0.280  0.00  0.00    -0.046 Br
BRANCH  20  28
ATOM     27  C   UNL     1      -0.017   1.425   0.010  0.00  0.00    +0.277 C 
ATOM     28  O   UNL     1       0.002  -0.004   0.002  0.00  0.00    -0.494 OA
ENDBRANCH  20  28
ENDBRANCH  18  23
ENDBRANCH   1  19
TORSDOF 3
