REMARK  Name = ZINC04714026
REMARK  11 active torsions:
REMARK  status: ('A' for Active; 'I' for Inactive)
REMARK    1  A    between atoms: C_1  and  C_2
REMARK    2  A    between atoms: C_2  and  C_4
REMARK    3  A    between atoms: C_2  and  C_10
REMARK    4  A    between atoms: C_4  and  C_5
REMARK    5  A    between atoms: C_5  and  C_6
REMARK    6  A    between atoms: C_6  and  O_8
REMARK    7  A    between atoms: O_8  and  C_9
REMARK    8  A    between atoms: C_16  and  C_37
REMARK    9  A    between atoms: C_24  and  O_36
REMARK   10  A    between atoms: C_28  and  C_35
REMARK   11  A    between atoms: C_31  and  O_34
REMARK                            x       y       z     vdW  Elec       q    Type
REMARK                         _______ _______ _______ _____ _____    ______ ____
ROOT
ATOM      1  C   UNL     1       1.528   1.150  -4.610  0.00  0.00    -0.002 C 
ATOM      2  C   UNL     1       1.620  -0.356  -4.247  0.00  0.00    +0.004 C 
ATOM      3  C   UNL     1       1.157  -0.482  -2.771  0.00  0.00    +0.004 C 
ATOM      4  C   UNL     1       0.537   0.889  -2.464  0.00  0.00    -0.001 C 
ATOM      5  C   UNL     1       1.465   1.846  -3.237  0.00  0.00    -0.026 C 
ATOM      6  C   UNL     1       0.941   3.255  -3.224  0.00  0.00    +0.007 C 
ATOM      7  C   UNL     1       0.314   3.611  -1.869  0.00  0.00    +0.005 C 
ATOM      8  C   UNL     1       0.793   2.701  -0.751  0.00  0.00    -0.001 C 
ATOM      9  C   UNL     1       0.400   1.250  -1.014  0.00  0.00    -0.001 C 
ATOM     10  C   UNL     1       1.143   0.313  -0.069  0.00  0.00    +0.035 C 
ATOM     11  C   UNL     1       1.121   0.904   1.351  0.00  0.00    +0.119 C 
ATOM     12  C   UNL     1      -0.038   1.885   1.447  0.00  0.00    +0.026 C 
ATOM     13  C   UNL     1       0.234   3.132   0.604  0.00  0.00    -0.024 C 
ATOM     14  C   UNL     1      -1.046   3.946   0.512  0.00  0.00    +0.010 C 
ATOM     15  C   UNL     1      -1.503   4.345   1.918  0.00  0.00    +0.032 C 
ATOM     16  C   UNL     1      -1.644   3.140   2.841  0.00  0.00    +0.115 C 
ATOM     17  C   UNL     1      -0.358   2.302   2.879  0.00  0.00    +0.038 C 
ATOM     18  C   UNL     1       1.319   3.987   1.270  0.00  0.00    +0.012 C 
ATOM     19  C   UNL     1       2.900   1.812  -2.686  0.00  0.00    +0.012 C 
ENDROOT
BRANCH   1  21
ATOM     20  C   UNL     1      -0.916   0.701  -4.808  0.00  0.00    +0.008 C 
ATOM     21  C   UNL     1       0.281   1.408  -5.446  0.00  0.00    -0.010 C 
BRANCH  21  22
ATOM     22  C   UNL     1       0.496   0.869  -6.862  0.00  0.00    +0.014 C 
BRANCH  22  23
ATOM     23  C   UNL     1      -0.683   1.278  -7.748  0.00  0.00    +0.121 C 
BRANCH  23  24
ATOM     24  C   UNL     1      -0.471   0.748  -9.142  0.00  0.00    +0.307 C 
ATOM     25  O   UNL     1       0.521   0.108  -9.401  0.00  0.00    -0.251 OA
BRANCH  24  26
ATOM     26  O   UNL     1      -1.384   0.985 -10.097  0.00  0.00    -0.468 OA
ATOM     27  C   UNL     1      -1.114   0.444 -11.417  0.00  0.00    +0.280 C 
ENDBRANCH  24  26
ENDBRANCH  23  24
ENDBRANCH  22  23
ENDBRANCH  21  22
ENDBRANCH   1  21
BRANCH  16  28
ATOM     28  O   UNL     1      -1.946   3.592   4.164  0.00  0.00    -0.392 OA
ATOM     29  H   UNL     1      -2.747   4.130   4.223  0.00  0.00    +0.210 HD
ENDBRANCH  16  28
BRANCH  11  30
ATOM     30  O   UNL     1       0.932  -0.157   2.293  0.00  0.00    -0.391 OA
ATOM     31  H   UNL     1       1.625  -0.831   2.271  0.00  0.00    +0.210 HD
ENDBRANCH  11  30
TORSDOF 7
