REMARK  Name = ZINC21114221
REMARK  7 active torsions:
REMARK  status: ('A' for Active; 'I' for Inactive)
REMARK    1  A    between atoms: C_1  and  C_2
REMARK    2  A    between atoms: C_12  and  S_14
REMARK    3  A    between atoms: S_14  and  N_17
REMARK    4  A    between atoms: C_21  and  C_24
REMARK    5  A    between atoms: N_26  and  C_27
REMARK    6  A    between atoms: C_27  and  C_28
REMARK    7  A    between atoms: C_28  and  N_29
REMARK                            x       y       z     vdW  Elec       q    Type
REMARK                         _______ _______ _______ _____ _____    ______ ____
ROOT
ATOM      1  N   UNL     1      -0.462   0.160   9.785  0.00  0.00    -0.176 NA
ATOM      2  C   UNL     1      -0.617  -1.286   9.993  0.00  0.00    +0.109 C 
ATOM      3  C   UNL     1      -0.022  -2.023   8.788  0.00  0.00    +0.018 C 
ATOM      4  C   UNL     1      -0.669  -1.500   7.504  0.00  0.00    +0.015 C 
ATOM      5  C   UNL     1      -0.371  -0.006   7.353  0.00  0.00    +0.091 C 
ATOM      6  C   UNL     1      -0.969   0.753   8.541  0.00  0.00    +0.122 C 
ENDROOT
BRANCH   5   7
ATOM      7  C   UNL     1      -0.982   0.501   6.072  0.00  0.00    +0.217 C 
ATOM      8  O   UNL     1      -1.812   1.384   6.104  0.00  0.00    -0.275 OA
ATOM      9  N   UNL     1      -0.605  -0.026   4.890  0.00  0.00    -0.314 N 
ATOM     10  H   UNL     1       0.148  -0.827   4.861  0.00  0.00    +0.149 HD
BRANCH   9  11
ATOM     11  C   UNL     1      -1.199   0.468   3.645  0.00  0.00    +0.119 C 
BRANCH  11  12
ATOM     12  C   UNL     1      -0.602  -0.293   2.459  0.00  0.00    +0.103 C 
BRANCH  12  13
ATOM     13  N   UNL     1      -1.197   0.202   1.211  0.00  0.00    -0.296 NA
ATOM     14  C   UNL     1      -0.485  -0.331   0.039  0.00  0.00    +0.089 C 
ATOM     15  C   UNL     1      -1.342  -0.095  -1.205  0.00  0.00    +0.051 C 
ATOM     16  C   UNL     1      -1.785   1.344  -1.259  0.00  0.00    -0.042 A 
ATOM     17  C   UNL     1      -2.264   1.845  -2.460  0.00  0.00    +0.004 A 
ATOM     18  C   UNL     1      -2.683   3.157  -2.552  0.00  0.00    +0.000 A 
ATOM     19  C   UNL     1      -2.626   3.976  -1.440  0.00  0.00    +0.000 A 
ATOM     20  C   UNL     1      -2.149   3.480  -0.244  0.00  0.00    +0.005 A 
ATOM     21  C   UNL     1      -1.726   2.162  -0.150  0.00  0.00    -0.030 A 
ATOM     22  C   UNL     1      -1.208   1.667   1.175  0.00  0.00    +0.120 C 
ENDBRANCH  12  13
ENDBRANCH  11  12
ENDBRANCH   9  11
ENDBRANCH   5   7
BRANCH   1  23
ATOM     23  S   UNL     1       0.270   1.103  10.933  0.00  0.00    +0.061 S 
ATOM     24  O   UNL     1       1.111   0.244  11.689  0.00  0.00    -0.153 OA
ATOM     25  O   UNL     1       0.763   2.253  10.259  0.00  0.00    -0.153 OA
BRANCH  23  37
ATOM     26  C   UNL     1      -5.467   2.633  16.568  0.00  0.00    +0.109 C 
ATOM     27  C   UNL     1      -4.491   2.127  15.539  0.00  0.00    +0.217 C 
ATOM     28  O   UNL     1      -4.162   0.959  15.537  0.00  0.00    -0.276 OA
ATOM     29  N   UNL     1      -3.982   2.971  14.619  0.00  0.00    -0.271 N 
ATOM     30  C   UNL     1      -4.475   4.352  14.520  0.00  0.00    +0.114 C 
ATOM     31  C   UNL     1      -4.687   4.669  13.034  0.00  0.00    +0.024 C 
ATOM     32  C   UNL     1      -3.340   4.598  12.316  0.00  0.00    +0.038 C 
ATOM     33  C   UNL     1      -2.645   3.298  12.624  0.00  0.00    -0.024 A 
ATOM     34  C   UNL     1      -2.975   2.547  13.741  0.00  0.00    +0.040 A 
ATOM     35  C   UNL     1      -2.308   1.356  14.001  0.00  0.00    +0.026 A 
ATOM     36  C   UNL     1      -1.318   0.917  13.144  0.00  0.00    +0.030 A 
ATOM     37  C   UNL     1      -0.992   1.664  12.028  0.00  0.00    +0.106 A 
ATOM     38  C   UNL     1      -1.649   2.852  11.772  0.00  0.00    +0.034 A 
ENDBRANCH  23  37
ENDBRANCH   1  23
TORSDOF 6
