REMARK  Name = ZINC20883553
REMARK  10 active torsions:
REMARK  status: ('A' for Active; 'I' for Inactive)
REMARK    1  A    between atoms: C_1  and  C_2
REMARK    2  A    between atoms: C_2  and  O_3
REMARK    3  A    between atoms: O_3  and  C_4
REMARK    4  A    between atoms: C_6  and  C_14
REMARK    5  A    between atoms: C_9  and  O_10
REMARK    6  A    between atoms: O_10  and  C_11
REMARK    7  A    between atoms: C_11  and  C_13
REMARK    8  A    between atoms: C_19  and  C_24
REMARK    9  A    between atoms: C_29  and  O_30
REMARK   10  A    between atoms: O_30  and  C_31
REMARK                            x       y       z     vdW  Elec       q    Type
REMARK                         _______ _______ _______ _____ _____    ______ ____
ROOT
ATOM      1  C   UNL     1      -0.011  -0.011  -0.005  0.00  0.00    +0.136 C 
ATOM      2  C   UNL     1      -0.100   1.497  -0.022  0.00  0.00    +0.036 C 
ATOM      3  C   UNL     1       0.940   2.348  -0.027  0.00  0.00    +0.017 C 
ATOM      4  C   UNL     1       0.704   3.849  -0.005  0.00  0.00    +0.060 C 
ATOM      5  C   UNL     1      -0.578   4.186  -0.766  0.00  0.00    +0.035 C 
ATOM      6  C   UNL     1      -1.736   3.457  -0.074  0.00  0.00    +0.088 C 
ATOM      7  C   UNL     1      -1.426   1.991  -0.039  0.00  0.00    +0.163 C 
ATOM      8  O   UNL     1      -2.346   1.198  -0.023  0.00  0.00    -0.292 OA
ATOM      9  N   UNL     1       2.246   1.979  -0.037  0.00  0.00    -0.316 N 
ATOM     10  C   UNL     1       2.802   1.010   0.790  0.00  0.00    +0.052 A 
ATOM     11  C   UNL     1       3.799   1.303   1.703  0.00  0.00    +0.025 A 
ATOM     12  C   UNL     1       4.387   0.274   2.420  0.00  0.00    +0.002 A 
ATOM     13  C   UNL     1       3.979  -1.033   2.226  0.00  0.00    +0.002 A 
ATOM     14  C   UNL     1       2.967  -1.325   1.327  0.00  0.00    +0.025 A 
ATOM     15  C   UNL     1       2.366  -0.296   0.621  0.00  0.00    +0.049 A 
ATOM     16  N   UNL     1       1.313  -0.535  -0.261  0.00  0.00    -0.331 N 
ATOM     17  H   UNL     1       2.947   2.459  -0.736  0.00  0.00    +0.152 HD
ATOM     18  H   UNL     1       1.503  -1.135  -1.164  0.00  0.00    +0.147 HD
ENDROOT
BRANCH   1  21
ATOM     19  C   UNL     1      -2.016  -1.744   2.687  0.00  0.00    +0.163 A 
ATOM     20  C   UNL     1      -1.596  -1.292   1.446  0.00  0.00    +0.055 A 
ATOM     21  C   UNL     1      -0.467  -0.501   1.345  0.00  0.00    -0.019 A 
ATOM     22  C   UNL     1       0.247  -0.162   2.479  0.00  0.00    +0.009 A 
ATOM     23  C   UNL     1      -0.170  -0.605   3.721  0.00  0.00    +0.050 A 
ATOM     24  C   UNL     1      -1.300  -1.399   3.829  0.00  0.00    +0.173 A 
BRANCH  19  25
ATOM     25  O   UNL     1      -3.126  -2.523   2.789  0.00  0.00    -0.489 OA
BRANCH  25  27
ATOM     26  C   UNL     1      -5.024  -3.717   1.886  0.00  0.00    +0.048 C 
ATOM     27  C   UNL     1      -3.811  -2.838   1.575  0.00  0.00    +0.226 C 
ENDBRANCH  25  27
ENDBRANCH  19  25
BRANCH  24  28
ATOM     28  O   UNL     1      -1.708  -1.840   5.049  0.00  0.00    -0.422 OA
BRANCH  28  29
ATOM     29  C   UNL     1      -1.289  -3.057   5.429  0.00  0.00    +0.309 C 
ATOM     30  O   UNL     1      -0.507  -3.668   4.740  0.00  0.00    -0.251 OA
ATOM     31  C   UNL     1      -1.794  -3.661   6.714  0.00  0.00    +0.136 C 
ENDBRANCH  28  29
ENDBRANCH  24  28
ENDBRANCH   1  21
BRANCH   5  32
ATOM     32  C   UNL     1      -0.817   5.673  -0.731  0.00  0.00    -0.002 A 
ATOM     33  C   UNL     1      -0.979   6.320   0.479  0.00  0.00    +0.007 A 
ATOM     34  C   UNL     1      -1.194   7.685   0.511  0.00  0.00    +0.001 A 
ATOM     35  C   UNL     1      -1.256   8.405  -0.668  0.00  0.00    +0.004 A 
ATOM     36  C   UNL     1      -1.099   7.763  -1.880  0.00  0.00    +0.046 A 
ATOM     37  C   UNL     1      -0.879   6.394  -1.915  0.00  0.00    +0.124 A 
BRANCH  37  38
ATOM     38  O   UNL     1      -0.725   5.759  -3.107  0.00  0.00    -0.495 OA
ATOM     39  C   UNL     1      -0.801   6.564  -4.285  0.00  0.00    +0.277 C 
ENDBRANCH  37  38
ENDBRANCH   5  32
TORSDOF 7
