REMARK  Name = ZINC05213464
REMARK  8 active torsions:
REMARK  status: ('A' for Active; 'I' for Inactive)
REMARK    1  A    between atoms: C_1  and  C_2
REMARK    2  A    between atoms: C_4  and  C_28
REMARK    3  A    between atoms: C_10  and  S_11
REMARK    4  A    between atoms: S_11  and  C_12
REMARK    5  A    between atoms: C_12  and  C_13
REMARK    6  A    between atoms: N_15  and  C_16
REMARK    7  A    between atoms: C_21  and  C_22
REMARK    8  A    between atoms: C_22  and  C_24
REMARK                            x       y       z     vdW  Elec       q    Type
REMARK                         _______ _______ _______ _____ _____    ______ ____
ROOT
ATOM      1  C   UNL     1      -0.730   1.589  -1.216  0.00  0.00    +0.228 C 
ATOM      2  O   UNL     1      -1.732   2.261  -1.089  0.00  0.00    -0.275 OA
ATOM      3  N   UNL     1      -0.280   1.278  -2.447  0.00  0.00    -0.284 N 
ATOM      4  H   UNL     1       0.556   0.796  -2.550  0.00  0.00    +0.155 HD
ENDROOT
BRANCH   3   5
ATOM      5  C   UNL     1      -1.014   1.647  -3.572  0.00  0.00    +0.048 A 
ATOM      6  C   UNL     1      -1.713   2.843  -3.583  0.00  0.00    +0.073 A 
ATOM      7  C   UNL     1      -2.445   3.213  -4.700  0.00  0.00    +0.168 A 
ATOM      8  C   UNL     1      -2.481   2.381  -5.824  0.00  0.00    +0.167 A 
ATOM      9  C   UNL     1      -1.791   1.189  -5.826  0.00  0.00    +0.062 A 
ATOM     10  C   UNL     1      -1.043   0.811  -4.702  0.00  0.00    +0.042 A 
ATOM     11  O   UNL     1      -3.264   2.972  -6.776  0.00  0.00    -0.453 OA
ATOM     12  C   UNL     1      -4.033   3.967  -6.076  0.00  0.00    +0.466 C 
ATOM     13  O   UNL     1      -3.203   4.318  -4.954  0.00  0.00    -0.453 OA
BRANCH  10  14
ATOM     14  C   UNL     1      -0.301  -0.452  -4.702  0.00  0.00    +0.162 C 
ATOM     15  O   UNL     1       0.262  -0.825  -3.694  0.00  0.00    -0.292 OA
ATOM     16  C   UNL     1      -0.237  -1.288  -5.955  0.00  0.00    +0.091 C 
ENDBRANCH  10  14
ENDBRANCH   3   5
BRANCH   1  17
ATOM     17  C   UNL     1       0.010   1.101   0.003  0.00  0.00    +0.173 C 
BRANCH  17  18
ATOM     18  S   UNL     1      -0.839   1.681   1.498  0.00  0.00    -0.076 S 
BRANCH  18  28
ATOM     19  C   UNL     1       0.122   1.085   8.357  0.00  0.00    +0.066 C 
ATOM     20  C   UNL     1       0.048   1.124   6.852  0.00  0.00    +0.044 A 
ATOM     21  C   UNL     1      -0.998   1.821   6.225  0.00  0.00    +0.044 A 
ATOM     22  C   UNL     1      -1.059   1.854   4.872  0.00  0.00    +0.028 A 
ATOM     23  N   UNL     1      -0.098   1.203   4.151  0.00  0.00    -0.259 N 
ATOM     24  C   UNL     1       0.915   0.528   4.800  0.00  0.00    +0.257 A 
ATOM     25  N   UNL     1       0.960   0.507   6.140  0.00  0.00    -0.216 NA
ATOM     26  N   UNL     1       1.683   0.005   3.862  0.00  0.00    -0.108 NA
ATOM     27  N   UNL     1       1.218   0.304   2.701  0.00  0.00    -0.120 NA
ATOM     28  C   UNL     1       0.135   1.037   2.818  0.00  0.00    +0.198 A 
ATOM     29  C   UNL     1      -2.170   2.595   4.174  0.00  0.00    +0.064 C 
ENDBRANCH  18  28
ENDBRANCH  17  18
ENDBRANCH   1  17
TORSDOF 5
