REMARK  Name = ZINC11127951
REMARK  9 active torsions:
REMARK  status: ('A' for Active; 'I' for Inactive)
REMARK    1  A    between atoms: C_1  and  C_2
REMARK    2  A    between atoms: C_5  and  S_8
REMARK    3  A    between atoms: S_8  and  N_11
REMARK    4  A    between atoms: C_14  and  C_17
REMARK    5  A    between atoms: N_19  and  C_20
REMARK    6  A    between atoms: C_21  and  C_32
REMARK    7  A    between atoms: C_29  and  C_31
REMARK    8  A    between atoms: C_32  and  O_34
REMARK    9  A    between atoms: O_34  and  C_35
REMARK                            x       y       z     vdW  Elec       q    Type
REMARK                         _______ _______ _______ _____ _____    ______ ____
ROOT
ATOM      1  C   UNL     1      -1.187   1.624   0.017  0.00  0.00    +0.221 C 
ATOM      2  O   UNL     1      -1.204   2.836   0.023  0.00  0.00    -0.275 OA
ATOM      3  N   UNL     1      -0.011   0.966   0.007  0.00  0.00    -0.279 N 
ATOM      4  H   UNL     1       0.002  -0.004   0.002  0.00  0.00    +0.155 HD
ENDROOT
BRANCH   3   5
ATOM      5  C   UNL     1       1.180   1.675  -0.000  0.00  0.00    +0.086 A 
ATOM      6  C   UNL     1       2.478   1.182  -0.015  0.00  0.00    +0.091 A 
ATOM      7  C   UNL     1       3.564   2.148  -0.020  0.00  0.00    -0.018 A 
ATOM      8  C   UNL     1       3.179   3.443  -0.013  0.00  0.00    +0.013 A 
ATOM      9  S   UNL     1       1.410   3.393  -0.001  0.00  0.00    -0.076 S 
ATOM     10  C   UNL     1       4.072   4.647  -0.020  0.00  0.00    +0.150 C 
ATOM     11  N   UNL     1       5.451   4.167   0.202  0.00  0.00    -0.297 N 
ATOM     12  C   UNL     1       5.869   2.950  -0.511  0.00  0.00    +0.113 C 
ATOM     13  C   UNL     1       5.038   1.761  -0.025  0.00  0.00    +0.056 C 
ATOM     14  C   UNL     1       6.295   4.820   1.025  0.00  0.00    +0.213 C 
ATOM     15  O   UNL     1       7.422   4.406   1.191  0.00  0.00    -0.276 OA
ATOM     16  C   UNL     1       5.836   6.065   1.741  0.00  0.00    +0.109 C 
BRANCH   6  17
ATOM     17  C   UNL     1       2.743  -0.258  -0.026  0.00  0.00    +0.342 C 
ATOM     18  O   UNL     1       2.843  -0.850  -1.083  0.00  0.00    -0.245 OA
BRANCH  17  19
ATOM     19  O   UNL     1       2.875  -0.928   1.137  0.00  0.00    -0.464 OA
ATOM     20  C   UNL     1       3.137  -2.354   1.051  0.00  0.00    +0.280 C 
ENDBRANCH  17  19
ENDBRANCH   6  17
ENDBRANCH   3   5
BRANCH   1  24
ATOM     21  N   UNL     1      -4.987   0.096  -1.056  0.00  0.00    -0.177 NA
ATOM     22  C   UNL     1      -4.972   1.044   0.066  0.00  0.00    +0.110 C 
ATOM     23  C   UNL     1      -3.658   1.831   0.029  0.00  0.00    +0.030 C 
ATOM     24  C   UNL     1      -2.482   0.853   0.018  0.00  0.00    +0.078 C 
ATOM     25  C   UNL     1      -2.556  -0.023  -1.235  0.00  0.00    +0.030 C 
ATOM     26  C   UNL     1      -3.857  -0.831  -1.212  0.00  0.00    +0.110 C 
BRANCH  21  27
ATOM     27  S   UNL     1      -6.253   0.071  -2.123  0.00  0.00    +0.061 S 
ATOM     28  O   UNL     1      -6.273  -1.228  -2.699  0.00  0.00    -0.153 OA
ATOM     29  O   UNL     1      -7.371   0.619  -1.439  0.00  0.00    -0.153 OA
BRANCH  27  34
ATOM     30  C   UNL     1      -4.905   3.911  -6.578  0.00  0.00    +0.044 C 
ATOM     31  C   UNL     1      -5.242   2.952  -5.465  0.00  0.00    -0.050 A 
ATOM     32  C   UNL     1      -4.868   1.625  -5.560  0.00  0.00    +0.005 A 
ATOM     33  C   UNL     1      -5.176   0.745  -4.540  0.00  0.00    +0.029 A 
ATOM     34  C   UNL     1      -5.859   1.192  -3.424  0.00  0.00    +0.105 A 
ATOM     35  C   UNL     1      -6.237   2.519  -3.331  0.00  0.00    +0.029 A 
ATOM     36  C   UNL     1      -5.925   3.400  -4.350  0.00  0.00    +0.005 A 
ENDBRANCH  27  34
ENDBRANCH  21  27
ENDBRANCH   1  24
TORSDOF 6
