REMARK  Name = ZINC39684087
REMARK  6 active torsions:
REMARK  status: ('A' for Active; 'I' for Inactive)
REMARK    1  A    between atoms: C_1  and  C_2
REMARK    2  A    between atoms: C_7  and  C_11
REMARK    3  A    between atoms: C_11  and  C_12
REMARK    4  A    between atoms: C_12  and  N_13
REMARK    5  A    between atoms: C_14  and  C_16
REMARK    6  A    between atoms: C_27  and  C_29
REMARK                            x       y       z     vdW  Elec       q    Type
REMARK                         _______ _______ _______ _____ _____    ______ ____
ROOT
ATOM      1  C   UNL     1      -8.826   1.365  -5.630  0.00  0.00    +0.100 C 
ATOM      2  C   UNL     1     -10.088   2.028  -5.032  0.00  0.00    +0.121 C 
ATOM      3  N   UNL     1     -11.196   1.580  -5.907  0.00  0.00    -0.296 N 
ATOM      4  C   UNL     1     -10.879   0.163  -6.207  0.00  0.00    +0.115 C 
ATOM      5  C   UNL     1      -9.350   0.141  -6.399  0.00  0.00    -0.004 C 
ATOM      6  C   UNL     1      -9.003   0.260  -7.880  0.00  0.00    -0.010 C 
ATOM      7  C   UNL     1      -9.484  -0.995  -8.614  0.00  0.00    -0.082 C 
ATOM      8  N   UNL     1      -8.841  -2.180  -8.034  0.00  0.00    +0.379 N 
ATOM      9  C   UNL     1      -9.254  -2.339  -6.634  0.00  0.00    -0.082 C 
ATOM     10  C   UNL     1      -8.764  -1.141  -5.816  0.00  0.00    -0.010 C 
ATOM     11  C   UNL     1     -12.254   2.298  -6.335  0.00  0.00    +0.247 C 
ATOM     12  O   UNL     1     -12.309   3.491  -6.108  0.00  0.00    -0.270 OA
ATOM     13  H   UNL     1      -9.113  -2.999  -8.558  0.00  0.00    -0.086 HD
ATOM     14  H   UNL     1      -7.839  -2.073  -8.077  0.00  0.00    -0.086 HD
ENDROOT
BRANCH  11  15
ATOM     15  C   UNL     1     -13.346   1.635  -7.079  0.00  0.00    +0.038 A 
ATOM     16  C   UNL     1     -13.524   0.254  -6.979  0.00  0.00    +0.013 A 
ATOM     17  C   UNL     1     -14.544  -0.359  -7.676  0.00  0.00    +0.002 A 
ATOM     18  C   UNL     1     -15.391   0.391  -8.473  0.00  0.00    +0.015 A 
ATOM     19  C   UNL     1     -15.220   1.761  -8.576  0.00  0.00    +0.019 A 
ATOM     20  C   UNL     1     -14.206   2.388  -7.879  0.00  0.00    +0.028 A 
ATOM     21 BR   UNL     1     -16.382   2.777  -9.669  0.00  0.00    -0.050 Br
ENDBRANCH  11  15
BRANCH   1  23
ATOM     22  N   UNL     1      -6.561   0.905  -4.750  0.00  0.00    -0.315 N 
ATOM     23  C   UNL     1      -7.890   0.933  -4.531  0.00  0.00    +0.218 C 
ATOM     24  O   UNL     1      -8.333   0.610  -3.449  0.00  0.00    -0.275 OA
ATOM     25  H   UNL     1      -6.206   1.163  -5.615  0.00  0.00    +0.149 HD
BRANCH  22  26
ATOM     26  C   UNL     1      -5.651   0.484  -3.681  0.00  0.00    +0.109 C 
BRANCH  26  27
ATOM     27  C   UNL     1      -4.208   0.542  -4.188  0.00  0.00    +0.056 C 
BRANCH  27  34
ATOM     28  C   UNL     1      -0.519  -2.259   0.039  0.00  0.00    +0.046 C 
ATOM     29  C   UNL     1      -1.472  -2.337  -1.126  0.00  0.00    -0.027 A 
ATOM     30  C   UNL     1      -1.816  -3.561  -1.656  0.00  0.00    +0.005 A 
ATOM     31  C   UNL     1      -2.692  -3.647  -2.730  0.00  0.00    +0.001 A 
ATOM     32  C   UNL     1      -3.229  -2.517  -3.279  0.00  0.00    +0.010 A 
ATOM     33  C   UNL     1      -2.895  -1.266  -2.757  0.00  0.00    +0.003 A 
ATOM     34  C   UNL     1      -3.272   0.110  -3.089  0.00  0.00    -0.021 A 
ATOM     35  C   UNL     1      -2.626   0.913  -2.228  0.00  0.00    +0.087 A 
ATOM     36  N   UNL     1      -1.865   0.163  -1.373  0.00  0.00    -0.360 N 
ATOM     37  C   UNL     1      -2.011  -1.174  -1.665  0.00  0.00    +0.050 A 
ATOM     38  H   UNL     1      -1.309   0.521  -0.663  0.00  0.00    +0.165 HD
ENDBRANCH  27  34
ENDBRANCH  26  27
ENDBRANCH  22  26
ENDBRANCH   1  23
TORSDOF 5
