REMARK  Name = ZINC39687860
REMARK  5 active torsions:
REMARK  status: ('A' for Active; 'I' for Inactive)
REMARK    1  A    between atoms: C_1  and  C_2
REMARK    2  A    between atoms: C_7  and  C_8
REMARK    3  A    between atoms: C_8  and  C_9
REMARK    4  A    between atoms: C_13  and  C_22
REMARK    5  A    between atoms: N_24  and  C_25
REMARK                            x       y       z     vdW  Elec       q    Type
REMARK                         _______ _______ _______ _____ _____    ______ ____
ROOT
ATOM      1  C   UNL     1      -1.591   0.337   2.950  0.00  0.00    +0.220 C 
ATOM      2  O   UNL     1      -2.531   0.052   2.239  0.00  0.00    -0.275 OA
ATOM      3  N   UNL     1      -1.790   1.040   4.082  0.00  0.00    -0.300 N 
ATOM      4  C   UNL     1      -0.776   1.484   5.066  0.00  0.00    +0.121 C 
ATOM      5  C   UNL     1      -1.226   2.904   5.478  0.00  0.00    +0.100 C 
ATOM      6  C   UNL     1      -2.736   2.936   5.187  0.00  0.00    -0.004 C 
ATOM      7  C   UNL     1      -3.074   1.550   4.621  0.00  0.00    +0.115 C 
ATOM      8  C   UNL     1      -3.052   4.013   4.153  0.00  0.00    -0.010 C 
ATOM      9  C   UNL     1      -4.565   4.064   3.923  0.00  0.00    -0.082 C 
ATOM     10  N   UNL     1      -5.245   4.360   5.190  0.00  0.00    +0.379 N 
ATOM     11  C   UNL     1      -5.011   3.273   6.149  0.00  0.00    -0.082 C 
ATOM     12  C   UNL     1      -3.517   3.188   6.473  0.00  0.00    -0.010 C 
ATOM     13  H   UNL     1      -4.887   5.223   5.569  0.00  0.00    -0.086 HD
ATOM     14  H   UNL     1      -6.236   4.453   5.025  0.00  0.00    -0.086 HD
ENDROOT
BRANCH   5  15
ATOM     15  C   UNL     1      -0.967   3.132   6.945  0.00  0.00    +0.218 C 
ATOM     16  O   UNL     1      -1.014   2.201   7.721  0.00  0.00    -0.275 OA
ATOM     17  N   UNL     1      -0.684   4.371   7.394  0.00  0.00    -0.312 N 
ATOM     18  H   UNL     1      -0.646   5.115   6.774  0.00  0.00    +0.149 HD
BRANCH  17  19
ATOM     19  C   UNL     1      -0.432   4.593   8.820  0.00  0.00    +0.076 C 
ATOM     20  C   UNL     1      -1.763   4.790   9.548  0.00  0.00    +0.041 C 
ATOM     21  C   UNL     1      -1.498   4.988  11.044  0.00  0.00    +0.108 C 
ATOM     22  N   UNL     1      -0.547   6.095  11.214  0.00  0.00    -0.314 N 
ATOM     23  C   UNL     1       0.728   6.049  10.486  0.00  0.00    +0.108 C 
ATOM     24  C   UNL     1       0.438   5.840   8.996  0.00  0.00    +0.041 C 
ATOM     25  C   UNL     1      -0.849   7.166  12.048  0.00  0.00    +0.140 A 
ATOM     26  C   UNL     1      -0.413   7.156  13.370  0.00  0.00    +0.081 A 
ATOM     27  C   UNL     1      -0.720   8.229  14.188  0.00  0.00    +0.025 A 
ATOM     28  C   UNL     1      -1.455   9.280  13.655  0.00  0.00    +0.021 A 
ATOM     29  C   UNL     1      -1.855   9.223  12.335  0.00  0.00    +0.113 A 
ATOM     30  N   UNL     1      -1.543   8.189  11.576  0.00  0.00    -0.239 NA
ATOM     31 CL   UNL     1       0.503   5.815  13.984  0.00  0.00    -0.080 Cl
ENDBRANCH  17  19
ENDBRANCH   5  15
BRANCH   1  32
ATOM     32  C   UNL     1      -0.199  -0.096   2.567  0.00  0.00    +0.131 C 
BRANCH  32  39
ATOM     33  C   UNL     1      -0.151   1.323   0.051  0.00  0.00    +0.044 C 
ATOM     34  C   UNL     1      -0.226  -0.182   0.066  0.00  0.00    -0.047 A 
ATOM     35  C   UNL     1      -0.267  -0.884  -1.124  0.00  0.00    +0.003 A 
ATOM     36  C   UNL     1      -0.336  -2.265  -1.110  0.00  0.00    +0.000 A 
ATOM     37  C   UNL     1      -0.364  -2.943   0.094  0.00  0.00    +0.000 A 
ATOM     38  C   UNL     1      -0.323  -2.241   1.284  0.00  0.00    +0.004 A 
ATOM     39  C   UNL     1      -0.249  -0.861   1.270  0.00  0.00    -0.036 A 
ENDBRANCH  32  39
ENDBRANCH   1  32
TORSDOF 4
