REMARK  Name = ZINC02790839
REMARK  7 active torsions:
REMARK  status: ('A' for Active; 'I' for Inactive)
REMARK    1  A    between atoms: C_4  and  N_7
REMARK    2  A    between atoms: C_10  and  C_12
REMARK    3  A    between atoms: C_17  and  C_25
REMARK    4  A    between atoms: C_19  and  C_23
REMARK    5  A    between atoms: C_20  and  N_22
REMARK    6  A    between atoms: C_30  and  O_31
REMARK    7  A    between atoms: O_31  and  C_32
REMARK                            x       y       z     vdW  Elec       q    Type
REMARK                         _______ _______ _______ _____ _____    ______ ____
ROOT
ATOM      1  N   UNL     1       0.010   5.459   0.625  0.00  0.00    -0.199 N 
ATOM      2  C   UNL     1       0.141   4.150   0.310  0.00  0.00    +0.230 A 
ATOM      3  C   UNL     1      -1.103   3.591   0.333  0.00  0.00    +0.058 A 
ATOM      4  C   UNL     1      -2.022   4.592   0.675  0.00  0.00    +0.136 A 
ATOM      5  N   UNL     1      -1.351   5.717   0.852  0.00  0.00    -0.160 NA
ATOM      6  C   UNL     1      -1.349   2.137   0.020  0.00  0.00    +0.105 C 
ATOM      7  C   UNL     1      -0.017   1.428   0.010  0.00  0.00    +0.098 C 
ATOM      8  C   UNL     1       1.158   2.095   0.002  0.00  0.00    +0.200 C 
ATOM      9  O   UNL     1       1.257   3.440   0.012  0.00  0.00    -0.423 OA
ENDROOT
BRANCH   1  13
ATOM     10  C   UNL     1       3.105   8.238   0.884  0.00  0.00    +0.000 A 
ATOM     11  C   UNL     1       1.865   8.629   0.414  0.00  0.00    +0.002 A 
ATOM     12  C   UNL     1       0.837   7.710   0.328  0.00  0.00    +0.028 A 
ATOM     13  C   UNL     1       1.050   6.393   0.712  0.00  0.00    +0.069 A 
ATOM     14  C   UNL     1       2.296   6.005   1.188  0.00  0.00    +0.028 A 
ATOM     15  C   UNL     1       3.321   6.927   1.267  0.00  0.00    +0.002 A 
ENDBRANCH   1  13
BRANCH   6  16
ATOM     16  C   UNL     1      -2.005   2.006  -1.330  0.00  0.00    +0.007 A 
ATOM     17  C   UNL     1      -1.376   2.502  -2.456  0.00  0.00    +0.008 A 
ATOM     18  C   UNL     1      -1.977   2.382  -3.695  0.00  0.00    +0.001 A 
ATOM     19  C   UNL     1      -3.209   1.765  -3.811  0.00  0.00    +0.004 A 
ATOM     20  C   UNL     1      -3.842   1.267  -2.689  0.00  0.00    +0.046 A 
ATOM     21  C   UNL     1      -3.238   1.382  -1.445  0.00  0.00    +0.131 A 
BRANCH  21  22
ATOM     22  O   UNL     1      -3.857   0.887  -0.340  0.00  0.00    -0.434 OA
BRANCH  22  23
ATOM     23  C   UNL     1      -5.125   0.258  -0.534  0.00  0.00    +0.541 C 
ATOM     24  F   UNL     1      -6.022   1.177  -1.087  0.00  0.00    -0.166 F 
ATOM     25  F   UNL     1      -4.978  -0.831  -1.401  0.00  0.00    -0.166 F 
ENDBRANCH  22  23
ENDBRANCH  21  22
ENDBRANCH   6  16
BRANCH   4  26
ATOM     26  C   UNL     1      -3.483   4.420   0.815  0.00  0.00    +0.155 A 
ATOM     27  C   UNL     1      -4.280   5.059   1.712  0.00  0.00    +0.051 A 
ATOM     28  C   UNL     1      -5.593   4.596   1.491  0.00  0.00    +0.042 A 
ATOM     29  C   UNL     1      -5.533   3.707   0.481  0.00  0.00    +0.196 A 
ATOM     30  O   UNL     1      -4.258   3.607   0.071  0.00  0.00    -0.461 OA
ENDBRANCH   4  26
BRANCH   8  31
ATOM     31  N   UNL     1       2.318   1.361  -0.017  0.00  0.00    -0.328 N 
ATOM     32  H   UNL     1       2.279   0.392  -0.024  0.00  0.00    +0.145 HD
ATOM     33  H   UNL     1       3.177   1.812  -0.023  0.00  0.00    +0.145 HD
ENDBRANCH   8  31
BRANCH   7  34
ATOM     34  C   UNL     1       0.002  -0.004   0.002  0.00  0.00    +0.101 C 
ATOM     35  N   UNL     1       0.018  -1.140  -0.004  0.00  0.00    -0.191 NA
ENDBRANCH   7  34
TORSDOF 7
