REMARK  Name = ZINC09192960
REMARK  7 active torsions:
REMARK  status: ('A' for Active; 'I' for Inactive)
REMARK    1  A    between atoms: C_1  and  O_2
REMARK    2  A    between atoms: O_2  and  C_3
REMARK    3  A    between atoms: C_7  and  C_9
REMARK    4  A    between atoms: C_16  and  N_34
REMARK    5  A    between atoms: C_17  and  C_32
REMARK    6  A    between atoms: C_18  and  C_20
REMARK    7  A    between atoms: C_23  and  C_26
REMARK                            x       y       z     vdW  Elec       q    Type
REMARK                         _______ _______ _______ _____ _____    ______ ____
ROOT
ATOM      1  C   UNL     1      -2.648  -4.526  -0.128  0.00  0.00    +0.100 A 
ATOM      2  C   UNL     1      -3.556  -5.137   0.742  0.00  0.00    +0.054 A 
ATOM      3  C   UNL     1      -3.414  -6.489   0.619  0.00  0.00    +0.223 A 
ATOM      4  N   UNL     1      -2.451  -6.719  -0.298  0.00  0.00    -0.246 N 
ATOM      5  H   UNL     1      -2.138  -7.589  -0.590  0.00  0.00    +0.192 HD
ATOM      6  N   UNL     1      -1.987  -5.477  -0.759  0.00  0.00    -0.171 NA
ATOM      7  O   UNL     1      -4.154  -7.371   1.337  0.00  0.00    -0.423 OA
ATOM      8  C   UNL     1      -4.853  -6.892   2.385  0.00  0.00    +0.200 C 
ATOM      9  C   UNL     1      -5.072  -5.577   2.606  0.00  0.00    +0.098 C 
ATOM     10  C   UNL     1      -4.549  -4.505   1.682  0.00  0.00    +0.102 C 
ENDROOT
BRANCH   1  15
ATOM     11  C   UNL     1      -2.290  -0.853   0.609  0.00  0.00    +0.121 A 
ATOM     12  C   UNL     1      -2.125  -0.337  -0.669  0.00  0.00    +0.045 A 
ATOM     13  C   UNL     1      -2.130  -1.179  -1.764  0.00  0.00    +0.004 A 
ATOM     14  C   UNL     1      -2.300  -2.539  -1.594  0.00  0.00    +0.010 A 
ATOM     15  C   UNL     1      -2.466  -3.065  -0.314  0.00  0.00    +0.006 A 
ATOM     16  C   UNL     1      -2.455  -2.216   0.790  0.00  0.00    +0.055 A 
BRANCH  11  18
ATOM     17  C   UNL     1      -2.109   1.373   1.424  0.00  0.00    +0.277 C 
ATOM     18  O   UNL     1      -2.284  -0.021   1.684  0.00  0.00    -0.495 OA
ENDBRANCH  11  18
ENDBRANCH   1  15
BRANCH  10  19
ATOM     19  C   UNL     1      -5.689  -3.913   0.895  0.00  0.00    -0.035 A 
ATOM     20  C   UNL     1      -6.414  -4.709   0.027  0.00  0.00    +0.005 A 
ATOM     21  C   UNL     1      -7.459  -4.172  -0.697  0.00  0.00    +0.009 A 
ATOM     22  C   UNL     1      -7.784  -2.825  -0.553  0.00  0.00    -0.018 A 
ATOM     23  C   UNL     1      -7.050  -2.027   0.323  0.00  0.00    +0.009 A 
ATOM     24  C   UNL     1      -6.010  -2.576   1.046  0.00  0.00    +0.005 A 
BRANCH  22  25
ATOM     25  C   UNL     1      -8.906  -2.242  -1.329  0.00  0.00    -0.018 A 
ATOM     26  C   UNL     1      -9.643  -3.041  -2.200  0.00  0.00    +0.008 A 
ATOM     27  C   UNL     1     -10.686  -2.493  -2.919  0.00  0.00    +0.001 A 
ATOM     28  C   UNL     1     -11.000  -1.154  -2.776  0.00  0.00    +0.000 A 
ATOM     29  C   UNL     1     -10.271  -0.356  -1.913  0.00  0.00    +0.001 A 
ATOM     30  C   UNL     1      -9.230  -0.894  -1.184  0.00  0.00    +0.008 A 
ENDBRANCH  22  25
ENDBRANCH  10  19
BRANCH   8  31
ATOM     31  N   UNL     1      -5.374  -7.793   3.281  0.00  0.00    -0.328 N 
ATOM     32  H   UNL     1      -5.234  -8.744   3.149  0.00  0.00    +0.145 HD
ATOM     33  H   UNL     1      -5.881  -7.479   4.045  0.00  0.00    +0.145 HD
ENDBRANCH   8  31
BRANCH   9  34
ATOM     34  C   UNL     1      -5.827  -5.187   3.758  0.00  0.00    +0.101 C 
ATOM     35  N   UNL     1      -6.426  -4.877   4.672  0.00  0.00    -0.191 NA
ENDBRANCH   9  34
TORSDOF 6
