REMARK  Name = ZINC65319171
REMARK  7 active torsions:
REMARK  status: ('A' for Active; 'I' for Inactive)
REMARK    1  A    between atoms: N_9  and  C_11
REMARK    2  A    between atoms: C_11  and  C_12
REMARK    3  A    between atoms: C_12  and  N_13
REMARK    4  A    between atoms: C_14  and  C_16
REMARK    5  A    between atoms: C_18  and  C_21
REMARK    6  A    between atoms: C_24  and  S_27
REMARK    7  A    between atoms: S_27  and  N_30
REMARK                            x       y       z     vdW  Elec       q    Type
REMARK                         _______ _______ _______ _____ _____    ______ ____
ROOT
ATOM      1  C   UNL     1       9.546  -3.223   1.550  0.00  0.00    +0.314 A 
ATOM      2  N   UNL     1      10.652  -2.971   2.204  0.00  0.00    -0.183 NA
ATOM      3  C   UNL     1      11.625  -3.799   1.796  0.00  0.00    +0.203 A 
ATOM      4  N   UNL     1      11.144  -4.594   0.871  0.00  0.00    -0.055 NA
ATOM      5  O   UNL     1       9.781  -4.236   0.699  0.00  0.00    -0.328 OA
ENDROOT
BRANCH   3   6
ATOM      6  C   UNL     1      13.018  -3.814   2.309  0.00  0.00    +0.023 A 
ATOM      7  C   UNL     1      13.407  -2.918   3.302  0.00  0.00    +0.013 A 
ATOM      8  C   UNL     1      14.704  -2.936   3.775  0.00  0.00    +0.029 A 
ATOM      9  C   UNL     1      15.616  -3.841   3.265  0.00  0.00    +0.106 A 
ATOM     10  C   UNL     1      15.235  -4.733   2.278  0.00  0.00    +0.029 A 
ATOM     11  C   UNL     1      13.940  -4.727   1.802  0.00  0.00    +0.013 A 
BRANCH   9  12
ATOM     12  S   UNL     1      17.270  -3.859   3.874  0.00  0.00    +0.061 S 
ATOM     13  O   UNL     1      18.073  -4.432   2.851  0.00  0.00    -0.153 OA
ATOM     14  O   UNL     1      17.521  -2.565   4.405  0.00  0.00    -0.153 OA
BRANCH  12  15
ATOM     15  N   UNL     1      17.310  -4.911   5.152  0.00  0.00    -0.177 NA
ATOM     16  C   UNL     1      17.041  -4.440   6.518  0.00  0.00    +0.109 C 
ATOM     17  C   UNL     1      15.932  -5.303   7.127  0.00  0.00    +0.017 C 
ATOM     18  C   UNL     1      16.330  -6.778   7.038  0.00  0.00    +0.003 C 
ATOM     19  C   UNL     1      16.498  -7.174   5.569  0.00  0.00    +0.017 C 
ATOM     20  C   UNL     1      17.608  -6.334   4.941  0.00  0.00    +0.109 C 
ENDBRANCH  12  15
ENDBRANCH   9  12
ENDBRANCH   3   6
BRANCH   1  22
ATOM     21  N   UNL     1       7.184  -2.877   0.988  0.00  0.00    -0.309 N 
ATOM     22  C   UNL     1       8.254  -2.516   1.723  0.00  0.00    +0.302 C 
ATOM     23  O   UNL     1       8.161  -1.610   2.528  0.00  0.00    -0.265 OA
ATOM     24  H   UNL     1       7.259  -3.600   0.346  0.00  0.00    +0.149 HD
BRANCH  21  25
ATOM     25  C   UNL     1       5.908  -2.179   1.160  0.00  0.00    +0.086 C 
BRANCH  25  26
ATOM     26  C   UNL     1       4.866  -2.780   0.214  0.00  0.00    -0.059 C 
BRANCH  26  35
ATOM     27  C   UNL     1      -0.017   1.376   0.010  0.00  0.00    +0.000 A 
ATOM     28  C   UNL     1       1.173   2.080   0.002  0.00  0.00    +0.000 A 
ATOM     29  C   UNL     1       2.375   1.401  -0.015  0.00  0.00    +0.002 A 
ATOM     30  C   UNL     1       2.395   0.014  -0.023  0.00  0.00    -0.061 A 
ATOM     31  C   UNL     1       1.208  -0.687  -0.013  0.00  0.00    -0.048 A 
ATOM     32  C   UNL     1       0.002  -0.004   0.002  0.00  0.00    +0.004 A 
ATOM     33  C   UNL     1       1.186  -2.194  -0.014  0.00  0.00    +0.017 C 
ATOM     34  C   UNL     1       2.554  -2.732  -0.434  0.00  0.00    -0.074 C 
ATOM     35  N   UNL     1       3.587  -2.079   0.386  0.00  0.00    +0.384 N 
ATOM     36  C   UNL     1       3.728  -0.686  -0.046  0.00  0.00    -0.043 C 
ATOM     37  H   UNL     1       3.313  -2.106   1.357  0.00  0.00    -0.081 HD
ENDBRANCH  26  35
ENDBRANCH  25  26
ENDBRANCH  21  25
ENDBRANCH   1  22
TORSDOF 7
