REMARK  Name = ZINC38684301
REMARK  17 active torsions:
REMARK  status: ('A' for Active; 'I' for Inactive)
REMARK    1  A    between atoms: C_1  and  C_2
REMARK    2  A    between atoms: C_2  and  C_3
REMARK    3  A    between atoms: C_3  and  C_4
REMARK    4  A    between atoms: C_4  and  C_5
REMARK    5  A    between atoms: C_5  and  O_6
REMARK    6  A    between atoms: O_6  and  C_7
REMARK    7  A    between atoms: C_10  and  C_16
REMARK    8  A    between atoms: C_12  and  O_13
REMARK    9  A    between atoms: O_13  and  C_14
REMARK   10  A    between atoms: C_14  and  C_15
REMARK   11  A    between atoms: C_21  and  O_30
REMARK   12  A    between atoms: C_25  and  N_29
REMARK   13  A    between atoms: C_26  and  C_27
REMARK   14  A    between atoms: O_30  and  C_31
REMARK   15  A    between atoms: C_31  and  C_33
REMARK   16  A    between atoms: C_36  and  O_39
REMARK   17  A    between atoms: O_39  and  C_40
REMARK                            x       y       z     vdW  Elec       q    Type
REMARK                         _______ _______ _______ _____ _____    ______ ____
ROOT
ATOM      1  C   UNL     1      -7.835  -6.589   0.013  0.00  0.00    +0.098 C 
ATOM      2  C   UNL     1      -8.589  -6.212   1.261  0.00  0.00    +0.008 A 
ATOM      3  C   UNL     1      -8.298  -6.854   2.452  0.00  0.00    +0.012 A 
ATOM      4  C   UNL     1      -8.980  -6.522   3.606  0.00  0.00    +0.047 A 
ATOM      5  C   UNL     1      -9.960  -5.541   3.574  0.00  0.00    +0.135 A 
ATOM      6  C   UNL     1     -10.254  -4.896   2.384  0.00  0.00    +0.093 A 
ATOM      7  C   UNL     1      -9.567  -5.231   1.224  0.00  0.00    +0.138 A 
ATOM      8  O   UNL     1      -9.866  -4.590   0.067  0.00  0.00    -0.441 OA
ATOM      9  C   UNL     1      -9.519  -5.137  -1.111  0.00  0.00    +0.199 C 
ATOM     10  C   UNL     1      -8.564  -6.088  -1.202  0.00  0.00    +0.098 C 
ENDROOT
BRANCH   1  14
ATOM     11  C   UNL     1      -3.932  -4.846   0.140  0.00  0.00    +0.162 A 
ATOM     12  C   UNL     1      -5.056  -4.037   0.170  0.00  0.00    +0.050 A 
ATOM     13  C   UNL     1      -6.317  -4.604   0.129  0.00  0.00    +0.008 A 
ATOM     14  C   UNL     1      -6.459  -5.977   0.058  0.00  0.00    -0.031 A 
ATOM     15  C   UNL     1      -5.341  -6.790   0.028  0.00  0.00    +0.054 A 
ATOM     16  C   UNL     1      -4.075  -6.228   0.062  0.00  0.00    +0.162 A 
BRANCH  11  17
ATOM     17  O   UNL     1      -2.691  -4.291   0.180  0.00  0.00    -0.488 OA
BRANCH  17  18
ATOM     18  C   UNL     1      -2.621  -2.866   0.260  0.00  0.00    +0.229 C 
BRANCH  18  19
ATOM     19  C   UNL     1      -1.155  -2.429   0.295  0.00  0.00    +0.041 C 
BRANCH  19  20
ATOM     20  C   UNL     1      -1.079  -0.903   0.380  0.00  0.00    +0.003 C 
BRANCH  20  22
ATOM     21  C   UNL     1       0.462   1.060   0.500  0.00  0.00    +0.004 C 
ATOM     22  C   UNL     1       0.386  -0.466   0.415  0.00  0.00    -0.003 C 
ENDBRANCH  20  22
ENDBRANCH  19  20
ENDBRANCH  18  19
ENDBRANCH  17  18
ENDBRANCH  11  17
BRANCH  16  23
ATOM     23  O   UNL     1      -2.974  -7.026   0.027  0.00  0.00    -0.489 OA
BRANCH  23  24
ATOM     24  C   UNL     1      -3.197  -8.436  -0.053  0.00  0.00    +0.226 C 
ATOM     25  C   UNL     1      -1.852  -9.164  -0.083  0.00  0.00    +0.048 C 
ENDBRANCH  23  24
ENDBRANCH  16  23
ENDBRANCH   1  14
BRANCH   9  26
ATOM     26  N   UNL     1     -10.154  -4.716  -2.253  0.00  0.00    -0.328 N 
ATOM     27  H   UNL     1     -10.841  -4.034  -2.202  0.00  0.00    +0.145 HD
ATOM     28  H   UNL     1      -9.915  -5.101  -3.110  0.00  0.00    +0.145 HD
ENDBRANCH   9  26
BRANCH  10  29
ATOM     29  C   UNL     1      -8.240  -6.629  -2.487  0.00  0.00    +0.101 C 
ATOM     30  N   UNL     1      -7.983  -7.059  -3.507  0.00  0.00    -0.191 NA
ENDBRANCH  10  29
BRANCH   5  31
ATOM     31  O   UNL     1     -10.632  -5.213   4.709  0.00  0.00    -0.422 OA
BRANCH  31  32
ATOM     32  C   UNL     1     -11.934  -5.548   4.794  0.00  0.00    +0.344 C 
ATOM     33  O   UNL     1     -12.447  -6.218   3.919  0.00  0.00    -0.245 OA
BRANCH  32  34
ATOM     34  C   UNL     1     -12.737  -5.104   5.948  0.00  0.00    +0.060 A 
ATOM     35  C   UNL     1     -12.151  -4.329   6.953  0.00  0.00    +0.018 A 
ATOM     36  C   UNL     1     -12.904  -3.915   8.029  0.00  0.00    +0.046 A 
ATOM     37  C   UNL     1     -14.246  -4.267   8.116  0.00  0.00    +0.120 A 
ATOM     38  C   UNL     1     -14.833  -5.038   7.119  0.00  0.00    +0.046 A 
ATOM     39  C   UNL     1     -14.088  -5.451   6.037  0.00  0.00    +0.018 A 
BRANCH  37  40
ATOM     40  O   UNL     1     -14.985  -3.858   9.178  0.00  0.00    -0.495 OA
ATOM     41  C   UNL     1     -16.357  -4.255   9.205  0.00  0.00    +0.277 C 
ENDBRANCH  37  40
ENDBRANCH  32  34
ENDBRANCH  31  32
ENDBRANCH   5  31
TORSDOF 14
