REMARK  Name = ZINC13125640
REMARK  3 active torsions:
REMARK  status: ('A' for Active; 'I' for Inactive)
REMARK    1  A    between atoms: C_5  and  C_7
REMARK    2  A    between atoms: C_7  and  N_8
REMARK    3  A    between atoms: C_16  and  C_17
REMARK                            x       y       z     vdW  Elec       q    Type
REMARK                         _______ _______ _______ _____ _____    ______ ____
ROOT
ATOM      1  N   UNL     1       1.489  -2.728   1.316  0.00  0.00    -0.319 N 
ATOM      2  C   UNL     1       2.728  -2.873   1.912  0.00  0.00    +0.069 A 
ATOM      3  C   UNL     1       4.033  -2.686   1.479  0.00  0.00    +0.028 A 
ATOM      4  C   UNL     1       5.081  -2.924   2.343  0.00  0.00    +0.002 A 
ATOM      5  C   UNL     1       4.840  -3.350   3.641  0.00  0.00    +0.002 A 
ATOM      6  C   UNL     1       3.562  -3.540   4.086  0.00  0.00    +0.030 A 
ATOM      7  C   UNL     1       2.483  -3.304   3.228  0.00  0.00    +0.090 A 
ATOM      8  N   UNL     1       1.139  -3.401   3.375  0.00  0.00    -0.227 NA
ATOM      9  C   UNL     1       0.547  -3.058   2.254  0.00  0.00    +0.147 A 
ENDROOT
BRANCH   9  10
ATOM     10  C   UNL     1      -0.911  -3.035   2.037  0.00  0.00    +0.082 A 
ATOM     11  C   UNL     1      -1.497  -3.864   1.088  0.00  0.00    +0.018 A 
ATOM     12  C   UNL     1      -2.882  -3.816   0.909  0.00  0.00    +0.018 A 
ATOM     13  C   UNL     1      -3.635  -2.970   1.655  0.00  0.00    +0.086 A 
ATOM     14  N   UNL     1      -3.069  -2.159   2.583  0.00  0.00    -0.329 N 
ATOM     15  H   UNL     1      -3.631  -1.564   3.104  0.00  0.00    +0.168 HD
ATOM     16  C   UNL     1      -1.740  -2.172   2.798  0.00  0.00    +0.259 A 
ATOM     17  O   UNL     1      -1.250  -1.440   3.641  0.00  0.00    -0.267 OA
ENDBRANCH   9  10
BRANCH   1  18
ATOM     18  C   UNL     1       1.232  -2.295  -0.060  0.00  0.00    +0.162 C 
BRANCH  18  23
ATOM     19  C   UNL     1      -0.548   1.034  -0.027  0.00  0.00    +0.000 A 
ATOM     20  C   UNL     1       0.512   1.917  -0.119  0.00  0.00    +0.003 A 
ATOM     21  C   UNL     1       1.806   1.438  -0.191  0.00  0.00    +0.039 A 
ATOM     22  C   UNL     1       2.041   0.073  -0.172  0.00  0.00    +0.128 A 
ATOM     23  C   UNL     1       0.978  -0.810  -0.080  0.00  0.00    +0.007 A 
ATOM     24  C   UNL     1      -0.315  -0.328  -0.008  0.00  0.00    +0.008 A 
ATOM     25  F   UNL     1       3.306  -0.397  -0.242  0.00  0.00    -0.205 F 
ENDBRANCH  18  23
ENDBRANCH   1  18
TORSDOF 3
