REMARK  Name = ZINC39620881
REMARK  6 active torsions:
REMARK  status: ('A' for Active; 'I' for Inactive)
REMARK    1  A    between atoms: C_1  and  C_2
REMARK    2  A    between atoms: C_5  and  C_15
REMARK    3  A    between atoms: C_6  and  C_14
REMARK    4  A    between atoms: C_15  and  C_17
REMARK    5  A    between atoms: C_17  and  N_18
REMARK    6  A    between atoms: C_20  and  C_23
REMARK                            x       y       z     vdW  Elec       q    Type
REMARK                         _______ _______ _______ _____ _____    ______ ____
ROOT
ATOM      1  C   UNL     1      -2.719  -1.944   1.622  0.00  0.00    +0.184 C 
ATOM      2  O   UNL     1      -2.734  -2.656   2.606  0.00  0.00    -0.290 OA
ENDROOT
BRANCH   1   6
ATOM      3  C   UNL     1       0.212   1.505   0.122  0.00  0.00    +0.029 C 
ATOM      4  C   UNL     1       0.133  -0.022   0.073  0.00  0.00    +0.083 C 
ATOM      5  C   UNL     1      -1.335  -0.482  -0.018  0.00  0.00    +0.063 C 
ATOM      6  C   UNL     1      -1.533  -1.300   1.240  0.00  0.00    +0.016 C 
ATOM      7  C   UNL     1      -0.375  -1.305   1.930  0.00  0.00    +0.017 C 
ATOM      8  N   UNL     1       0.620  -0.602   1.332  0.00  0.00    -0.269 N 
ATOM      9  C   UNL     1       1.914  -0.450   1.836  0.00  0.00    +0.241 A 
ATOM     10  N   UNL     1       2.370  -0.972   2.979  0.00  0.00    -0.202 NA
ATOM     11  H   UNL     1       4.877   0.511   1.960  0.00  0.00    +0.190 HD
ATOM     12  C   UNL     1       3.623  -0.636   3.151  0.00  0.00    +0.217 A 
ATOM     13  N   UNL     1       4.002   0.119   2.106  0.00  0.00    -0.264 N 
ATOM     14  N   UNL     1       2.883   0.223   1.263  0.00  0.00    -0.136 NA
ATOM     15  C   UNL     1      -0.201  -2.024   3.243  0.00  0.00    +0.061 C 
ENDBRANCH   1   6
BRANCH   1  16
ATOM     16  C   UNL     1      -3.975  -1.752   0.812  0.00  0.00    +0.247 C 
BRANCH  16  17
ATOM     17  N   UNL     1      -5.066  -2.523   1.413  0.00  0.00    -0.155 N 
ATOM     18  N   UNL     1      -5.361  -3.745   1.127  0.00  0.00    -0.130 NA
ATOM     19  C   UNL     1      -6.395  -4.094   1.865  0.00  0.00    +0.205 A 
ATOM     20  N   UNL     1      -6.712  -3.026   2.611  0.00  0.00    -0.108 NA
ATOM     21  N   UNL     1      -5.878  -2.089   2.313  0.00  0.00    -0.045 NA
BRANCH  19  22
ATOM     22  C   UNL     1      -7.077  -5.412   1.870  0.00  0.00    +0.024 A 
ATOM     23  C   UNL     1      -6.627  -6.435   1.037  0.00  0.00    +0.012 A 
ATOM     24  C   UNL     1      -7.264  -7.659   1.045  0.00  0.00    +0.002 A 
ATOM     25  C   UNL     1      -8.347  -7.873   1.878  0.00  0.00    +0.020 A 
ATOM     26  C   UNL     1      -8.799  -6.861   2.707  0.00  0.00    +0.042 A 
ATOM     27  C   UNL     1      -8.165  -5.634   2.711  0.00  0.00    +0.031 A 
ATOM     28 CL   UNL     1     -10.160  -7.137   3.749  0.00  0.00    -0.084 Cl
ENDBRANCH  19  22
ENDBRANCH  16  17
ENDBRANCH   1  16
TORSDOF 4
