REMARK  Name = ZINC13792026
REMARK  8 active torsions:
REMARK  status: ('A' for Active; 'I' for Inactive)
REMARK    1  A    between atoms: C_1  and  O_2
REMARK    2  A    between atoms: O_2  and  C_3
REMARK    3  A    between atoms: C_3  and  C_5
REMARK    4  A    between atoms: C_5  and  N_6
REMARK    5  A    between atoms: N_15  and  C_16
REMARK    6  A    between atoms: C_16  and  C_18
REMARK    7  A    between atoms: N_23  and  S_25
REMARK    8  A    between atoms: S_25  and  C_28
REMARK                            x       y       z     vdW  Elec       q    Type
REMARK                         _______ _______ _______ _____ _____    ______ ____
ROOT
ATOM      1  N   UNL     1       3.549  -0.818  -0.044  0.00  0.00    -0.310 N 
ATOM      2  C   UNL     1       2.436   0.005  -0.026  0.00  0.00    +0.062 A 
ATOM      3  C   UNL     1       2.392   1.408  -0.018  0.00  0.00    +0.076 A 
ATOM      4  C   UNL     1       1.187   2.082   0.002  0.00  0.00    +0.164 A 
ATOM      5  C   UNL     1      -0.017   1.382   0.010  0.00  0.00    +0.163 A 
ATOM      6  C   UNL     1       0.002  -0.004   0.002  0.00  0.00    +0.066 A 
ATOM      7  C   UNL     1       1.206  -0.668  -0.015  0.00  0.00    +0.043 A 
ATOM      8  S   UNL     1       1.677  -2.379  -0.029  0.00  0.00    -0.052 S 
ATOM      9  C   UNL     1       3.398  -2.168  -0.048  0.00  0.00    +0.167 A 
ATOM     10  N   UNL     1       4.345  -3.104  -0.063  0.00  0.00    -0.156 NA
ATOM     11  O   UNL     1      -1.210   2.036   0.019  0.00  0.00    -0.485 OA
ATOM     12  C   UNL     1      -1.183   3.416   0.404  0.00  0.00    +0.270 C 
ATOM     13  C   UNL     1      -0.029   4.098  -0.345  0.00  0.00    +0.270 C 
ATOM     14  O   UNL     1       1.191   3.445   0.018  0.00  0.00    -0.485 OA
ENDROOT
BRANCH  10  15
ATOM     15  C   UNL     1       4.008  -4.390  -0.065  0.00  0.00    +0.243 C 
ATOM     16  O   UNL     1       2.836  -4.711  -0.053  0.00  0.00    -0.273 OA
BRANCH  15  17
ATOM     17  C   UNL     1       5.080  -5.449  -0.082  0.00  0.00    +0.093 C 
ATOM     18  C   UNL     1       5.935  -5.291  -1.341  0.00  0.00    +0.015 C 
ATOM     19  C   UNL     1       7.043  -6.347  -1.343  0.00  0.00    +0.018 C 
ATOM     20  C   UNL     1       6.413  -7.743  -1.358  0.00  0.00    +0.109 C 
ATOM     21  N   UNL     1       5.478  -7.852  -0.230  0.00  0.00    -0.181 NA
ATOM     22  C   UNL     1       4.428  -6.836  -0.082  0.00  0.00    +0.121 C 
BRANCH  21  23
ATOM     23  S   UNL     1       5.606  -9.097   0.855  0.00  0.00    +0.029 S 
ATOM     24  O   UNL     1       6.974  -9.479   0.808  0.00  0.00    -0.158 OA
ATOM     25  O   UNL     1       5.036  -8.593   2.054  0.00  0.00    -0.158 OA
ATOM     26  C   UNL     1       4.565 -10.417   0.174  0.00  0.00    +0.215 C 
ENDBRANCH  21  23
ENDBRANCH  15  17
ENDBRANCH  10  15
BRANCH   1  27
ATOM     27  C   UNL     1       4.892  -0.232  -0.058  0.00  0.00    +0.244 C 
BRANCH  27  28
ATOM     28  C   UNL     1       5.334  -0.024  -1.483  0.00  0.00    +0.327 C 
ATOM     29  O   UNL     1       4.604  -0.334  -2.394  0.00  0.00    -0.249 OA
BRANCH  28  31
ATOM     30  C   UNL     1       6.901   0.676  -3.137  0.00  0.00    +0.280 C 
ATOM     31  O   UNL     1       6.541   0.505  -1.741  0.00  0.00    -0.467 OA
ENDBRANCH  28  31
ENDBRANCH  27  28
ENDBRANCH   1  27
TORSDOF 6
