REMARK  Name = ZINC01675715
REMARK  9 active torsions:
REMARK  status: ('A' for Active; 'I' for Inactive)
REMARK    1  A    between atoms: C_1  and  C_2
REMARK    2  A    between atoms: C_1  and  N_4
REMARK    3  A    between atoms: C_2  and  O_3
REMARK    4  A    between atoms: N_4  and  C_5
REMARK    5  A    between atoms: C_5  and  C_7
REMARK    6  A    between atoms: C_5  and  O_11
REMARK    7  A    between atoms: N_14  and  C_15
REMARK    8  A    between atoms: C_15  and  C_17
REMARK    9  A    between atoms: C_15  and  O_21
REMARK                            x       y       z     vdW  Elec       q    Type
REMARK                         _______ _______ _______ _____ _____    ______ ____
ROOT
ATOM      1  N   UNL     1      -0.017   1.056   0.129  0.00  0.00    -0.254 N 
ATOM      2  C   UNL     1      -0.126  -0.134   0.752  0.00  0.00    +0.306 C 
ATOM      3  O   UNL     1       0.866  -0.807   0.955  0.00  0.00    -0.253 OA
ATOM      4  N   UNL     1      -1.335  -0.578   1.150  0.00  0.00    -0.270 N 
ATOM      5  H   UNL     1      -2.126  -0.041   0.988  0.00  0.00    +0.153 HD
ENDROOT
BRANCH   1   6
ATOM      6  C   UNL     1       1.297   1.539  -0.304  0.00  0.00    +0.139 C 
BRANCH   6   7
ATOM      7  C   UNL     1       1.985   2.257   0.859  0.00  0.00    +0.175 C 
BRANCH   7   8
ATOM      8  O   UNL     1       2.269   1.318   1.897  0.00  0.00    -0.393 OA
ATOM      9  H   UNL     1       2.772   1.689   2.636  0.00  0.00    +0.209 HD
ENDBRANCH   7   8
ENDBRANCH   6   7
ENDBRANCH   1   6
BRANCH   1  10
ATOM     10  C   UNL     1      -1.213   1.864  -0.121  0.00  0.00    +0.257 C 
BRANCH  10  11
ATOM     11  C   UNL     1      -1.724   1.595  -1.538  0.00  0.00    +0.233 C 
ATOM     12 CL   UNL     1      -0.508   2.178  -2.735  0.00  0.00    -0.079 Cl
ATOM     13 CL   UNL     1      -1.982  -0.175  -1.757  0.00  0.00    -0.079 Cl
ATOM     14 CL   UNL     1      -3.282   2.466  -1.791  0.00  0.00    -0.079 Cl
ENDBRANCH  10  11
BRANCH  10  15
ATOM     15  O   UNL     1      -0.888   3.249   0.013  0.00  0.00    -0.370 OA
ATOM     16  H   UNL     1      -0.557   3.493   0.889  0.00  0.00    +0.212 HD
ENDBRANCH  10  15
ENDBRANCH   1  10
BRANCH   4  17
ATOM     17  C   UNL     1      -1.453  -1.872   1.827  0.00  0.00    +0.255 C 
BRANCH  17  18
ATOM     18  C   UNL     1      -2.703  -2.598   1.325  0.00  0.00    +0.232 C 
ATOM     19 CL   UNL     1      -4.161  -1.598   1.680  0.00  0.00    -0.079 Cl
ATOM     20 CL   UNL     1      -2.573  -2.860  -0.454  0.00  0.00    -0.079 Cl
ATOM     21 CL   UNL     1      -2.849  -4.190   2.159  0.00  0.00    -0.079 Cl
ENDBRANCH  17  18
BRANCH  17  22
ATOM     22  O   UNL     1      -1.556  -1.664   3.237  0.00  0.00    -0.370 OA
ATOM     23  H   UNL     1      -2.320  -1.133   3.501  0.00  0.00    +0.212 HD
ENDBRANCH  17  22
ENDBRANCH   4  17
TORSDOF 9
