REMARK  Name = ZINC39252156
REMARK  8 active torsions:
REMARK  status: ('A' for Active; 'I' for Inactive)
REMARK    1  A    between atoms: C_4  and  C_7
REMARK    2  A    between atoms: C_7  and  C_8
REMARK    3  A    between atoms: C_8  and  C_9
REMARK    4  A    between atoms: C_13  and  N_16
REMARK    5  A    between atoms: C_17  and  C_19
REMARK    6  A    between atoms: N_24  and  C_26
REMARK    7  A    between atoms: C_26  and  C_27
REMARK    8  A    between atoms: C_27  and  C_28
REMARK                            x       y       z     vdW  Elec       q    Type
REMARK                         _______ _______ _______ _____ _____    ______ ____
ROOT
ATOM      1  C   UNL     1       9.939  -5.506   1.744  0.00  0.00    +0.101 C 
ATOM      2  C   UNL     1       9.944  -6.341   0.442  0.00  0.00    +0.110 C 
ATOM      3  C   UNL     1      11.139  -7.257   0.594  0.00  0.00    +0.216 C 
ATOM      4  O   UNL     1      11.662  -7.872  -0.310  0.00  0.00    -0.276 OA
ATOM      5  N   UNL     1      11.536  -7.290   1.878  0.00  0.00    -0.300 N 
ATOM      6  C   UNL     1      10.686  -6.440   2.721  0.00  0.00    +0.121 C 
ENDROOT
BRANCH   1   8
ATOM      7  N   UNL     1       7.694  -4.505   1.462  0.00  0.00    -0.284 N 
ATOM      8  C   UNL     1       8.530  -5.249   2.214  0.00  0.00    +0.220 C 
ATOM      9  O   UNL     1       8.149  -5.710   3.268  0.00  0.00    -0.275 OA
ATOM     10  H   UNL     1       7.999  -4.136   0.618  0.00  0.00    +0.152 HD
BRANCH   7  14
ATOM     11  C   UNL     1       5.507  -1.710   1.381  0.00  0.00    +0.188 C 
ATOM     12  N   UNL     1       5.927  -2.096   2.748  0.00  0.00    -0.175 NA
ATOM     13  N   UNL     1       6.292  -3.231   2.987  0.00  0.00    -0.157 NA
ATOM     14  C   UNL     1       6.325  -4.255   1.919  0.00  0.00    +0.275 C 
ATOM     15  S   UNL     1       5.330  -3.387   0.623  0.00  0.00    -0.085 S 
BRANCH  11  16
ATOM     16  C   UNL     1       4.171  -0.963   1.399  0.00  0.00    +0.044 C 
BRANCH  16  17
ATOM     17  C   UNL     1       3.711  -0.707  -0.038  0.00  0.00    +0.038 C 
BRANCH  17  21
ATOM     18  C   UNL     1      -0.017   1.378   0.010  0.00  0.00    +0.000 A 
ATOM     19  C   UNL     1       1.171   2.086   0.002  0.00  0.00    +0.000 A 
ATOM     20  C   UNL     1       2.377   1.411  -0.013  0.00  0.00    +0.003 A 
ATOM     21  C   UNL     1       2.396   0.029  -0.020  0.00  0.00    -0.047 A 
ATOM     22  C   UNL     1       1.208  -0.679  -0.012  0.00  0.00    +0.003 A 
ATOM     23  C   UNL     1       0.002  -0.004   0.002  0.00  0.00    +0.000 A 
ENDBRANCH  17  21
ENDBRANCH  16  17
ENDBRANCH  11  16
ENDBRANCH   7  14
ENDBRANCH   1   8
BRANCH   5  24
ATOM     24  C   UNL     1      12.672  -8.072   2.372  0.00  0.00    +0.112 C 
BRANCH  24  25
ATOM     25  C   UNL     1      13.944  -7.225   2.302  0.00  0.00    +0.056 C 
BRANCH  25  26
ATOM     26  C   UNL     1      15.112  -8.030   2.810  0.00  0.00    -0.021 A 
ATOM     27  C   UNL     1      15.927  -8.968   2.035  0.00  0.00    +0.004 A 
ATOM     28  C   UNL     1      15.912  -9.398   0.707  0.00  0.00    +0.030 A 
ATOM     29  C   UNL     1      16.843 -10.318   0.277  0.00  0.00    +0.042 A 
ATOM     30  C   UNL     1      17.794 -10.817   1.158  0.00  0.00    +0.022 A 
ATOM     31  C   UNL     1      17.821 -10.403   2.471  0.00  0.00    +0.027 A 
ATOM     32  C   UNL     1      16.891  -9.475   2.926  0.00  0.00    +0.047 A 
ATOM     33  N   UNL     1      16.666  -8.880   4.148  0.00  0.00    -0.360 N 
ATOM     34  C   UNL     1      15.607  -8.018   4.058  0.00  0.00    +0.087 A 
ATOM     35 CL   UNL     1      16.828 -10.855  -1.373  0.00  0.00    -0.084 Cl
ATOM     36  H   UNL     1      17.184  -9.044   4.952  0.00  0.00    +0.165 HD
ENDBRANCH  25  26
ENDBRANCH  24  25
ENDBRANCH   5  24
TORSDOF 8
