REMARK  Name = ZINC09243418
REMARK  6 active torsions:
REMARK  status: ('A' for Active; 'I' for Inactive)
REMARK    1  A    between atoms: C_4  and  O_32
REMARK    2  A    between atoms: C_5  and  C_7
REMARK    3  A    between atoms: C_9  and  C_13
REMARK    4  A    between atoms: N_15  and  C_16
REMARK    5  A    between atoms: C_19  and  S_22
REMARK    6  A    between atoms: S_22  and  N_25
REMARK                            x       y       z     vdW  Elec       q    Type
REMARK                         _______ _______ _______ _____ _____    ______ ____
ROOT
ATOM      1  C   UNL     1       1.730  -6.684  -0.639  0.00  0.00    +0.266 C 
ATOM      2  O   UNL     1       2.186  -7.672  -1.183  0.00  0.00    -0.268 OA
ATOM      3  N   UNL     1       0.520  -6.739  -0.048  0.00  0.00    -0.280 N 
ATOM      4  H   UNL     1       0.185  -5.972   0.443  0.00  0.00    +0.155 HD
ENDROOT
BRANCH   1   7
ATOM      5  C   UNL     1       4.049  -3.871  -0.916  0.00  0.00    +0.097 A 
ATOM      6  C   UNL     1       3.744  -5.217  -1.189  0.00  0.00    +0.062 A 
ATOM      7  C   UNL     1       2.498  -5.429  -0.629  0.00  0.00    +0.121 A 
ATOM      8  N   UNL     1       2.121  -4.244  -0.063  0.00  0.00    -0.272 N 
ATOM      9  H   UNL     1       1.286  -4.091   0.406  0.00  0.00    +0.189 HD
ATOM     10  N   UNL     1       3.039  -3.363  -0.241  0.00  0.00    -0.173 NA
BRANCH   5  15
ATOM     11  C   UNL     1       7.430  -3.148  -2.394  0.00  0.00    +0.001 A 
ATOM     12  C   UNL     1       7.600  -1.818  -2.052  0.00  0.00    +0.004 A 
ATOM     13  C   UNL     1       6.621  -1.150  -1.342  0.00  0.00    +0.046 A 
ATOM     14  C   UNL     1       5.462  -1.811  -0.968  0.00  0.00    +0.126 A 
ATOM     15  C   UNL     1       5.287  -3.155  -1.313  0.00  0.00    +0.044 A 
ATOM     16  C   UNL     1       6.280  -3.818  -2.028  0.00  0.00    +0.014 A 
BRANCH  14  17
ATOM     17  O   UNL     1       4.498  -1.156  -0.269  0.00  0.00    -0.506 OA
ATOM     18  H   UNL     1       3.836  -0.722  -0.825  0.00  0.00    +0.292 HD
ENDBRANCH  14  17
ENDBRANCH   5  15
ENDBRANCH   1   7
BRANCH   3  19
ATOM     19  C   UNL     1      -0.252  -7.901  -0.141  0.00  0.00    +0.034 A 
ATOM     20  C   UNL     1      -1.635  -7.812  -0.233  0.00  0.00    +0.025 A 
ATOM     21  C   UNL     1      -2.394  -8.962  -0.326  0.00  0.00    +0.030 A 
ATOM     22  C   UNL     1      -1.780 -10.200  -0.325  0.00  0.00    +0.106 A 
ATOM     23  C   UNL     1      -0.403 -10.292  -0.233  0.00  0.00    +0.030 A 
ATOM     24  C   UNL     1       0.363  -9.146  -0.146  0.00  0.00    +0.025 A 
BRANCH  22  25
ATOM     25  S   UNL     1      -2.752 -11.665  -0.443  0.00  0.00    +0.061 S 
ATOM     26  O   UNL     1      -1.980 -12.712   0.127  0.00  0.00    -0.153 OA
ATOM     27  O   UNL     1      -4.049 -11.330   0.032  0.00  0.00    -0.153 OA
BRANCH  25  28
ATOM     28  N   UNL     1      -2.914 -12.018  -2.052  0.00  0.00    -0.177 NA
ATOM     29  C   UNL     1      -4.033 -11.456  -2.776  0.00  0.00    +0.109 C 
ATOM     30  C   UNL     1      -5.245 -12.415  -2.684  0.00  0.00    +0.017 C 
ATOM     31  C   UNL     1      -5.007 -13.619  -3.494  0.00  0.00    +0.001 C 
ATOM     32  C   UNL     1      -3.822 -14.463  -3.034  0.00  0.00    +0.001 C 
ATOM     33  C   UNL     1      -2.554 -13.917  -3.641  0.00  0.00    +0.017 C 
ATOM     34  C   UNL     1      -1.907 -12.888  -2.691  0.00  0.00    +0.109 C 
ENDBRANCH  25  28
ENDBRANCH  22  25
ENDBRANCH   3  19
TORSDOF 6
