REMARK  Name = ZINC04610891
REMARK  3 active torsions:
REMARK  status: ('A' for Active; 'I' for Inactive)
REMARK    1  A    between atoms: C_8  and  N_11
REMARK    2  A    between atoms: N_11  and  N_12
REMARK    3  A    between atoms: C_18  and  C_19
REMARK                            x       y       z     vdW  Elec       q    Type
REMARK                         _______ _______ _______ _____ _____    ______ ____
ROOT
ATOM      1  N   UNL     1      -0.631  -2.906   0.098  0.00  0.00    -0.247 N 
ATOM      2  C   UNL     1      -1.470  -3.985   0.203  0.00  0.00    +0.168 C 
ATOM      3  N   UNL     1      -1.158  -5.271   0.216  0.00  0.00    -0.153 NA
ATOM      4  C   UNL     1      -2.066  -6.216   0.324  0.00  0.00    +0.276 C 
ATOM      5  O   UNL     1      -1.766  -7.399   0.336  0.00  0.00    -0.267 OA
ATOM      6  C   UNL     1      -3.471  -5.768   0.432  0.00  0.00    +0.082 C 
ATOM      7  C   UNL     1      -4.614  -6.501   0.553  0.00  0.00    +0.066 C 
ATOM      8  S   UNL     1      -3.249  -3.995   0.364  0.00  0.00    -0.050 S 
ATOM      9  H   UNL     1      -0.994  -2.006   0.106  0.00  0.00    +0.172 HD
ENDROOT
BRANCH   7  10
ATOM     10  C   UNL     1      -5.865  -5.849   0.641  0.00  0.00    +0.129 A 
ATOM     11  C   UNL     1      -7.095  -6.463   0.772  0.00  0.00    +0.049 A 
ATOM     12  C   UNL     1      -8.050  -5.437   0.821  0.00  0.00    +0.042 A 
ATOM     13  C   UNL     1      -7.384  -4.265   0.720  0.00  0.00    +0.195 A 
ATOM     14  O   UNL     1      -6.071  -4.516   0.618  0.00  0.00    -0.463 OA
ENDBRANCH   7  10
BRANCH   1  15
ATOM     15  N   UNL     1       0.751  -3.102  -0.022  0.00  0.00    -0.260 N 
ATOM     16  H   UNL     1       1.107  -4.000  -0.118  0.00  0.00    +0.170 HD
BRANCH  15  24
ATOM     17  C   UNL     1       0.042   1.325   0.723  0.00  0.00    +0.001 A 
ATOM     18  C   UNL     1       1.222   2.046   0.639  0.00  0.00    +0.002 A 
ATOM     19  C   UNL     1       2.423   1.414   0.359  0.00  0.00    +0.024 A 
ATOM     20  C   UNL     1       2.458   0.037   0.157  0.00  0.00    +0.043 A 
ATOM     21  N   UNL     1       3.488  -0.810  -0.127  0.00  0.00    -0.280 N 
ATOM     22  C   UNL     1       3.065  -2.057  -0.238  0.00  0.00    +0.264 C 
ATOM     23  O   UNL     1       3.753  -3.031  -0.485  0.00  0.00    -0.268 OA
ATOM     24  C   UNL     1       1.579  -2.055  -0.003  0.00  0.00    +0.116 C 
ATOM     25  C   UNL     1       1.248  -0.700   0.243  0.00  0.00    +0.024 A 
ATOM     26  C   UNL     1       0.045  -0.043   0.527  0.00  0.00    +0.012 A 
ATOM     27  H   UNL     1       4.412  -0.534  -0.234  0.00  0.00    +0.155 HD
ENDBRANCH  15  24
ENDBRANCH   1  15
TORSDOF 3
