REMARK  Name = ZINC20355160
REMARK  10 active torsions:
REMARK  status: ('A' for Active; 'I' for Inactive)
REMARK    1  A    between atoms: C_1  and  C_2
REMARK    2  A    between atoms: C_2  and  N_3
REMARK    3  A    between atoms: C_7  and  C_9
REMARK    4  A    between atoms: C_9  and  N_10
REMARK    5  A    between atoms: C_11  and  C_13
REMARK    6  A    between atoms: C_16  and  C_19
REMARK    7  A    between atoms: N_23  and  C_31
REMARK    8  A    between atoms: C_31  and  C_32
REMARK    9  A    between atoms: C_34  and  C_39
REMARK   10  A    between atoms: C_37  and  C_38
REMARK                            x       y       z     vdW  Elec       q    Type
REMARK                         _______ _______ _______ _____ _____    ______ ____
ROOT
ATOM      1  C   UNL     1       5.502   3.536  -3.764  0.00  0.00    +0.028 C 
ATOM      2  C   UNL     1       4.784   4.673  -3.591  0.00  0.00    +0.076 C 
ATOM      3  C   UNL     1       4.446   5.188  -2.241  0.00  0.00    +0.258 C 
ATOM      4  O   UNL     1       4.351   4.415  -1.307  0.00  0.00    -0.269 OA
ATOM      5  N   UNL     1       4.242   6.493  -2.046  0.00  0.00    -0.262 N 
ATOM      6  C   UNL     1       4.409   7.507  -2.979  0.00  0.00    +0.051 A 
ATOM      7  C   UNL     1       4.577   8.813  -2.518  0.00  0.00    +0.024 A 
ATOM      8  C   UNL     1       4.747   9.852  -3.409  0.00  0.00    +0.002 A 
ATOM      9  C   UNL     1       4.755   9.614  -4.772  0.00  0.00    +0.001 A 
ATOM     10  C   UNL     1       4.590   8.327  -5.246  0.00  0.00    +0.017 A 
ATOM     11  C   UNL     1       4.416   7.279  -4.356  0.00  0.00    +0.034 A 
ATOM     12  S   UNL     1       4.199   5.633  -4.963  0.00  0.00    -0.082 S 
ENDROOT
BRANCH   1  16
ATOM     13  C   UNL     1       6.000   1.917  -7.644  0.00  0.00    +0.037 A 
ATOM     14  C   UNL     1       7.018   1.780  -6.694  0.00  0.00    +0.013 A 
ATOM     15  C   UNL     1       6.858   2.302  -5.442  0.00  0.00    +0.009 A 
ATOM     16  C   UNL     1       5.675   2.975  -5.110  0.00  0.00    -0.024 A 
ATOM     17  C   UNL     1       4.655   3.107  -6.061  0.00  0.00    +0.009 A 
ATOM     18  C   UNL     1       4.819   2.589  -7.313  0.00  0.00    +0.013 A 
BRANCH  13  20
ATOM     19  N   UNL     1       5.194   1.484  -9.912  0.00  0.00    -0.313 N 
ATOM     20  C   UNL     1       6.174   1.352  -8.996  0.00  0.00    +0.244 C 
ATOM     21  O   UNL     1       7.200   0.768  -9.284  0.00  0.00    -0.270 OA
ATOM     22  H   UNL     1       4.265   2.013  -9.652  0.00  0.00    +0.149 HD
BRANCH  19  23
ATOM     23  C   UNL     1       5.366   0.923 -11.254  0.00  0.00    +0.089 C 
BRANCH  23  28
ATOM     24  N   UNL     1       2.989   0.288 -11.389  0.00  0.00    +0.382 N 
ATOM     25  C   UNL     1       2.149  -0.242 -12.496  0.00  0.00    -0.078 C 
ATOM     26  C   UNL     1       3.186  -0.618 -13.584  0.00  0.00    -0.020 C 
ATOM     27  C   UNL     1       4.239   0.507 -13.462  0.00  0.00    -0.016 C 
ATOM     28  C   UNL     1       4.061   1.071 -12.040  0.00  0.00    -0.051 C 
ATOM     29  H   UNL     1       3.400  -0.518 -10.763  0.00  0.00    -0.081 HD
BRANCH  24  31
ATOM     30  C   UNL     1       0.944   0.373 -10.044  0.00  0.00    -0.017 C 
ATOM     31  C   UNL     1       2.200   1.130 -10.479  0.00  0.00    -0.082 C 
ENDBRANCH  24  31
ENDBRANCH  23  28
ENDBRANCH  19  23
ENDBRANCH  13  20
ENDBRANCH   1  16
BRANCH   5  32
ATOM     32  C   UNL     1       3.802   6.896  -0.708  0.00  0.00    +0.149 C 
BRANCH  32  33
ATOM     33  C   UNL     1       5.002   7.048   0.191  0.00  0.00    -0.027 A 
ATOM     34  C   UNL     1       6.272   6.829  -0.309  0.00  0.00    +0.008 A 
ATOM     35  C   UNL     1       7.372   6.968   0.516  0.00  0.00    -0.050 A 
ATOM     36  C   UNL     1       7.203   7.332   1.839  0.00  0.00    +0.003 A 
ATOM     37  C   UNL     1       5.933   7.546   2.340  0.00  0.00    +0.004 A 
ATOM     38  C   UNL     1       4.832   7.407   1.515  0.00  0.00    -0.046 A 
ATOM     39  C   UNL     1       3.448   7.646   2.059  0.00  0.00    +0.044 C 
ATOM     40  C   UNL     1       8.757   6.730  -0.029  0.00  0.00    +0.044 C 
ENDBRANCH  32  33
ENDBRANCH   5  32
TORSDOF 7
