REMARK  Name = ZINC36543575
REMARK  11 active torsions:
REMARK  status: ('A' for Active; 'I' for Inactive)
REMARK    1  A    between atoms: C_1  and  C_2
REMARK    2  A    between atoms: C_3  and  C_4
REMARK    3  A    between atoms: C_4  and  C_6
REMARK    4  A    between atoms: C_4  and  N_20
REMARK    5  A    between atoms: N_8  and  C_9
REMARK    6  A    between atoms: C_9  and  S_10
REMARK    7  A    between atoms: S_10  and  C_13
REMARK    8  A    between atoms: C_16  and  C_19
REMARK    9  A    between atoms: N_20  and  C_21
REMARK   10  A    between atoms: C_28  and  C_30
REMARK   11  A    between atoms: C_35  and  O_36
REMARK                            x       y       z     vdW  Elec       q    Type
REMARK                         _______ _______ _______ _____ _____    ______ ____
ROOT
ATOM      1  C   UNL     1       0.680  -1.899  -0.822  0.00  0.00    +0.190 C 
ENDROOT
BRANCH   1   2
ATOM      2  C   UNL     1       0.507  -2.778  -2.034  0.00  0.00    +0.239 C 
ATOM      3  O   UNL     1      -0.224  -3.745  -1.982  0.00  0.00    -0.273 OA
ATOM      4  N   UNL     1       1.165  -2.491  -3.175  0.00  0.00    -0.294 N 
ATOM      5  H   UNL     1       1.750  -1.718  -3.216  0.00  0.00    +0.150 HD
BRANCH   4   6
ATOM      6  C   UNL     1       0.997  -3.346  -4.352  0.00  0.00    +0.278 C 
BRANCH   6   7
ATOM      7  S   UNL     1      -0.287  -2.649  -5.427  0.00  0.00    +0.013 S 
ATOM      8  O   UNL     1      -0.418  -3.433  -6.605  0.00  0.00    -0.168 OA
ATOM      9  O   UNL     1      -1.431  -2.299  -4.659  0.00  0.00    -0.168 OA
BRANCH   7  10
ATOM     10  C   UNL     1       0.371  -1.112  -5.981  0.00  0.00    +0.090 A 
ATOM     11  C   UNL     1       0.143   0.041  -5.252  0.00  0.00    +0.027 A 
ATOM     12  C   UNL     1       0.659   1.247  -5.687  0.00  0.00    +0.005 A 
ATOM     13  C   UNL     1       1.404   1.301  -6.850  0.00  0.00    -0.050 A 
ATOM     14  C   UNL     1       1.633   0.148  -7.579  0.00  0.00    +0.005 A 
ATOM     15  C   UNL     1       1.120  -1.059  -7.142  0.00  0.00    +0.027 A 
ATOM     16  C   UNL     1       1.966   2.616  -7.325  0.00  0.00    +0.044 C 
ENDBRANCH   7  10
ENDBRANCH   6   7
ENDBRANCH   4   6
ENDBRANCH   1   2
BRANCH   1  19
ATOM     17  C   UNL     1      -1.036   1.534  -0.690  0.00  0.00    +0.035 C 
ATOM     18  C   UNL     1      -0.647   0.107  -0.400  0.00  0.00    -0.032 C 
ATOM     19  C   UNL     1       0.240  -0.496  -1.153  0.00  0.00    +0.000 C 
ENDBRANCH   1  19
BRANCH   1  20
ATOM     20  N   UNL     1      -0.134  -2.419   0.279  0.00  0.00    -0.250 N 
ATOM     21  C   UNL     1      -1.469  -2.529   0.137  0.00  0.00    +0.255 C 
ATOM     22  O   UNL     1      -1.989  -2.282  -0.935  0.00  0.00    -0.269 OA
BRANCH  20  23
ATOM     23  C   UNL     1       0.476  -2.802   1.479  0.00  0.00    +0.056 A 
ATOM     24  C   UNL     1       0.744  -1.854   2.457  0.00  0.00    +0.025 A 
ATOM     25  C   UNL     1       1.345  -2.235   3.641  0.00  0.00    +0.002 A 
ATOM     26  C   UNL     1       1.681  -3.560   3.852  0.00  0.00    +0.002 A 
ATOM     27  C   UNL     1       1.416  -4.507   2.881  0.00  0.00    +0.022 A 
ATOM     28  C   UNL     1       0.809  -4.133   1.697  0.00  0.00    +0.062 A 
ATOM     29 CL   UNL     1       0.470  -5.325   0.480  0.00  0.00    -0.082 Cl
ENDBRANCH  20  23
BRANCH  21  30
ATOM     30  C   UNL     1      -2.301  -2.948   1.280  0.00  0.00    +0.079 A 
ATOM     31  C   UNL     1      -2.187  -2.294   2.510  0.00  0.00    +0.017 A 
ATOM     32  C   UNL     1      -2.967  -2.691   3.574  0.00  0.00    +0.001 A 
ATOM     33  C   UNL     1      -3.865  -3.736   3.432  0.00  0.00    +0.004 A 
ATOM     34  C   UNL     1      -3.987  -4.391   2.223  0.00  0.00    +0.046 A 
ATOM     35  C   UNL     1      -3.214  -4.002   1.139  0.00  0.00    +0.129 A 
BRANCH  35  36
ATOM     36  O   UNL     1      -3.338  -4.641  -0.051  0.00  0.00    -0.506 OA
ATOM     37  H   UNL     1      -2.749  -5.401  -0.153  0.00  0.00    +0.292 HD
ENDBRANCH  35  36
ENDBRANCH  21  30
ENDBRANCH   1  20
TORSDOF 9
