REMARK  Name = ZINC23040997
REMARK  7 active torsions:
REMARK  status: ('A' for Active; 'I' for Inactive)
REMARK    1  A    between atoms: C_1  and  C_2
REMARK    2  A    between atoms: C_5  and  S_7
REMARK    3  A    between atoms: S_7  and  N_10
REMARK    4  A    between atoms: C_16  and  C_18
REMARK    5  A    between atoms: C_21  and  N_27
REMARK    6  A    between atoms: C_22  and  N_24
REMARK    7  A    between atoms: C_31  and  C_34
REMARK                            x       y       z     vdW  Elec       q    Type
REMARK                         _______ _______ _______ _____ _____    ______ ____
ROOT
ATOM      1  N   UNL     1      -5.471   2.100  -2.409  0.00  0.00    -0.173 NA
ATOM      2  C   UNL     1      -5.518   0.775  -1.777  0.00  0.00    +0.128 C 
ATOM      3  C   UNL     1      -4.914   0.881  -0.371  0.00  0.00    +0.125 C 
ATOM      4  N   UNL     1      -3.622   1.575  -0.466  0.00  0.00    -0.295 N 
ATOM      5  C   UNL     1      -3.576   2.903  -1.093  0.00  0.00    +0.125 C 
ATOM      6  C   UNL     1      -4.179   2.795  -2.504  0.00  0.00    +0.128 C 
ATOM      7  C   UNL     1      -2.501   1.006   0.019  0.00  0.00    +0.247 C 
ATOM      8  O   UNL     1      -2.531  -0.133   0.444  0.00  0.00    -0.270 OA
ENDROOT
BRANCH   7   9
ATOM      9  C   UNL     1      -1.236   1.766   0.035  0.00  0.00    +0.039 A 
ATOM     10  C   UNL     1      -1.230   3.108   0.426  0.00  0.00    +0.015 A 
ATOM     11  C   UNL     1      -0.050   3.815   0.435  0.00  0.00    +0.026 A 
ATOM     12  C   UNL     1       1.138   3.194   0.060  0.00  0.00    +0.060 A 
ATOM     13  C   UNL     1       1.136   1.856  -0.326  0.00  0.00    +0.148 A 
ATOM     14  C   UNL     1      -0.041   1.144  -0.336  0.00  0.00    +0.047 A 
BRANCH  12  15
ATOM     15  N   UNL     1       2.329   3.912   0.069  0.00  0.00    -0.328 N 
ATOM     16  C   UNL     1       2.291   5.008  -0.906  0.00  0.00    +0.105 C 
ATOM     17  C   UNL     1       3.663   5.683  -0.972  0.00  0.00    +0.019 C 
ATOM     18  C   UNL     1       4.030   6.220   0.414  0.00  0.00    +0.006 C 
ATOM     19  C   UNL     1       4.016   5.066   1.420  0.00  0.00    +0.003 C 
ATOM     20  C   UNL     1       2.633   4.410   1.417  0.00  0.00    +0.108 C 
ATOM     21  C   UNL     1       4.322   5.604   2.819  0.00  0.00    +0.009 C 
ENDBRANCH  12  15
BRANCH  13  22
ATOM     22  N   UNL     1       2.402   1.200  -0.724  0.00  0.00    +0.058 N 
ATOM     23  O   UNL     1       2.401   0.029  -1.061  0.00  0.00    -0.126 OA
ATOM     24  O   UNL     1       3.444   1.830  -0.715  0.00  0.00    -0.126 OA
ENDBRANCH  13  22
ENDBRANCH   7   9
BRANCH   1  25
ATOM     25  S   UNL     1      -6.849   2.800  -3.004  0.00  0.00    +0.067 S 
ATOM     26  O   UNL     1      -6.437   3.729  -3.997  0.00  0.00    -0.152 OA
ATOM     27  O   UNL     1      -7.755   1.740  -3.281  0.00  0.00    -0.152 OA
BRANCH  25  32
ATOM     28  C   UNL     1      -9.729   5.135   1.606  0.00  0.00    +0.051 C 
ATOM     29  C   UNL     1      -8.883   4.789   0.408  0.00  0.00    -0.011 A 
ATOM     30  C   UNL     1      -8.026   5.576  -0.288  0.00  0.00    +0.013 A 
ATOM     31  C   UNL     1      -7.349   5.040  -1.366  0.00  0.00    +0.036 A 
ATOM     32  C   UNL     1      -7.561   3.742  -1.697  0.00  0.00    +0.143 A 
ATOM     33  S   UNL     1      -8.755   3.239  -0.469  0.00  0.00    -0.074 S 
ENDBRANCH  25  32
ENDBRANCH   1  25
TORSDOF 5
