REMARK  Name = ZINC36543201
REMARK  14 active torsions:
REMARK  status: ('A' for Active; 'I' for Inactive)
REMARK    1  A    between atoms: C_1  and  C_2
REMARK    2  A    between atoms: C_2  and  C_3
REMARK    3  A    between atoms: C_2  and  C_4
REMARK    4  A    between atoms: C_2  and  C_5
REMARK    5  A    between atoms: C_5  and  C_6
REMARK    6  A    between atoms: C_6  and  C_7
REMARK    7  A    between atoms: C_6  and  C_8
REMARK    8  A    between atoms: C_6  and  N_9
REMARK    9  A    between atoms: C_10  and  C_12
REMARK   10  A    between atoms: C_12  and  C_14
REMARK   11  A    between atoms: C_12  and  N_21
REMARK   12  A    between atoms: C_19  and  O_20
REMARK   13  A    between atoms: N_21  and  C_22
REMARK   14  A    between atoms: C_29  and  C_31
REMARK                            x       y       z     vdW  Elec       q    Type
REMARK                         _______ _______ _______ _____ _____    ______ ____
ROOT
ATOM      1  C   UNL     1       5.305  -0.596  -4.345  0.00  0.00    +0.201 C 
ENDROOT
BRANCH   1   2
ATOM      2  C   UNL     1       5.550  -2.040  -4.700  0.00  0.00    +0.024 A 
ATOM      3  C   UNL     1       6.688  -2.680  -4.248  0.00  0.00    +0.009 A 
ATOM      4  C   UNL     1       6.914  -4.004  -4.574  0.00  0.00    +0.001 A 
ATOM      5  C   UNL     1       6.002  -4.692  -5.354  0.00  0.00    +0.004 A 
ATOM      6  C   UNL     1       4.863  -4.057  -5.809  0.00  0.00    +0.046 A 
ATOM      7  C   UNL     1       4.631  -2.729  -5.478  0.00  0.00    +0.122 A 
BRANCH   7   8
ATOM      8  O   UNL     1       3.508  -2.104  -5.920  0.00  0.00    -0.506 OA
ATOM      9  H   UNL     1       3.611  -1.670  -6.778  0.00  0.00    +0.292 HD
ENDBRANCH   7   8
ENDBRANCH   1   2
BRANCH   1  11
ATOM     10  N   UNL     1       3.328  -1.143  -2.961  0.00  0.00    -0.308 N 
ATOM     11  C   UNL     1       4.520  -0.522  -3.060  0.00  0.00    +0.239 C 
ATOM     12  O   UNL     1       4.962   0.097  -2.115  0.00  0.00    -0.273 OA
ATOM     13  H   UNL     1       2.975  -1.638  -3.717  0.00  0.00    +0.149 HD
BRANCH  10  14
ATOM     14  C   UNL     1       2.566  -1.071  -1.712  0.00  0.00    +0.030 C 
ATOM     15  C   UNL     1       2.547   0.374  -1.209  0.00  0.00    +0.031 C 
ATOM     16  C   UNL     1       3.222  -1.968  -0.661  0.00  0.00    +0.031 C 
BRANCH  14  17
ATOM     17  C   UNL     1       1.132  -1.542  -1.962  0.00  0.00    +0.031 C 
BRANCH  17  19
ATOM     18  C   UNL     1       1.116  -1.742  -4.452  0.00  0.00    +0.010 C 
ATOM     19  C   UNL     1       0.611  -0.925  -3.261  0.00  0.00    -0.036 C 
ATOM     20  C   UNL     1       1.115   0.515  -3.380  0.00  0.00    +0.010 C 
ATOM     21  C   UNL     1      -0.919  -0.931  -3.251  0.00  0.00    +0.010 C 
ENDBRANCH  17  19
ENDBRANCH  14  17
ENDBRANCH  10  14
ENDBRANCH   1  11
BRANCH   1  22
ATOM     22  N   UNL     1       6.588   0.090  -4.174  0.00  0.00    -0.250 N 
ATOM     23  C   UNL     1       7.412   0.249  -5.228  0.00  0.00    +0.252 C 
ATOM     24  O   UNL     1       7.109  -0.211  -6.312  0.00  0.00    -0.270 OA
BRANCH  22  25
ATOM     25  C   UNL     1       6.957   0.579  -2.917  0.00  0.00    +0.056 A 
ATOM     26  C   UNL     1       7.506  -0.277  -1.970  0.00  0.00    +0.025 A 
ATOM     27  C   UNL     1       7.870   0.209  -0.730  0.00  0.00    +0.002 A 
ATOM     28  C   UNL     1       7.689   1.547  -0.429  0.00  0.00    +0.002 A 
ATOM     29  C   UNL     1       7.144   2.403  -1.368  0.00  0.00    +0.022 A 
ATOM     30  C   UNL     1       6.782   1.924  -2.614  0.00  0.00    +0.062 A 
ATOM     31 CL   UNL     1       6.103   3.000  -3.795  0.00  0.00    -0.082 Cl
ENDBRANCH  22  25
BRANCH  23  32
ATOM     32  C   UNL     1       8.684   0.984  -5.067  0.00  0.00    +0.037 A 
ATOM     33  C   UNL     1       9.476   0.774  -3.936  0.00  0.00    +0.014 A 
ATOM     34  C   UNL     1      10.662   1.462  -3.791  0.00  0.00    +0.021 A 
ATOM     35  C   UNL     1      11.068   2.360  -4.765  0.00  0.00    +0.041 A 
ATOM     36  C   UNL     1      10.287   2.572  -5.889  0.00  0.00    +0.021 A 
ATOM     37  C   UNL     1       9.102   1.885  -6.048  0.00  0.00    +0.014 A 
ATOM     38 CL   UNL     1      12.562   3.224  -4.575  0.00  0.00    -0.084 Cl
ENDBRANCH  23  32
ENDBRANCH   1  22
TORSDOF 9
