REMARK  Name = ZINC59015642
REMARK  6 active torsions:
REMARK  status: ('A' for Active; 'I' for Inactive)
REMARK    1  A    between atoms: C_3  and  N_8
REMARK    2  A    between atoms: C_9  and  C_11
REMARK    3  A    between atoms: C_11  and  S_12
REMARK    4  A    between atoms: S_12  and  C_13
REMARK    5  A    between atoms: N_18  and  N_19
REMARK    6  A    between atoms: C_20  and  C_21
REMARK                            x       y       z     vdW  Elec       q    Type
REMARK                         _______ _______ _______ _____ _____    ______ ____
ROOT
ATOM      1  C   UNL     1       8.855   2.132   0.388  0.00  0.00    +0.211 A 
ATOM      2  N   UNL     1      10.123   1.716   0.478  0.00  0.00    -0.186 NA
ATOM      3  C   UNL     1      10.926   2.757   0.548  0.00  0.00    +0.232 A 
ATOM      4  N   UNL     1      10.167   3.873   0.502  0.00  0.00    -0.245 N 
ATOM      5  N   UNL     1       8.835   3.443   0.394  0.00  0.00    -0.144 NA
ATOM      6  N   UNL     1      12.304   2.715   0.651  0.00  0.00    -0.205 N 
ATOM      7  H   UNL     1      12.812   3.539   0.697  0.00  0.00    +0.177 HD
ATOM      8  H   UNL     1      10.481   4.790   0.535  0.00  0.00    +0.192 HD
ENDROOT
BRANCH   6   9
ATOM      9  N   UNL     1      12.966   1.481   0.688  0.00  0.00    -0.188 NA
ATOM     10  C   UNL     1      14.260   1.441   0.784  0.00  0.00    +0.139 C 
BRANCH  10  11
ATOM     11  C   UNL     1      14.957   0.142   0.823  0.00  0.00    +0.014 A 
ATOM     12  C   UNL     1      16.349   0.096   0.933  0.00  0.00    +0.011 A 
ATOM     13  C   UNL     1      16.995  -1.122   0.969  0.00  0.00    +0.002 A 
ATOM     14  C   UNL     1      16.269  -2.298   0.897  0.00  0.00    +0.021 A 
ATOM     15  C   UNL     1      14.889  -2.261   0.789  0.00  0.00    +0.060 A 
ATOM     16  C   UNL     1      14.228  -1.048   0.757  0.00  0.00    +0.068 A 
ATOM     17 CL   UNL     1      12.497  -1.003   0.629  0.00  0.00    -0.081 Cl
ATOM     18 CL   UNL     1      13.987  -3.742   0.699  0.00  0.00    -0.082 Cl
ENDBRANCH  10  11
ENDBRANCH   6   9
BRANCH   1  19
ATOM     19  S   UNL     1       7.441   1.087   0.271  0.00  0.00    -0.075 S 
BRANCH  19  20
ATOM     20  C   UNL     1       6.047   2.244   0.171  0.00  0.00    +0.173 C 
BRANCH  20  22
ATOM     21  N   UNL     1       3.584   2.125  -0.021  0.00  0.00    -0.285 N 
ATOM     22  C   UNL     1       4.758   1.470   0.066  0.00  0.00    +0.227 C 
ATOM     23  O   UNL     1       4.778   0.257   0.060  0.00  0.00    -0.275 OA
ATOM     24  H   UNL     1       3.572   3.092  -0.093  0.00  0.00    +0.155 HD
BRANCH  21  27
ATOM     25  C   UNL     1       1.085  -0.461   0.750  0.00  0.00    +0.003 A 
ATOM     26  C   UNL     1       2.274   0.243   0.738  0.00  0.00    +0.023 A 
ATOM     27  C   UNL     1       2.381   1.410  -0.007  0.00  0.00    +0.034 A 
ATOM     28  C   UNL     1       1.292   1.866  -0.738  0.00  0.00    +0.038 A 
ATOM     29  C   UNL     1       0.106   1.158  -0.722  0.00  0.00    +0.020 A 
ATOM     30  C   UNL     1       0.002  -0.004   0.022  0.00  0.00    +0.015 A 
ATOM     31 BR   UNL     1      -1.378   1.778  -1.717  0.00  0.00    -0.050 Br
ENDBRANCH  21  27
ENDBRANCH  20  22
ENDBRANCH  19  20
ENDBRANCH   1  19
TORSDOF 6
