REMARK  Name = ZINC63151241
REMARK  11 active torsions:
REMARK  status: ('A' for Active; 'I' for Inactive)
REMARK    1  A    between atoms: C_1  and  O_2
REMARK    2  A    between atoms: O_2  and  C_3
REMARK    3  A    between atoms: C_3  and  C_5
REMARK    4  A    between atoms: C_5  and  C_7
REMARK    5  A    between atoms: C_5  and  N_17
REMARK    6  A    between atoms: C_7  and  C_8
REMARK    7  A    between atoms: N_17  and  S_18
REMARK    8  A    between atoms: S_18  and  C_21
REMARK    9  A    between atoms: C_24  and  C_26
REMARK   10  A    between atoms: C_26  and  N_27
REMARK   11  A    between atoms: C_28  and  C_30
REMARK                            x       y       z     vdW  Elec       q    Type
REMARK                         _______ _______ _______ _____ _____    ______ ____
ROOT
ATOM      1  S   UNL     1       2.976  -2.836  -2.305  0.00  0.00    +0.065 S 
ATOM      2  O   UNL     1       3.345  -3.214  -3.624  0.00  0.00    -0.153 OA
ATOM      3  O   UNL     1       3.595  -1.756  -1.620  0.00  0.00    -0.153 OA
ENDROOT
BRANCH   1   4
ATOM      4  C   UNL     1       3.190  -4.263  -1.294  0.00  0.00    +0.143 A 
ATOM      5  C   UNL     1       3.193  -5.570  -1.651  0.00  0.00    +0.037 A 
ATOM      6  C   UNL     1       3.382  -6.531  -0.676  0.00  0.00    +0.015 A 
ATOM      7  C   UNL     1       3.558  -6.138   0.609  0.00  0.00    +0.009 A 
ATOM      8  S   UNL     1       3.466  -4.361   0.468  0.00  0.00    -0.072 S 
BRANCH   7   9
ATOM      9  C   UNL     1       3.780  -6.982   1.837  0.00  0.00    +0.147 C 
BRANCH   9  10
ATOM     10  N   UNL     1       5.217  -7.196   2.030  0.00  0.00    -0.307 N 
ATOM     11  C   UNL     1       5.655  -7.927   3.074  0.00  0.00    +0.244 C 
ATOM     12  O   UNL     1       4.859  -8.410   3.855  0.00  0.00    -0.270 OA
ATOM     13  H   UNL     1       5.852  -6.811   1.407  0.00  0.00    +0.149 HD
BRANCH  11  14
ATOM     14  C   UNL     1       7.105  -8.143   3.268  0.00  0.00    +0.037 A 
ATOM     15  C   UNL     1       8.022  -7.585   2.376  0.00  0.00    +0.013 A 
ATOM     16  C   UNL     1       9.374  -7.790   2.564  0.00  0.00    +0.001 A 
ATOM     17  C   UNL     1       9.820  -8.546   3.633  0.00  0.00    +0.000 A 
ATOM     18  C   UNL     1       8.916  -9.102   4.521  0.00  0.00    +0.001 A 
ATOM     19  C   UNL     1       7.562  -8.900   4.348  0.00  0.00    +0.013 A 
ENDBRANCH  11  14
ENDBRANCH   9  10
ENDBRANCH   7   9
ENDBRANCH   1   4
BRANCH   1  20
ATOM     20  N   UNL     1       1.354  -2.503  -2.345  0.00  0.00    -0.175 NA
ATOM     21  H   UNL     1       0.865  -2.572  -3.180  0.00  0.00    +0.149 HD
BRANCH  20  22
ATOM     22  C   UNL     1       0.657  -2.104  -1.120  0.00  0.00    +0.189 C 
BRANCH  22  23
ATOM     23  C   UNL     1       0.598  -0.600  -1.043  0.00  0.00    +0.326 C 
ATOM     24  O   UNL     1       1.088   0.070  -1.921  0.00  0.00    -0.249 OA
BRANCH  23  26
ATOM     25  C   UNL     1      -0.017   1.425   0.010  0.00  0.00    +0.280 C 
ATOM     26  O   UNL     1       0.002  -0.004   0.002  0.00  0.00    -0.467 OA
ENDBRANCH  23  26
ENDBRANCH  22  23
BRANCH  22  27
ATOM     27  C   UNL     1      -0.764  -2.670  -1.133  0.00  0.00    +0.065 C 
BRANCH  27  28
ATOM     28  C   UNL     1      -0.705  -4.175  -1.086  0.00  0.00    -0.039 C 
ATOM     29  C   UNL     1      -0.796  -4.958   0.013  0.00  0.00    -0.001 A 
ATOM     30  C   UNL     1      -0.970  -4.655   1.438  0.00  0.00    +0.010 A 
ATOM     31  C   UNL     1      -1.026  -5.676   2.324  0.00  0.00    +0.001 A 
ATOM     32  C   UNL     1      -0.923  -7.013   1.915  0.00  0.00    +0.002 A 
ATOM     33  C   UNL     1      -0.763  -7.370   0.623  0.00  0.00    +0.026 A 
ATOM     34  C   UNL     1      -0.691  -6.378  -0.393  0.00  0.00    +0.043 A 
ATOM     35  N   UNL     1      -0.540  -6.469  -1.692  0.00  0.00    -0.380 N 
ATOM     36  C   UNL     1      -0.539  -5.115  -2.259  0.00  0.00    +0.144 C 
ATOM     37  H   UNL     1      -0.449  -7.293  -2.195  0.00  0.00    +0.160 HD
ENDBRANCH  27  28
ENDBRANCH  22  27
ENDBRANCH  20  22
ENDBRANCH   1  20
TORSDOF 10
