REMARK  Name = ZINC13641720
REMARK  11 active torsions:
REMARK  status: ('A' for Active; 'I' for Inactive)
REMARK    1  A    between atoms: C_1  and  O_2
REMARK    2  A    between atoms: O_2  and  C_3
REMARK    3  A    between atoms: C_5  and  C_13
REMARK    4  A    between atoms: C_7  and  O_11
REMARK    5  A    between atoms: C_8  and  O_9
REMARK    6  A    between atoms: O_9  and  C_10
REMARK    7  A    between atoms: O_11  and  C_12
REMARK    8  A    between atoms: C_24  and  S_29
REMARK    9  A    between atoms: S_29  and  N_32
REMARK   10  A    between atoms: N_32  and  C_33
REMARK   11  A    between atoms: C_33  and  C_34
REMARK                            x       y       z     vdW  Elec       q    Type
REMARK                         _______ _______ _______ _____ _____    ______ ____
ROOT
ATOM      1  C   UNL     1      -0.945   1.440  -8.525  0.00  0.00    +0.105 C 
ATOM      2  C   UNL     1       0.162   2.066  -7.695  0.00  0.00    +0.029 C 
ATOM      3  C   UNL     1       1.142   3.012  -8.400  0.00  0.00    +0.033 C 
ATOM      4  C   UNL     1       1.546   3.946  -7.258  0.00  0.00    -0.030 C 
ATOM      5  C   UNL     1       0.583   3.987  -6.344  0.00  0.00    -0.023 C 
ATOM      6  C   UNL     1      -0.541   3.130  -6.800  0.00  0.00    +0.049 C 
ATOM      7  C   UNL     1      -1.415   2.413  -5.846  0.00  0.00    -0.018 A 
ATOM      8  C   UNL     1      -1.628   2.858  -4.559  0.00  0.00    +0.034 A 
ATOM      9  C   UNL     1      -2.478   2.168  -3.714  0.00  0.00    +0.106 A 
ATOM     10  C   UNL     1      -3.128   1.034  -4.164  0.00  0.00    +0.030 A 
ATOM     11  C   UNL     1      -2.920   0.579  -5.450  0.00  0.00    +0.025 A 
ATOM     12  C   UNL     1      -2.057   1.257  -6.303  0.00  0.00    +0.031 A 
ATOM     13  N   UNL     1      -1.833   0.756  -7.591  0.00  0.00    -0.336 N 
ATOM     14  H   UNL     1      -2.271  -0.065  -7.865  0.00  0.00    +0.147 HD
ENDROOT
BRANCH   1  17
ATOM     15  C   UNL     1      -2.020   3.906 -11.180  0.00  0.00    +0.165 A 
ATOM     16  C   UNL     1      -1.312   2.921 -10.508  0.00  0.00    +0.055 A 
ATOM     17  C   UNL     1      -1.718   2.510  -9.253  0.00  0.00    -0.020 A 
ATOM     18  C   UNL     1      -2.836   3.073  -8.665  0.00  0.00    +0.055 A 
ATOM     19  C   UNL     1      -3.547   4.061  -9.328  0.00  0.00    +0.165 A 
ATOM     20  C   UNL     1      -3.141   4.478 -10.590  0.00  0.00    +0.204 A 
BRANCH  15  22
ATOM     21  C   UNL     1      -0.460   3.678 -12.960  0.00  0.00    +0.277 C 
ATOM     22  O   UNL     1      -1.619   4.310 -12.415  0.00  0.00    -0.491 OA
ENDBRANCH  15  22
BRANCH  20  23
ATOM     23  O   UNL     1      -3.839   5.445 -11.247  0.00  0.00    -0.488 OA
ATOM     24  C   UNL     1      -4.907   5.013 -12.091  0.00  0.00    +0.277 C 
ENDBRANCH  20  23
BRANCH  19  25
ATOM     25  O   UNL     1      -4.643   4.618  -8.747  0.00  0.00    -0.491 OA
ATOM     26  C   UNL     1      -5.002   4.141  -7.449  0.00  0.00    +0.277 C 
ENDBRANCH  19  25
ENDBRANCH   1  17
BRANCH   9  27
ATOM     27  S   UNL     1      -2.738   2.740  -2.068  0.00  0.00    +0.058 S 
ATOM     28  O   UNL     1      -4.001   2.235  -1.658  0.00  0.00    -0.153 OA
ATOM     29  O   UNL     1      -2.436   4.128  -2.068  0.00  0.00    -0.153 OA
BRANCH  27  30
ATOM     30  N   UNL     1      -1.602   2.009  -1.110  0.00  0.00    -0.187 NA
ATOM     31  H   UNL     1      -1.878   1.384  -0.421  0.00  0.00    +0.148 HD
BRANCH  30  32
ATOM     32  C   UNL     1      -0.180   2.304  -1.304  0.00  0.00    +0.137 C 
BRANCH  32  33
ATOM     33  C   UNL     1       0.612   1.815  -0.091  0.00  0.00    +0.134 C 
ATOM     34  C   UNL     1       2.094   2.224  -0.233  0.00  0.00    +0.035 C 
ATOM     35  C   UNL     1       2.835   0.975   0.316  0.00  0.00    +0.031 C 
ATOM     36  C   UNL     1       1.886  -0.158  -0.149  0.00  0.00    +0.160 C 
ATOM     37  O   UNL     1       0.563   0.385  -0.022  0.00  0.00    -0.375 OA
ENDBRANCH  32  33
ENDBRANCH  30  32
ENDBRANCH  27  30
ENDBRANCH   9  27
TORSDOF 8
