REMARK  Name = ZINC23247956
REMARK  8 active torsions:
REMARK  status: ('A' for Active; 'I' for Inactive)
REMARK    1  A    between atoms: C_1  and  C_2
REMARK    2  A    between atoms: C_3  and  C_13
REMARK    3  A    between atoms: C_4  and  C_7
REMARK    4  A    between atoms: C_16  and  C_18
REMARK    5  A    between atoms: C_18  and  N_19
REMARK    6  A    between atoms: N_22  and  C_25
REMARK    7  A    between atoms: C_25  and  C_26
REMARK    8  A    between atoms: C_29  and  C_32
REMARK                            x       y       z     vdW  Elec       q    Type
REMARK                         _______ _______ _______ _____ _____    ______ ____
ROOT
ATOM      1  C   UNL     1      -2.504  -0.389   0.012  0.00  0.00    +0.254 A 
ATOM      2  N   UNL     1      -3.555  -1.176   0.019  0.00  0.00    -0.107 NA
ATOM      3  N   UNL     1      -4.623  -0.458   0.026  0.00  0.00    -0.114 NA
ATOM      4  C   UNL     1      -4.299   0.805   0.025  0.00  0.00    +0.202 A 
ATOM      5  O   UNL     1      -2.956   0.881   0.022  0.00  0.00    -0.422 OA
ENDROOT
BRANCH   1   8
ATOM      6  C   UNL     1      -0.018   1.503   0.010  0.00  0.00    +0.090 C 
ATOM      7  C   UNL     1       0.002  -0.004   0.002  0.00  0.00    +0.147 A 
ATOM      8  C   UNL     1      -1.090  -0.816   0.003  0.00  0.00    +0.108 A 
ATOM      9  C   UNL     1      -0.593  -2.199  -0.008  0.00  0.00    +0.126 A 
ATOM     10  N   UNL     1       0.715  -2.134  -0.014  0.00  0.00    -0.077 NA
ATOM     11  O   UNL     1       1.098  -0.773  -0.013  0.00  0.00    -0.359 OA
BRANCH   9  12
ATOM     12  C   UNL     1      -1.416  -3.433  -0.010  0.00  0.00    +0.004 A 
ATOM     13  C   UNL     1      -2.625  -3.469   0.683  0.00  0.00    +0.010 A 
ATOM     14  C   UNL     1      -3.387  -4.619   0.677  0.00  0.00    +0.001 A 
ATOM     15  C   UNL     1      -2.953  -5.736  -0.015  0.00  0.00    +0.000 A 
ATOM     16  C   UNL     1      -1.754  -5.706  -0.705  0.00  0.00    +0.001 A 
ATOM     17  C   UNL     1      -0.987  -4.559  -0.710  0.00  0.00    +0.010 A 
ENDBRANCH   9  12
ENDBRANCH   1   8
BRANCH   4  18
ATOM     18  C   UNL     1      -5.256   1.968   0.032  0.00  0.00    +0.021 C 
BRANCH  18  19
ATOM     19  N   UNL     1      -5.558   2.346   1.419  0.00  0.00    +0.387 N 
ATOM     20  C   UNL     1      -4.336   2.842   2.067  0.00  0.00    -0.063 C 
ATOM     21  C   UNL     1      -4.645   3.218   3.518  0.00  0.00    +0.066 C 
ATOM     22  N   UNL     1      -5.688   4.254   3.541  0.00  0.00    -0.302 NA
ATOM     23  C   UNL     1      -6.909   3.781   2.873  0.00  0.00    +0.066 C 
ATOM     24  C   UNL     1      -6.581   3.400   1.428  0.00  0.00    -0.063 C 
ATOM     25  H   UNL     1      -5.901   1.541   1.920  0.00  0.00    -0.081 HD
BRANCH  22  26
ATOM     26  C   UNL     1      -5.973   4.683   4.917  0.00  0.00    +0.119 C 
BRANCH  26  27
ATOM     27  C   UNL     1      -6.856   5.904   4.889  0.00  0.00    -0.033 A 
ATOM     28  C   UNL     1      -6.287   7.165   4.853  0.00  0.00    +0.006 A 
ATOM     29  C   UNL     1      -7.089   8.287   4.827  0.00  0.00    +0.019 A 
ATOM     30  C   UNL     1      -8.478   8.148   4.838  0.00  0.00    +0.052 A 
ATOM     31  C   UNL     1      -9.046   6.873   4.874  0.00  0.00    +0.019 A 
ATOM     32  C   UNL     1      -8.232   5.760   4.894  0.00  0.00    +0.006 A 
BRANCH  30  33
ATOM     33  C   UNL     1      -9.317   9.309   4.812  0.00  0.00    +0.099 C 
ATOM     34  N   UNL     1      -9.982  10.229   4.791  0.00  0.00    -0.191 NA
ENDBRANCH  30  33
ENDBRANCH  26  27
ENDBRANCH  22  26
ENDBRANCH  18  19
ENDBRANCH   4  18
TORSDOF 7
