REMARK  Name = ZINC39666514
REMARK  8 active torsions:
REMARK  status: ('A' for Active; 'I' for Inactive)
REMARK    1  A    between atoms: C_1  and  C_2
REMARK    2  A    between atoms: C_2  and  C_4
REMARK    3  A    between atoms: C_2  and  O_30
REMARK    4  A    between atoms: C_4  and  N_5
REMARK    5  A    between atoms: C_6  and  C_8
REMARK    6  A    between atoms: C_19  and  C_21
REMARK    7  A    between atoms: C_27  and  C_29
REMARK    8  A    between atoms: O_30  and  C_31
REMARK                            x       y       z     vdW  Elec       q    Type
REMARK                         _______ _______ _______ _____ _____    ______ ____
ROOT
ATOM      1  C   UNL     1       1.217  -3.721   3.022  0.00  0.00    +0.100 C 
ATOM      2  C   UNL     1      -0.256  -4.169   3.153  0.00  0.00    +0.121 C 
ATOM      3  N   UNL     1      -0.239  -5.207   4.210  0.00  0.00    -0.300 N 
ATOM      4  C   UNL     1       0.725  -4.696   5.213  0.00  0.00    +0.115 C 
ATOM      5  C   UNL     1       1.857  -4.068   4.376  0.00  0.00    -0.004 C 
ATOM      6  C   UNL     1       2.990  -5.071   4.184  0.00  0.00    -0.010 C 
ATOM      7  C   UNL     1       3.648  -5.357   5.537  0.00  0.00    -0.082 C 
ATOM      8  N   UNL     1       4.166  -4.107   6.105  0.00  0.00    +0.379 N 
ATOM      9  C   UNL     1       3.058  -3.182   6.373  0.00  0.00    -0.082 C 
ATOM     10  C   UNL     1       2.375  -2.804   5.056  0.00  0.00    -0.010 C 
ATOM     11  C   UNL     1      -0.941  -6.357   4.250  0.00  0.00    +0.219 C 
ATOM     12  O   UNL     1      -0.818  -7.111   5.192  0.00  0.00    -0.275 OA
ATOM     13  H   UNL     1       4.652  -4.306   6.966  0.00  0.00    -0.086 HD
ATOM     14  H   UNL     1       4.806  -3.682   5.451  0.00  0.00    -0.086 HD
ENDROOT
BRANCH  11  15
ATOM     15  C   UNL     1      -1.880  -6.706   3.124  0.00  0.00    +0.078 C 
ATOM     16  C   UNL     1      -2.952  -5.621   2.998  0.00  0.00    +0.032 C 
ATOM     17  C   UNL     1      -3.883  -5.962   1.831  0.00  0.00    +0.108 C 
ATOM     18  N   UNL     1      -4.417  -7.316   2.031  0.00  0.00    -0.302 N 
ATOM     19  C   UNL     1      -3.474  -8.421   2.252  0.00  0.00    +0.108 C 
ATOM     20  C   UNL     1      -2.547  -8.053   3.415  0.00  0.00    +0.032 C 
ATOM     21  C   UNL     1      -5.745  -7.540   2.012  0.00  0.00    +0.212 C 
ATOM     22  O   UNL     1      -6.513  -6.620   1.829  0.00  0.00    -0.276 OA
ATOM     23  C   UNL     1      -6.277  -8.935   2.219  0.00  0.00    +0.109 C 
ENDBRANCH  11  15
BRANCH   1  25
ATOM     24  N   UNL     1       2.330  -1.723   2.079  0.00  0.00    -0.312 N 
ATOM     25  C   UNL     1       1.293  -2.237   2.770  0.00  0.00    +0.218 C 
ATOM     26  O   UNL     1       0.422  -1.505   3.190  0.00  0.00    -0.275 OA
ATOM     27  H   UNL     1       3.027  -2.308   1.743  0.00  0.00    +0.149 HD
BRANCH  24  28
ATOM     28  C   UNL     1       2.404  -0.280   1.834  0.00  0.00    +0.148 C 
BRANCH  28  30
ATOM     29  C   UNL     1       3.746   1.543   0.778  0.00  0.00    +0.053 C 
ATOM     30  C   UNL     1       3.669   0.037   1.034  0.00  0.00    +0.187 C 
BRANCH  30  31
ATOM     31  O   UNL     1       4.818  -0.381   1.774  0.00  0.00    -0.486 OA
BRANCH  31  32
ATOM     32  C   UNL     1       5.939  -0.668   1.061  0.00  0.00    +0.139 A 
ATOM     33  C   UNL     1       5.968  -0.448  -0.308  0.00  0.00    +0.047 A 
ATOM     34  C   UNL     1       7.110  -0.740  -1.030  0.00  0.00    +0.004 A 
ATOM     35  C   UNL     1       8.222  -1.253  -0.389  0.00  0.00    +0.002 A 
ATOM     36  C   UNL     1       8.197  -1.475   0.976  0.00  0.00    +0.023 A 
ATOM     37  C   UNL     1       7.059  -1.178   1.704  0.00  0.00    +0.083 A 
ATOM     38 CL   UNL     1       7.030  -1.449   3.418  0.00  0.00    -0.080 Cl
ENDBRANCH  31  32
ENDBRANCH  30  31
ENDBRANCH  28  30
ENDBRANCH  24  28
ENDBRANCH   1  25
TORSDOF 6
