REMARK  Name = ZINC13640609
REMARK  10 active torsions:
REMARK  status: ('A' for Active; 'I' for Inactive)
REMARK    1  A    between atoms: C_1  and  O_2
REMARK    2  A    between atoms: O_2  and  C_3
REMARK    3  A    between atoms: C_5  and  C_13
REMARK    4  A    between atoms: C_7  and  O_11
REMARK    5  A    between atoms: C_8  and  O_9
REMARK    6  A    between atoms: O_9  and  C_10
REMARK    7  A    between atoms: O_11  and  C_12
REMARK    8  A    between atoms: C_24  and  S_29
REMARK    9  A    between atoms: S_29  and  N_32
REMARK   10  A    between atoms: N_32  and  C_33
REMARK                            x       y       z     vdW  Elec       q    Type
REMARK                         _______ _______ _______ _____ _____    ______ ____
ROOT
ATOM      1  C   UNL     1      -0.434  -4.858  -1.213  0.00  0.00    +0.105 C 
ATOM      2  C   UNL     1       0.240  -4.277  -2.442  0.00  0.00    +0.029 C 
ATOM      3  C   UNL     1       1.780  -4.330  -2.307  0.00  0.00    +0.033 C 
ATOM      4  C   UNL     1       2.235  -3.163  -3.165  0.00  0.00    -0.030 C 
ATOM      5  C   UNL     1       1.265  -2.295  -3.308  0.00  0.00    -0.023 C 
ATOM      6  C   UNL     1       0.022  -2.758  -2.561  0.00  0.00    +0.049 C 
ATOM      7  C   UNL     1       0.019  -2.073  -1.221  0.00  0.00    -0.018 A 
ATOM      8  C   UNL     1      -0.006  -0.685  -1.198  0.00  0.00    +0.034 A 
ATOM      9  C   UNL     1       0.002  -0.004   0.002  0.00  0.00    +0.106 A 
ATOM     10  C   UNL     1       0.023  -0.699   1.198  0.00  0.00    +0.030 A 
ATOM     11  C   UNL     1       0.040  -2.079   1.187  0.00  0.00    +0.025 A 
ATOM     12  C   UNL     1       0.037  -2.764  -0.023  0.00  0.00    +0.031 A 
ATOM     13  N   UNL     1       0.048  -4.164  -0.014  0.00  0.00    -0.336 N 
ATOM     14  H   UNL     1       0.365  -4.658   0.758  0.00  0.00    +0.147 HD
ENDROOT
BRANCH   1  17
ATOM     15  C   UNL     1      -4.089  -5.583  -1.845  0.00  0.00    +0.165 A 
ATOM     16  C   UNL     1      -2.716  -5.741  -1.738  0.00  0.00    +0.055 A 
ATOM     17  C   UNL     1      -1.927  -4.683  -1.329  0.00  0.00    -0.020 A 
ATOM     18  C   UNL     1      -2.503  -3.465  -1.020  0.00  0.00    +0.055 A 
ATOM     19  C   UNL     1      -3.875  -3.297  -1.131  0.00  0.00    +0.165 A 
ATOM     20  C   UNL     1      -4.672  -4.359  -1.541  0.00  0.00    +0.204 A 
BRANCH  15  22
ATOM     21  C   UNL     1      -4.198  -7.855  -2.543  0.00  0.00    +0.277 C 
ATOM     22  O   UNL     1      -4.865  -6.626  -2.247  0.00  0.00    -0.491 OA
ENDBRANCH  15  22
BRANCH  20  23
ATOM     23  O   UNL     1      -6.020  -4.200  -1.646  0.00  0.00    -0.488 OA
ATOM     24  C   UNL     1      -6.799  -4.491  -0.484  0.00  0.00    +0.277 C 
ENDBRANCH  20  23
BRANCH  19  25
ATOM     25  O   UNL     1      -4.441  -2.097  -0.832  0.00  0.00    -0.491 OA
ATOM     26  C   UNL     1      -3.561  -1.050  -0.417  0.00  0.00    +0.277 C 
ENDBRANCH  19  25
ENDBRANCH   1  17
BRANCH   9  27
ATOM     27  S   UNL     1      -0.022   1.758   0.012  0.00  0.00    +0.059 S 
ATOM     28  O   UNL     1      -0.590   2.163  -1.226  0.00  0.00    -0.153 OA
ATOM     29  O   UNL     1      -0.566   2.150   1.264  0.00  0.00    -0.153 OA
BRANCH  27  30
ATOM     30  N   UNL     1       1.553   2.269  -0.001  0.00  0.00    -0.187 NA
ATOM     31  H   UNL     1       1.912   2.752   0.760  0.00  0.00    +0.148 HD
BRANCH  30  32
ATOM     32  C   UNL     1       2.405   1.991  -1.160  0.00  0.00    +0.077 C 
ATOM     33  C   UNL     1       3.204   0.711  -0.911  0.00  0.00    +0.020 C 
ATOM     34  C   UNL     1       4.093   0.421  -2.122  0.00  0.00    +0.002 C 
ATOM     35  C   UNL     1       5.056   1.590  -2.339  0.00  0.00    +0.000 C 
ATOM     36  C   UNL     1       4.256   2.870  -2.589  0.00  0.00    +0.002 C 
ATOM     37  C   UNL     1       3.368   3.160  -1.378  0.00  0.00    +0.020 C 
ENDBRANCH  30  32
ENDBRANCH  27  30
ENDBRANCH   9  27
TORSDOF 7
