REMARK  Name = ZINC35426994
REMARK  10 active torsions:
REMARK  status: ('A' for Active; 'I' for Inactive)
REMARK    1  A    between atoms: C_1  and  C_2
REMARK    2  A    between atoms: C_2  and  O_3
REMARK    3  A    between atoms: O_3  and  C_4
REMARK    4  A    between atoms: C_4  and  C_5
REMARK    5  A    between atoms: C_5  and  C_6
REMARK    6  A    between atoms: C_6  and  N_7
REMARK    7  A    between atoms: C_22  and  C_24
REMARK    8  A    between atoms: C_27  and  O_30
REMARK    9  A    between atoms: O_30  and  C_31
REMARK   10  A    between atoms: N_33  and  C_36
REMARK                            x       y       z     vdW  Elec       q    Type
REMARK                         _______ _______ _______ _____ _____    ______ ____
ROOT
ATOM      1  N   UNL     1      -4.001  -4.579   0.004  0.00  0.00    -0.299 N 
ATOM      2  C   UNL     1      -4.514  -5.825   0.030  0.00  0.00    +0.303 C 
ATOM      3  O   UNL     1      -3.771  -6.786   0.083  0.00  0.00    -0.253 OA
ATOM      4  N   UNL     1      -5.849  -6.005  -0.003  0.00  0.00    -0.269 N 
ATOM      5  C   UNL     1      -6.781  -4.866  -0.073  0.00  0.00    +0.148 C 
ATOM      6  C   UNL     1      -7.956  -5.126  -0.989  0.00  0.00    +0.004 A 
ATOM      7  C   UNL     1      -8.134  -4.469  -2.220  0.00  0.00    -0.034 A 
ATOM      8  C   UNL     1      -9.245  -4.771  -2.947  0.00  0.00    -0.021 A 
ATOM      9  S   UNL     1     -10.079  -5.984  -1.960  0.00  0.00    -0.077 S 
ATOM     10  C   UNL     1      -8.907  -6.036  -0.638  0.00  0.00    +0.090 A 
ATOM     11  N   UNL     1      -8.862  -6.804   0.518  0.00  0.00    -0.312 N 
ATOM     12  C   UNL     1      -9.808  -7.091   1.441  0.00  0.00    +0.092 A 
ATOM     13  C   UNL     1      -9.231  -7.830   2.417  0.00  0.00    +0.020 A 
ATOM     14  C   UNL     1      -7.878  -8.018   2.063  0.00  0.00    +0.025 A 
ATOM     15  C   UNL     1      -7.680  -7.404   0.887  0.00  0.00    +0.049 A 
ATOM     16  C   UNL     1      -6.450  -7.360   0.024  0.00  0.00    +0.155 C 
ATOM     17  C   UNL     1      -9.638  -4.192  -4.266  0.00  0.00    -0.036 C 
ATOM     18  N   UNL     1      -8.832  -2.979  -4.498  0.00  0.00    +0.381 N 
ATOM     19  C   UNL     1      -7.414  -3.282  -4.266  0.00  0.00    -0.074 C 
ATOM     20  C   UNL     1      -7.143  -3.445  -2.768  0.00  0.00    +0.018 C 
ATOM     21  C   UNL     1      -9.016  -2.526  -5.884  0.00  0.00    -0.096 C 
ATOM     22  H   UNL     1      -4.593  -3.812  -0.038  0.00  0.00    +0.150 HD
ATOM     23  H   UNL     1      -9.128  -2.251  -3.865  0.00  0.00    -0.082 HD
ENDROOT
BRANCH  16  24
ATOM     24  C   UNL     1      -6.817  -7.763  -1.381  0.00  0.00    -0.021 A 
ATOM     25  C   UNL     1      -6.200  -7.152  -2.457  0.00  0.00    +0.009 A 
ATOM     26  C   UNL     1      -6.535  -7.519  -3.746  0.00  0.00    +0.046 A 
ATOM     27  C   UNL     1      -7.491  -8.501  -3.961  0.00  0.00    +0.120 A 
ATOM     28  C   UNL     1      -8.108  -9.112  -2.880  0.00  0.00    +0.046 A 
ATOM     29  C   UNL     1      -7.766  -8.746  -1.592  0.00  0.00    +0.009 A 
BRANCH  27  30
ATOM     30  O   UNL     1      -7.822  -8.863  -5.228  0.00  0.00    -0.495 OA
ATOM     31  C   UNL     1      -8.815  -9.881  -5.373  0.00  0.00    +0.277 C 
ENDBRANCH  27  30
ENDBRANCH  16  24
BRANCH   1  32
ATOM     32  C   UNL     1      -2.550  -4.382   0.039  0.00  0.00    +0.108 C 
BRANCH  32  33
ATOM     33  C   UNL     1      -2.237  -2.885  -0.001  0.00  0.00    +0.047 C 
BRANCH  33  34
ATOM     34  C   UNL     1      -0.721  -2.680   0.036  0.00  0.00    +0.161 C 
BRANCH  34  35
ATOM     35  O   UNL     1      -0.428  -1.282  -0.001  0.00  0.00    -0.380 OA
BRANCH  35  37
ATOM     36  C   UNL     1       1.162   0.537  -0.015  0.00  0.00    +0.034 C 
ATOM     37  C   UNL     1       0.968  -0.980   0.029  0.00  0.00    +0.156 C 
ENDBRANCH  35  37
ENDBRANCH  34  35
ENDBRANCH  33  34
ENDBRANCH  32  33
ENDBRANCH   1  32
TORSDOF 7
