REMARK  Name = ZINC13053536
REMARK  10 active torsions:
REMARK  status: ('A' for Active; 'I' for Inactive)
REMARK    1  A    between atoms: C_1  and  C_2
REMARK    2  A    between atoms: C_2  and  C_4
REMARK    3  A    between atoms: C_2  and  S_16
REMARK    4  A    between atoms: N_6  and  C_7
REMARK    5  A    between atoms: N_6  and  C_8
REMARK    6  A    between atoms: C_8  and  C_14
REMARK    7  A    between atoms: S_16  and  C_17
REMARK    8  A    between atoms: C_21  and  C_35
REMARK    9  A    between atoms: N_27  and  C_28
REMARK   10  A    between atoms: C_28  and  C_29
REMARK                            x       y       z     vdW  Elec       q    Type
REMARK                         _______ _______ _______ _____ _____    ______ ____
ROOT
ATOM      1  C   UNL     1      -6.037   1.894   0.041  0.00  0.00    +0.173 A 
ATOM      2  N   UNL     1      -4.896   1.250   0.032  0.00  0.00    -0.223 NA
ATOM      3  C   UNL     1      -3.712   1.906   0.030  0.00  0.00    +0.080 A 
ATOM      4  C   UNL     1      -2.496   1.217   0.021  0.00  0.00    +0.043 A 
ATOM      5  C   UNL     1      -1.306   1.933   0.019  0.00  0.00    +0.065 A 
ATOM      6  C   UNL     1      -1.319   3.333   0.032  0.00  0.00    +0.016 A 
ATOM      7  C   UNL     1      -2.500   4.017   0.036  0.00  0.00    +0.016 A 
ATOM      8  C   UNL     1      -3.707   3.319   0.038  0.00  0.00    +0.065 A 
ATOM      9  C   UNL     1      -5.003   4.016   0.047  0.00  0.00    +0.262 A 
ATOM     10  O   UNL     1      -5.066   5.232   0.054  0.00  0.00    -0.267 OA
ATOM     11  N   UNL     1      -6.123   3.257   0.048  0.00  0.00    -0.285 N 
ENDROOT
BRANCH   5  12
ATOM     12  C   UNL     1      -0.014   1.210   0.009  0.00  0.00    +0.387 C 
ATOM     13  O   UNL     1       0.002  -0.004   0.002  0.00  0.00    -0.241 OA
ATOM     14  O   UNL     1       1.143   1.899   0.001  0.00  0.00    -0.241 OA
ENDBRANCH   5  12
BRANCH   1  15
ATOM     15  S   UNL     1      -7.530   0.958   0.043  0.00  0.00    -0.075 S 
BRANCH  15  17
ATOM     16  C   UNL     1      -6.099  -0.956  -1.281  0.00  0.00    +0.029 C 
ATOM     17  C   UNL     1      -6.850  -0.719   0.031  0.00  0.00    +0.137 C 
BRANCH  17  18
ATOM     18  C   UNL     1      -7.972  -1.717   0.155  0.00  0.00    +0.230 C 
ATOM     19  O   UNL     1      -9.092  -1.418  -0.203  0.00  0.00    -0.274 OA
ATOM     20  N   UNL     1      -7.732  -2.942   0.663  0.00  0.00    -0.285 N 
ATOM     21  C   UNL     1      -6.379  -3.303   1.096  0.00  0.00    +0.133 C 
BRANCH  20  22
ATOM     22  C   UNL     1      -8.823  -3.912   0.784  0.00  0.00    +0.124 C 
ATOM     23  C   UNL     1      -9.914  -3.342   1.692  0.00  0.00    +0.041 C 
ATOM     24  C   UNL     1     -11.053  -4.356   1.818  0.00  0.00    +0.003 C 
ATOM     25  C   UNL     1     -10.516  -5.655   2.420  0.00  0.00    +0.000 C 
ATOM     26  C   UNL     1      -9.424  -6.225   1.512  0.00  0.00    +0.003 C 
ATOM     27  C   UNL     1      -8.285  -5.212   1.386  0.00  0.00    +0.041 C 
BRANCH  22  28
ATOM     28  C   UNL     1      -9.386  -4.185  -0.548  0.00  0.00    +0.089 C 
ATOM     29  N   UNL     1      -9.821  -4.395  -1.577  0.00  0.00    -0.194 NA
ENDBRANCH  22  28
ENDBRANCH  20  22
ENDBRANCH  17  18
ENDBRANCH  15  17
ENDBRANCH   1  15
BRANCH  11  30
ATOM     30  C   UNL     1      -7.438   3.902   0.057  0.00  0.00    +0.159 C 
BRANCH  30  31
ATOM     31  C   UNL     1      -7.903   4.134  -1.382  0.00  0.00    +0.138 C 
ATOM     32  C   UNL     1      -9.234   4.917  -1.383  0.00  0.00    +0.035 C 
ATOM     33  C   UNL     1     -10.017   4.233  -2.538  0.00  0.00    +0.031 C 
ATOM     34  C   UNL     1      -9.521   2.771  -2.404  0.00  0.00    +0.160 C 
ATOM     35  O   UNL     1      -8.139   2.877  -2.026  0.00  0.00    -0.375 OA
ENDBRANCH  30  31
ENDBRANCH  11  30
TORSDOF 8
