REMARK  Name = ZINC39674674
REMARK  7 active torsions:
REMARK  status: ('A' for Active; 'I' for Inactive)
REMARK    1  A    between atoms: C_1  and  C_2
REMARK    2  A    between atoms: C_4  and  C_14
REMARK    3  A    between atoms: C_7  and  C_12
REMARK    4  A    between atoms: C_14  and  C_15
REMARK    5  A    between atoms: C_15  and  N_16
REMARK    6  A    between atoms: C_17  and  C_19
REMARK    7  A    between atoms: C_30  and  C_32
REMARK                            x       y       z     vdW  Elec       q    Type
REMARK                         _______ _______ _______ _____ _____    ______ ____
ROOT
ATOM      1  C   UNL     1      -7.423  -0.892  -2.959  0.00  0.00    +0.100 C 
ATOM      2  C   UNL     1      -6.721  -1.568  -4.159  0.00  0.00    +0.121 C 
ATOM      3  N   UNL     1      -7.255  -2.950  -4.174  0.00  0.00    -0.296 N 
ATOM      4  C   UNL     1      -8.690  -2.796  -3.835  0.00  0.00    +0.115 C 
ATOM      5  C   UNL     1      -8.716  -1.699  -2.752  0.00  0.00    -0.004 C 
ATOM      6  C   UNL     1      -9.934  -0.801  -2.940  0.00  0.00    -0.010 C 
ATOM      7  C   UNL     1     -11.206  -1.611  -2.672  0.00  0.00    -0.082 C 
ATOM      8  N   UNL     1     -11.171  -2.142  -1.304  0.00  0.00    +0.379 N 
ATOM      9  C   UNL     1     -10.049  -3.078  -1.159  0.00  0.00    -0.082 C 
ATOM     10  C   UNL     1      -8.729  -2.330  -1.363  0.00  0.00    -0.010 C 
ATOM     11  C   UNL     1      -6.586  -4.091  -4.438  0.00  0.00    +0.247 C 
ATOM     12  O   UNL     1      -5.379  -4.069  -4.577  0.00  0.00    -0.270 OA
ATOM     13  H   UNL     1     -11.058  -1.381  -0.651  0.00  0.00    -0.086 HD
ATOM     14  H   UNL     1     -12.036  -2.624  -1.109  0.00  0.00    -0.086 HD
ENDROOT
BRANCH  11  15
ATOM     15  C   UNL     1      -7.322  -5.368  -4.558  0.00  0.00    +0.042 A 
ATOM     16  C   UNL     1      -8.689  -5.365  -4.835  0.00  0.00    +0.051 A 
ATOM     17  C   UNL     1      -9.372  -6.562  -4.946  0.00  0.00    +0.127 A 
ATOM     18  C   UNL     1      -8.700  -7.762  -4.783  0.00  0.00    +0.076 A 
ATOM     19  C   UNL     1      -7.343  -7.771  -4.508  0.00  0.00    +0.127 A 
ATOM     20  C   UNL     1      -6.649  -6.580  -4.401  0.00  0.00    +0.051 A 
ATOM     21  F   UNL     1      -6.694  -8.946  -4.351  0.00  0.00    -0.205 F 
ATOM     22  F   UNL     1     -10.696  -6.560  -5.213  0.00  0.00    -0.205 F 
ENDBRANCH  11  15
BRANCH   1  24
ATOM     23  N   UNL     1      -6.713  -0.079  -0.734  0.00  0.00    -0.315 N 
ATOM     24  C   UNL     1      -6.553  -0.971  -1.731  0.00  0.00    +0.218 C 
ATOM     25  O   UNL     1      -5.710  -1.838  -1.639  0.00  0.00    -0.275 OA
ATOM     26  H   UNL     1      -7.388   0.615  -0.807  0.00  0.00    +0.149 HD
BRANCH  23  27
ATOM     27  C   UNL     1      -5.868  -0.155   0.461  0.00  0.00    +0.108 C 
BRANCH  27  28
ATOM     28  C   UNL     1      -6.252   0.965   1.430  0.00  0.00    +0.052 C 
BRANCH  28  31
ATOM     29  C   UNL     1      -6.798   1.722   4.533  0.00  0.00    +0.035 C 
ATOM     30  C   UNL     1      -5.425   1.799   3.862  0.00  0.00    +0.103 C 
ATOM     31  C   UNL     1      -5.382   0.886   2.658  0.00  0.00    -0.037 C 
ATOM     32  C   UNL     1      -4.402  -0.019   2.907  0.00  0.00    +0.000 A 
ATOM     33  C   UNL     1      -3.906  -1.112   2.149  0.00  0.00    +0.028 A 
ATOM     34  C   UNL     1      -2.884  -1.888   2.643  0.00  0.00    +0.052 A 
ATOM     35  C   UNL     1      -2.286  -1.613   3.945  0.00  0.00    +0.021 A 
ATOM     36  C   UNL     1      -2.716  -0.588   4.710  0.00  0.00    +0.027 A 
ATOM     37  C   UNL     1      -3.804   0.271   4.230  0.00  0.00    +0.043 A 
ATOM     38  N   UNL     1      -4.388   1.311   4.777  0.00  0.00    -0.378 N 
ATOM     39  H   UNL     1      -4.171   1.693   5.642  0.00  0.00    +0.160 HD
BRANCH  34  40
ATOM     40  C   UNL     1      -2.397  -2.986   1.865  0.00  0.00    +0.099 C 
ATOM     41  N   UNL     1      -2.010  -3.858   1.247  0.00  0.00    -0.191 NA
ENDBRANCH  34  40
ENDBRANCH  28  31
ENDBRANCH  27  28
ENDBRANCH  23  27
ENDBRANCH   1  24
TORSDOF 6
