REMARK  Name = ZINC33514985
REMARK  9 active torsions:
REMARK  status: ('A' for Active; 'I' for Inactive)
REMARK    1  A    between atoms: C_1  and  C_2
REMARK    2  A    between atoms: C_2  and  O_3
REMARK    3  A    between atoms: O_3  and  C_4
REMARK    4  A    between atoms: C_4  and  C_6
REMARK    5  A    between atoms: C_7  and  C_31
REMARK    6  A    between atoms: C_10  and  N_11
REMARK    7  A    between atoms: C_12  and  C_14
REMARK    8  A    between atoms: C_18  and  N_20
REMARK    9  A    between atoms: C_34  and  C_37
REMARK                            x       y       z     vdW  Elec       q    Type
REMARK                         _______ _______ _______ _____ _____    ______ ____
ROOT
ATOM      1  N   UNL     1      -7.210   2.320   0.044  0.00  0.00    -0.275 N 
ATOM      2  C   UNL     1      -5.952   2.802   0.042  0.00  0.00    +0.249 C 
ATOM      3  O   UNL     1      -5.760   4.002   0.048  0.00  0.00    -0.270 OA
ATOM      4  H   UNL     1      -7.384   1.234   0.038  0.00  0.00    +0.156 HD
ENDROOT
BRANCH   2   5
ATOM      5  C   UNL     1      -4.804   1.871   0.032  0.00  0.00    +0.039 A 
ATOM      6  C   UNL     1      -5.021   0.491   0.025  0.00  0.00    +0.013 A 
ATOM      7  C   UNL     1      -3.948  -0.376   0.015  0.00  0.00    +0.003 A 
ATOM      8  C   UNL     1      -2.656   0.117   0.013  0.00  0.00    +0.024 A 
ATOM      9  C   UNL     1      -2.429   1.487   0.020  0.00  0.00    +0.045 A 
ATOM     10  C   UNL     1      -3.500   2.367   0.035  0.00  0.00    +0.037 A 
BRANCH   9  11
ATOM     11  N   UNL     1      -1.117   1.980   0.018  0.00  0.00    -0.202 N 
ATOM     12  C   UNL     1      -0.014   1.210   0.009  0.00  0.00    +0.258 C 
ATOM     13  O   UNL     1       0.002  -0.004   0.002  0.00  0.00    -0.269 OA
ATOM     14  C   UNL     1       1.174   2.089   0.002  0.00  0.00    +0.050 A 
ATOM     15  C   UNL     1       2.542   1.867  -0.013  0.00  0.00    +0.014 A 
ATOM     16  C   UNL     1       3.413   2.946  -0.016  0.00  0.00    +0.001 A 
ATOM     17  C   UNL     1       2.926   4.240  -0.005  0.00  0.00    +0.001 A 
ATOM     18  C   UNL     1       1.560   4.477   0.011  0.00  0.00    +0.014 A 
ATOM     19  C   UNL     1       0.678   3.409   0.014  0.00  0.00    +0.050 A 
ATOM     20  C   UNL     1      -0.795   3.287   0.027  0.00  0.00    +0.258 C 
ATOM     21  O   UNL     1      -1.583   4.211   0.040  0.00  0.00    -0.269 OA
ENDBRANCH   9  11
ENDBRANCH   2   5
BRANCH   1  26
ATOM     22  C   UNL     1      -9.641   2.888   0.051  0.00  0.00    +0.095 A 
ATOM     23  C   UNL     1     -10.561   4.009   0.066  0.00  0.00    +0.005 A 
ATOM     24  C   UNL     1     -10.012   5.250   0.070  0.00  0.00    +0.056 A 
ATOM     25  S   UNL     1      -8.261   4.923   0.062  0.00  0.00    -0.080 S 
ATOM     26  C   UNL     1      -8.286   3.193   0.053  0.00  0.00    +0.087 A 
BRANCH  23  27
ATOM     27  C   UNL     1     -12.030   3.809   0.069  0.00  0.00    -0.017 A 
ATOM     28  C   UNL     1     -12.623   2.956  -0.861  0.00  0.00    +0.009 A 
ATOM     29  C   UNL     1     -13.990   2.770  -0.849  0.00  0.00    +0.004 A 
ATOM     30  C   UNL     1     -14.774   3.436   0.076  0.00  0.00    -0.050 A 
ATOM     31  C   UNL     1     -14.192   4.287   0.998  0.00  0.00    +0.004 A 
ATOM     32  C   UNL     1     -12.825   4.477   1.000  0.00  0.00    +0.009 A 
ATOM     33  C   UNL     1     -16.267   3.233   0.079  0.00  0.00    +0.044 C 
ENDBRANCH  23  27
BRANCH  22  34
ATOM     34  C   UNL     1     -10.116   1.505   0.038  0.00  0.00    +0.342 C 
ATOM     35  O   UNL     1     -10.313   0.919   1.086  0.00  0.00    -0.245 OA
BRANCH  34  36
ATOM     36  O   UNL     1     -10.335   0.878  -1.136  0.00  0.00    -0.461 OA
BRANCH  36  38
ATOM     37  C   UNL     1     -10.997  -1.034  -2.492  0.00  0.00    +0.048 C 
ATOM     38  C   UNL     1     -10.807  -0.494  -1.073  0.00  0.00    +0.229 C 
ENDBRANCH  36  38
ENDBRANCH  34  36
ENDBRANCH  22  34
ENDBRANCH   1  26
TORSDOF 7
