REMARK  Name = ZINC17223333
REMARK  8 active torsions:
REMARK  status: ('A' for Active; 'I' for Inactive)
REMARK    1  A    between atoms: C_1  and  C_2
REMARK    2  A    between atoms: C_2  and  O_3
REMARK    3  A    between atoms: O_3  and  C_4
REMARK    4  A    between atoms: C_4  and  C_6
REMARK    5  A    between atoms: N_8  and  C_30
REMARK    6  A    between atoms: C_12  and  N_13
REMARK    7  A    between atoms: C_17  and  C_18
REMARK    8  A    between atoms: C_21  and  N_24
REMARK                            x       y       z     vdW  Elec       q    Type
REMARK                         _______ _______ _______ _____ _____    ______ ____
ROOT
ATOM      1  C   UNL     1       4.367  -0.971   1.099  0.00  0.00    +0.179 C 
ATOM      2  N   UNL     1       5.193  -1.702   1.804  0.00  0.00    -0.165 NA
ATOM      3  N   UNL     1       4.854  -3.053   1.737  0.00  0.00    -0.156 N 
ATOM      4  C   UNL     1       3.763  -3.226   0.965  0.00  0.00    +0.274 C 
ATOM      5  O   UNL     1       3.209  -4.280   0.708  0.00  0.00    -0.268 OA
ATOM      6  C   UNL     1       3.375  -1.889   0.494  0.00  0.00    +0.087 C 
ATOM      7  C   UNL     1       2.319  -1.561  -0.325  0.00  0.00    +0.100 C 
ENDROOT
BRANCH   7   8
ATOM      8  N   UNL     1       2.254  -0.319  -0.895  0.00  0.00    -0.230 N 
ATOM      9  C   UNL     1       1.105   0.336  -0.888  0.00  0.00    +0.262 C 
ATOM     10  O   UNL     1       0.102  -0.137  -0.387  0.00  0.00    -0.269 OA
ATOM     11  C   UNL     1       1.101   1.672  -1.519  0.00  0.00    +0.077 C 
ATOM     12  C   UNL     1       0.084   2.558  -1.663  0.00  0.00    +0.028 C 
ATOM     13  S   UNL     1       2.805   1.797  -2.047  0.00  0.00    -0.061 S 
ATOM     14  C   UNL     1       3.363   0.210  -1.450  0.00  0.00    +0.125 C 
ATOM     15  S   UNL     1       4.928  -0.476  -1.558  0.00  0.00    -0.027 S 
BRANCH  12  16
ATOM     16  C   UNL     1      -1.287   2.166  -1.307  0.00  0.00    -0.024 A 
ATOM     17  C   UNL     1      -1.743   0.872  -1.583  0.00  0.00    +0.010 A 
ATOM     18  C   UNL     1      -3.029   0.510  -1.240  0.00  0.00    +0.033 A 
ATOM     19  C   UNL     1      -3.872   1.427  -0.636  0.00  0.00    +0.126 A 
ATOM     20  C   UNL     1      -3.431   2.711  -0.366  0.00  0.00    +0.033 A 
ATOM     21  C   UNL     1      -2.146   3.087  -0.696  0.00  0.00    +0.010 A 
BRANCH  19  22
ATOM     22  N   UNL     1      -5.253   1.033  -0.278  0.00  0.00    +0.056 N 
ATOM     23  O   UNL     1      -5.997   1.837   0.253  0.00  0.00    -0.126 OA
ATOM     24  O   UNL     1      -5.644  -0.096  -0.515  0.00  0.00    -0.126 OA
ENDBRANCH  19  22
ENDBRANCH  12  16
ENDBRANCH   7   8
BRANCH   3  25
ATOM     25  C   UNL     1       5.547  -4.083   2.383  0.00  0.00    +0.060 A 
ATOM     26  C   UNL     1       5.119  -5.398   2.253  0.00  0.00    +0.025 A 
ATOM     27  C   UNL     1       5.807  -6.413   2.889  0.00  0.00    +0.002 A 
ATOM     28  C   UNL     1       6.915  -6.120   3.663  0.00  0.00    +0.000 A 
ATOM     29  C   UNL     1       7.341  -4.811   3.799  0.00  0.00    +0.002 A 
ATOM     30  C   UNL     1       6.660  -3.793   3.162  0.00  0.00    +0.025 A 
ENDBRANCH   3  25
BRANCH   1  31
ATOM     31  C   UNL     1       4.415   0.493   0.937  0.00  0.00    +0.360 C 
ATOM     32  O   UNL     1       3.398   1.111   0.691  0.00  0.00    -0.243 OA
BRANCH  31  33
ATOM     33  O   UNL     1       5.588   1.146   1.061  0.00  0.00    -0.460 OA
BRANCH  33  35
ATOM     34  C   UNL     1       6.959   3.156   1.158  0.00  0.00    +0.048 C 
ATOM     35  C   UNL     1       5.544   2.596   0.999  0.00  0.00    +0.229 C 
ENDBRANCH  33  35
ENDBRANCH  31  33
ENDBRANCH   1  31
TORSDOF 7
