REMARK  Name = ZINC19898147
REMARK  8 active torsions:
REMARK  status: ('A' for Active; 'I' for Inactive)
REMARK    1  A    between atoms: C_1  and  C_2
REMARK    2  A    between atoms: C_2  and  C_5
REMARK    3  A    between atoms: N_3  and  O_4
REMARK    4  A    between atoms: C_10  and  C_33
REMARK    5  A    between atoms: C_22  and  C_32
REMARK    6  A    between atoms: C_25  and  O_28
REMARK    7  A    between atoms: O_28  and  C_29
REMARK    8  A    between atoms: C_29  and  C_31
REMARK                            x       y       z     vdW  Elec       q    Type
REMARK                         _______ _______ _______ _____ _____    ______ ____
ROOT
ATOM      1  C   UNL     1      -1.472   1.933   0.793  0.00  0.00    -0.021 C 
ATOM      2  C   UNL     1      -0.307   1.287   0.958  0.00  0.00    -0.021 C 
ATOM      3  C   UNL     1       0.849   2.287   0.879  0.00  0.00    +0.032 C 
ATOM      4  C   UNL     1       0.144   3.583   1.316  0.00  0.00    +0.007 C 
ATOM      5  C   UNL     1      -1.175   3.390   0.531  0.00  0.00    +0.004 C 
ATOM      6  C   UNL     1      -2.202   4.384   1.008  0.00  0.00    +0.086 C 
ATOM      7  C   UNL     1      -1.523   5.591   1.619  0.00  0.00    +0.138 C 
ATOM      8  O   UNL     1      -2.115   6.219   2.491  0.00  0.00    -0.297 OA
ATOM      9  C   UNL     1      -0.142   6.044   1.205  0.00  0.00    +0.065 C 
ATOM     10  C   UNL     1       0.798   4.889   0.999  0.00  0.00    +0.004 C 
ATOM     11  C   UNL     1       1.779   4.903  -0.128  0.00  0.00    +0.005 C 
ATOM     12  C   UNL     1       1.482   5.899  -1.239  0.00  0.00    +0.004 C 
ATOM     13  C   UNL     1       1.105   7.240  -0.622  0.00  0.00    -0.001 C 
ATOM     14  C   UNL     1      -0.205   7.120   0.143  0.00  0.00    -0.019 C 
ATOM     15  C   UNL     1      -0.485   8.474   0.820  0.00  0.00    +0.011 C 
ATOM     16  C   UNL     1      -0.575   9.585  -0.219  0.00  0.00    +0.045 C 
ATOM     17  C   UNL     1       0.711   9.670  -1.041  0.00  0.00    +0.177 C 
ATOM     18  C   UNL     1       1.020   8.322  -1.693  0.00  0.00    +0.048 C 
ATOM     19  C   UNL     1      -1.352   6.835  -0.819  0.00  0.00    +0.012 C 
ATOM     20  C   UNL     1      -0.961   3.540  -0.979  0.00  0.00    +0.017 C 
ENDROOT
BRANCH   1  22
ATOM     21  C   UNL     1      -2.951  -0.151   1.104  0.00  0.00    +0.069 C 
ATOM     22  C   UNL     1      -2.805   1.327   0.845  0.00  0.00    +0.080 C 
ATOM     23  N   UNL     1      -3.858   2.061   0.668  0.00  0.00    -0.092 NA
BRANCH  23  24
ATOM     24  O   UNL     1      -5.146   1.475   0.718  0.00  0.00    -0.409 OA
ATOM     25  H   UNL     1      -6.040   2.098   0.568  0.00  0.00    +0.328 HD
ENDBRANCH  23  24
ENDBRANCH   1  22
BRANCH  17  26
ATOM     26  O   UNL     1       0.556  10.680  -2.075  0.00  0.00    -0.462 OA
BRANCH  26  27
ATOM     27  C   UNL     1       0.893  11.938  -1.754  0.00  0.00    +0.304 C 
ATOM     28  O   UNL     1       1.304  12.189  -0.645  0.00  0.00    -0.251 OA
ATOM     29  C   UNL     1       0.760  13.039  -2.775  0.00  0.00    +0.136 C 
ENDBRANCH  26  27
ENDBRANCH  17  26
TORSDOF 4
