REMARK  Name = ZINC40303742
REMARK  5 active torsions:
REMARK  status: ('A' for Active; 'I' for Inactive)
REMARK    1  A    between atoms: C_1  and  C_2
REMARK    2  A    between atoms: C_2  and  C_4
REMARK    3  A    between atoms: C_2  and  N_10
REMARK    4  A    between atoms: C_11  and  C_13
REMARK    5  A    between atoms: C_21  and  N_23
REMARK                            x       y       z     vdW  Elec       q    Type
REMARK                         _______ _______ _______ _____ _____    ______ ____
ROOT
ATOM      1  C   UNL     1      -3.407  -1.164   1.191  0.00  0.00    +0.062 A 
ATOM      2  C   UNL     1      -4.148  -1.535   0.109  0.00  0.00    +0.096 A 
ATOM      3  N   UNL     1      -5.373  -1.952   0.513  0.00  0.00    -0.360 N 
ATOM      4  H   UNL     1      -6.074  -2.266  -0.080  0.00  0.00    +0.165 HD
ATOM      5  C   UNL     1      -5.481  -1.869   1.885  0.00  0.00    +0.049 A 
ATOM      6  C   UNL     1      -4.260  -1.379   2.376  0.00  0.00    +0.012 A 
ATOM      7  C   UNL     1      -4.077  -1.195   3.744  0.00  0.00    +0.012 A 
ATOM      8  C   UNL     1      -5.089  -1.496   4.613  0.00  0.00    +0.023 A 
ATOM      9  C   UNL     1      -6.303  -1.986   4.137  0.00  0.00    +0.027 A 
ATOM     10  C   UNL     1      -6.503  -2.167   2.779  0.00  0.00    +0.049 A 
ENDROOT
BRANCH   1  12
ATOM     11  N   UNL     1      -1.372  -0.511   0.012  0.00  0.00    -0.306 N 
ATOM     12  C   UNL     1      -2.029  -0.655   1.181  0.00  0.00    +0.246 C 
ATOM     13  O   UNL     1      -1.480  -0.364   2.227  0.00  0.00    -0.270 OA
ATOM     14  H   UNL     1      -1.810  -0.743  -0.822  0.00  0.00    +0.149 HD
BRANCH  11  16
ATOM     15  C   UNL     1      -0.019   1.526   0.010  0.00  0.00    +0.030 C 
ATOM     16  C   UNL     1       0.002  -0.004   0.002  0.00  0.00    +0.099 C 
BRANCH  16  17
ATOM     17  C   UNL     1       0.718  -0.497  -1.257  0.00  0.00    +0.138 C 
ATOM     18  C   UNL     1       0.611  -2.039  -1.367  0.00  0.00    +0.035 C 
ATOM     19  C   UNL     1       0.778  -2.238  -2.898  0.00  0.00    +0.031 C 
ATOM     20  C   UNL     1       0.090  -0.979  -3.469  0.00  0.00    +0.160 C 
ATOM     21  O   UNL     1       0.068   0.011  -2.432  0.00  0.00    -0.375 OA
ENDBRANCH  16  17
ENDBRANCH  11  16
ENDBRANCH   1  12
BRANCH   9  22
ATOM     22  N   UNL     1      -7.329  -2.289   5.037  0.00  0.00    -0.358 N 
ATOM     23  H   UNL     1      -7.194  -2.159   5.989  0.00  0.00    +0.142 HD
ATOM     24  H   UNL     1      -8.176  -2.631   4.710  0.00  0.00    +0.142 HD
ENDBRANCH   9  22
TORSDOF 4
