REMARK  Name = ZINC33587897
REMARK  6 active torsions:
REMARK  status: ('A' for Active; 'I' for Inactive)
REMARK    1  A    between atoms: C_1  and  C_2
REMARK    2  A    between atoms: C_4  and  C_36
REMARK    3  A    between atoms: C_12  and  C_27
REMARK    4  A    between atoms: C_14  and  C_15
REMARK    5  A    between atoms: C_15  and  C_16
REMARK    6  A    between atoms: C_30  and  N_33
REMARK                            x       y       z     vdW  Elec       q    Type
REMARK                         _______ _______ _______ _____ _____    ______ ____
ROOT
ATOM      1  C   UNL     1       0.355   5.537  -1.496  0.00  0.00    +0.044 C 
ATOM      2  C   UNL     1       0.240   4.036  -1.440  0.00  0.00    -0.049 A 
ATOM      3  C   UNL     1      -0.963   3.413  -1.740  0.00  0.00    +0.009 A 
ATOM      4  C   UNL     1      -1.096   2.050  -1.691  0.00  0.00    -0.024 A 
ATOM      5  C   UNL     1       0.001   1.229  -1.339  0.00  0.00    +0.083 A 
ATOM      6  C   UNL     1       1.210   1.898  -1.039  0.00  0.00    +0.041 A 
ATOM      7  C   UNL     1       1.332   3.265  -1.086  0.00  0.00    +0.020 A 
ATOM      8  S   UNL     1       2.302   0.551  -0.652  0.00  0.00    -0.052 S 
ATOM      9  C   UNL     1       1.125  -0.771  -0.904  0.00  0.00    +0.169 A 
ATOM     10  N   UNL     1       0.040  -0.117  -1.248  0.00  0.00    -0.224 NA
ATOM     11  N   UNL     1       1.311  -2.135  -0.770  0.00  0.00    -0.232 N 
ATOM     12  C   UNL     1       2.563  -2.789  -0.379  0.00  0.00    +0.152 C 
ATOM     13  C   UNL     1       2.291  -4.275  -0.366  0.00  0.00    +0.077 C 
ATOM     14  C   UNL     1       0.941  -4.428  -0.736  0.00  0.00    +0.250 C 
ATOM     15  O   UNL     1       0.345  -5.483  -0.845  0.00  0.00    -0.282 OA
ATOM     16  C   UNL     1       0.371  -3.074  -0.971  0.00  0.00    +0.293 C 
ATOM     17  O   UNL     1      -0.776  -2.850  -1.300  0.00  0.00    -0.266 OA
ATOM     18  C   UNL     1      -2.424   1.418  -2.019  0.00  0.00    +0.046 C 
ENDROOT
BRANCH  12  19
ATOM     19  C   UNL     1       2.978  -2.329   0.995  0.00  0.00    -0.022 A 
ATOM     20  C   UNL     1       2.023  -2.124   1.973  0.00  0.00    +0.008 A 
ATOM     21  C   UNL     1       2.405  -1.707   3.235  0.00  0.00    +0.033 A 
ATOM     22  C   UNL     1       3.740  -1.484   3.515  0.00  0.00    +0.126 A 
ATOM     23  C   UNL     1       4.694  -1.683   2.535  0.00  0.00    +0.033 A 
ATOM     24  C   UNL     1       4.314  -2.106   1.276  0.00  0.00    +0.008 A 
BRANCH  22  25
ATOM     25  N   UNL     1       4.147  -1.033   4.865  0.00  0.00    +0.056 N 
ATOM     26  O   UNL     1       5.324  -0.837   5.112  0.00  0.00    -0.126 OA
ATOM     27  O   UNL     1       3.306  -0.857   5.728  0.00  0.00    -0.126 OA
ENDBRANCH  22  25
ENDBRANCH  12  19
BRANCH  13  28
ATOM     28  C   UNL     1       3.182  -5.278  -0.055  0.00  0.00    +0.195 C 
ATOM     29  O   UNL     1       4.484  -4.984   0.150  0.00  0.00    -0.287 OA
BRANCH  28  30
ATOM     30  C   UNL     1       2.714  -6.674   0.054  0.00  0.00    +0.025 A 
ATOM     31  C   UNL     1       1.611  -7.003   0.851  0.00  0.00    +0.031 A 
ATOM     32  C   UNL     1       1.205  -8.321   0.919  0.00  0.00    +0.111 A 
ATOM     33  N   UNL     1       1.847  -9.263   0.256  0.00  0.00    -0.263 NA
ATOM     34  C   UNL     1       2.894  -8.998  -0.501  0.00  0.00    +0.111 A 
ATOM     35  C   UNL     1       3.365  -7.707  -0.633  0.00  0.00    +0.031 A 
ENDBRANCH  28  30
ENDBRANCH  13  28
TORSDOF 4
