REMARK  Name = ZINC13499491
REMARK  12 active torsions:
REMARK  status: ('A' for Active; 'I' for Inactive)
REMARK    1  A    between atoms: C_1  and  C_2
REMARK    2  A    between atoms: C_2  and  C_3
REMARK    3  A    between atoms: C_3  and  C_4
REMARK    4  A    between atoms: C_4  and  C_6
REMARK    5  A    between atoms: C_4  and  N_75
REMARK    6  A    between atoms: N_10  and  C_11
REMARK    7  A    between atoms: C_11  and  C_12
REMARK    8  A    between atoms: C_18  and  C_19
REMARK    9  A    between atoms: C_18  and  N_75
REMARK   10  A    between atoms: C_23  and  C_32
REMARK   11  A    between atoms: C_24  and  C_31
REMARK   12  A    between atoms: C_33  and  N_75
REMARK                            x       y       z     vdW  Elec       q    Type
REMARK                         _______ _______ _______ _____ _____    ______ ____
ROOT
ATOM      1  N   UNL     1      -2.822   0.407  -2.375  0.00  0.00    +0.391 N 
ATOM      2  H   UNL     1      -1.969  -0.088  -2.659  0.00  0.00    -0.080 HD
ENDROOT
BRANCH   1   3
ATOM      3  C   UNL     1      -3.006   1.587  -3.246  0.00  0.00    -0.067 C 
ATOM      4  C   UNL     1      -3.763   1.173  -4.510  0.00  0.00    -0.015 C 
ATOM      5  C   UNL     1      -3.929   2.388  -5.425  0.00  0.00    -0.002 C 
ATOM      6  C   UNL     1      -2.551   2.929  -5.810  0.00  0.00    -0.000 C 
ATOM      7  C   UNL     1      -1.794   3.343  -4.546  0.00  0.00    -0.002 C 
ATOM      8  C   UNL     1      -1.628   2.128  -3.631  0.00  0.00    -0.015 C 
ENDBRANCH   1   3
BRANCH   1   9
ATOM      9  C   UNL     1      -3.976  -0.507  -2.513  0.00  0.00    +0.003 C 
BRANCH   9  10
ATOM     10  C   UNL     1      -3.536  -1.897  -2.132  0.00  0.00    +0.138 A 
ATOM     11  N   UNL     1      -2.698  -2.219  -1.177  0.00  0.00    -0.115 NA
ATOM     12  N   UNL     1      -2.581  -3.502  -1.165  0.00  0.00    -0.023 NA
ATOM     13  N   UNL     1      -3.323  -4.007  -2.088  0.00  0.00    -0.044 NA
ATOM     14  N   UNL     1      -3.932  -3.050  -2.703  0.00  0.00    -0.226 N 
BRANCH  14  15
ATOM     15  C   UNL     1      -4.875  -3.191  -3.816  0.00  0.00    +0.182 C 
BRANCH  15  16
ATOM     16  C   UNL     1      -4.114  -3.239  -5.116  0.00  0.00    -0.026 A 
ATOM     17  C   UNL     1      -3.874  -2.073  -5.819  0.00  0.00    +0.005 A 
ATOM     18  C   UNL     1      -3.171  -2.116  -7.009  0.00  0.00    +0.000 A 
ATOM     19  C   UNL     1      -2.718  -3.325  -7.501  0.00  0.00    +0.000 A 
ATOM     20  C   UNL     1      -2.963  -4.492  -6.800  0.00  0.00    +0.000 A 
ATOM     21  C   UNL     1      -3.661  -4.448  -5.608  0.00  0.00    +0.005 A 
ENDBRANCH  15  16
ENDBRANCH  14  15
ENDBRANCH   9  10
BRANCH   9  22
ATOM     22  C   UNL     1      -5.120  -0.066  -1.598  0.00  0.00    -0.008 C 
BRANCH  22  24
ATOM     23  C   UNL     1      -6.904   1.650  -1.257  0.00  0.00    +0.004 C 
ATOM     24  C   UNL     1      -5.668   1.279  -2.080  0.00  0.00    -0.005 C 
ENDBRANCH  22  24
ENDBRANCH   9  22
ENDBRANCH   1   9
BRANCH   1  25
ATOM     25  C   UNL     1      -2.683   0.835  -0.967  0.00  0.00    -0.036 C 
BRANCH  25  26
ATOM     26  C   UNL     1      -1.357   1.532  -0.800  0.00  0.00    +0.001 A 
ATOM     27  C   UNL     1      -1.306   2.887  -0.763  0.00  0.00    +0.017 A 
ATOM     28  C   UNL     1      -0.002   3.533  -0.605  0.00  0.00    -0.001 A 
ATOM     29  C   UNL     1       0.115   4.926  -0.564  0.00  0.00    +0.013 A 
ATOM     30  C   UNL     1       1.346   5.499  -0.415  0.00  0.00    -0.047 A 
ATOM     31  C   UNL     1       2.483   4.710  -0.304  0.00  0.00    -0.046 A 
ATOM     32  C   UNL     1       2.392   3.335  -0.343  0.00  0.00    +0.030 A 
ATOM     33  C   UNL     1       1.149   2.730  -0.493  0.00  0.00    +0.049 A 
ATOM     34  N   UNL     1       1.028   1.357  -0.534  0.00  0.00    -0.322 N 
ATOM     35  H   UNL     1       1.822   0.805  -0.457  0.00  0.00    +0.169 HD
ATOM     36  C   UNL     1      -0.174   0.772  -0.679  0.00  0.00    +0.251 A 
ATOM     37  O   UNL     1      -0.243  -0.444  -0.711  0.00  0.00    -0.268 OA
ATOM     38  C   UNL     1       3.831   5.363  -0.142  0.00  0.00    +0.044 C 
ATOM     39  C   UNL     1       1.471   7.000  -0.370  0.00  0.00    +0.044 C 
ENDBRANCH  25  26
ENDBRANCH   1  25
TORSDOF 9
