REMARK  Name = ZINC16097050
REMARK  9 active torsions:
REMARK  status: ('A' for Active; 'I' for Inactive)
REMARK    1  A    between atoms: C_1  and  C_2
REMARK    2  A    between atoms: C_6  and  N_8
REMARK    3  A    between atoms: N_8  and  S_9
REMARK    4  A    between atoms: S_9  and  C_12
REMARK    5  A    between atoms: C_15  and  C_32
REMARK    6  A    between atoms: C_16  and  N_18
REMARK    7  A    between atoms: N_18  and  S_19
REMARK    8  A    between atoms: S_19  and  C_22
REMARK    9  A    between atoms: C_25  and  C_28
REMARK                            x       y       z     vdW  Elec       q    Type
REMARK                         _______ _______ _______ _____ _____    ______ ____
ROOT
ATOM      1  C   UNL     1       0.941  -0.973   1.502  0.00  0.00    +0.110 A 
ATOM      2  C   UNL     1       2.279  -1.283   1.661  0.00  0.00    +0.029 A 
ATOM      3  C   UNL     1       2.772  -1.615   2.909  0.00  0.00    +0.007 A 
ATOM      4  C   UNL     1       1.927  -1.649   4.000  0.00  0.00    -0.028 A 
ATOM      5  C   UNL     1       0.581  -1.344   3.844  0.00  0.00    +0.053 A 
ATOM      6  C   UNL     1       0.090  -1.005   2.589  0.00  0.00    +0.053 A 
ATOM      7  C   UNL     1       2.464  -2.018   5.359  0.00  0.00    +0.046 C 
ENDROOT
BRANCH   1   8
ATOM      8  S   UNL     1       0.319  -0.543  -0.089  0.00  0.00    +0.072 S 
ATOM      9  O   UNL     1      -1.072  -0.834  -0.074  0.00  0.00    -0.150 OA
ATOM     10  O   UNL     1       1.207  -1.116  -1.040  0.00  0.00    -0.150 OA
BRANCH   8  11
ATOM     11  N   UNL     1       0.458   1.100  -0.242  0.00  0.00    -0.216 N 
ATOM     12  H   UNL     1      -0.338   1.648  -0.321  0.00  0.00    +0.174 HD
BRANCH  11  18
ATOM     13  C   UNL     1       3.480   4.664   1.280  0.00  0.00    +0.044 C 
ATOM     14  C   UNL     1       3.215   3.424   0.465  0.00  0.00    -0.049 A 
ATOM     15  C   UNL     1       4.224   2.875  -0.305  0.00  0.00    +0.003 A 
ATOM     16  C   UNL     1       3.985   1.737  -1.054  0.00  0.00    +0.002 A 
ATOM     17  C   UNL     1       2.737   1.146  -1.036  0.00  0.00    +0.024 A 
ATOM     18  C   UNL     1       1.722   1.695  -0.263  0.00  0.00    +0.048 A 
ATOM     19  C   UNL     1       1.964   2.840   0.485  0.00  0.00    +0.027 A 
ENDBRANCH  11  18
ENDBRANCH   8  11
ENDBRANCH   1   8
BRANCH   5  20
ATOM     20  N   UNL     1      -0.277  -1.378   4.946  0.00  0.00    -0.216 N 
ATOM     21  H   UNL     1       0.043  -1.102   5.819  0.00  0.00    +0.174 HD
BRANCH  20  22
ATOM     22  S   UNL     1      -1.842  -1.887   4.761  0.00  0.00    +0.072 S 
ATOM     23  O   UNL     1      -2.409  -1.935   6.063  0.00  0.00    -0.150 OA
ATOM     24  O   UNL     1      -2.402  -1.108   3.714  0.00  0.00    -0.150 OA
BRANCH  22  25
ATOM     25  C   UNL     1      -1.783  -3.549   4.177  0.00  0.00    +0.109 A 
ATOM     26  C   UNL     1      -1.762  -3.803   2.818  0.00  0.00    +0.029 A 
ATOM     27  C   UNL     1      -1.712  -5.106   2.359  0.00  0.00    +0.014 A 
ATOM     28  C   UNL     1      -1.692  -6.155   3.259  0.00  0.00    +0.055 A 
ATOM     29  C   UNL     1      -1.717  -5.901   4.618  0.00  0.00    +0.014 A 
ATOM     30  C   UNL     1      -1.763  -4.598   5.076  0.00  0.00    +0.029 A 
BRANCH  28  31
ATOM     31  C   UNL     1      -1.641  -7.576   2.759  0.00  0.00    +0.417 C 
ATOM     32  F   UNL     1      -2.944  -8.056   2.587  0.00  0.00    -0.166 F 
ATOM     33  F   UNL     1      -0.964  -7.615   1.535  0.00  0.00    -0.166 F 
ATOM     34  F   UNL     1      -0.969  -8.374   3.690  0.00  0.00    -0.166 F 
ENDBRANCH  28  31
ENDBRANCH  22  25
ENDBRANCH  20  22
ENDBRANCH   5  20
TORSDOF 7
