REMARK  Name = ZINC10049950
REMARK  9 active torsions:
REMARK  status: ('A' for Active; 'I' for Inactive)
REMARK    1  A    between atoms: C_1  and  C_2
REMARK    2  A    between atoms: C_7  and  N_8
REMARK    3  A    between atoms: C_9  and  C_37
REMARK    4  A    between atoms: N_18  and  C_23
REMARK    5  A    between atoms: N_21  and  C_22
REMARK    6  A    between atoms: C_23  and  C_24
REMARK    7  A    between atoms: C_24  and  C_26
REMARK    8  A    between atoms: C_24  and  C_27
REMARK    9  A    between atoms: C_27  and  N_69
REMARK                            x       y       z     vdW  Elec       q    Type
REMARK                         _______ _______ _______ _____ _____    ______ ____
ROOT
ATOM      1  N   UNL     1      -2.475  -5.422   4.085  0.00  0.00    -0.282 N 
ATOM      2  C   UNL     1      -3.479  -4.710   4.716  0.00  0.00    +0.040 A 
ATOM      3  C   UNL     1      -3.231  -3.413   4.557  0.00  0.00    +0.116 A 
ATOM      4  N   UNL     1      -2.066  -3.278   3.823  0.00  0.00    -0.277 N 
ATOM      5  C   UNL     1      -1.603  -4.517   3.534  0.00  0.00    +0.223 A 
ATOM      6  N   UNL     1      -0.486  -4.413   2.829  0.00  0.00    -0.193 NA
ATOM      7  C   UNL     1      -0.187  -3.131   2.639  0.00  0.00    +0.170 A 
ATOM      8  C   UNL     1      -1.178  -2.373   3.261  0.00  0.00    +0.157 A 
ATOM      9  C   UNL     1      -1.098  -0.972   3.215  0.00  0.00    +0.283 A 
ATOM     10  O   UNL     1      -1.950  -0.288   3.757  0.00  0.00    -0.265 OA
ATOM     11  N   UNL     1      -0.072  -0.389   2.561  0.00  0.00    -0.259 N 
ATOM     12  C   UNL     1       0.879  -1.128   1.963  0.00  0.00    +0.333 A 
ATOM     13  O   UNL     1       1.791  -0.567   1.387  0.00  0.00    -0.246 OA
ATOM     14  N   UNL     1       0.845  -2.474   1.987  0.00  0.00    -0.279 N 
ATOM     15  C   UNL     1       1.900  -3.244   1.323  0.00  0.00    +0.155 C 
ATOM     16  C   UNL     1      -4.651  -5.302   5.456  0.00  0.00    +0.065 C 
ENDROOT
BRANCH   1  23
ATOM     17  C   UNL     1      -3.717  -6.768   1.907  0.00  0.00    +0.046 C 
ATOM     18  C   UNL     1      -2.958  -7.513   2.975  0.00  0.00    -0.027 A 
ATOM     19  C   UNL     1      -2.846  -8.888   2.911  0.00  0.00    +0.005 A 
ATOM     20  C   UNL     1      -2.155  -9.572   3.894  0.00  0.00    +0.000 A 
ATOM     21  C   UNL     1      -1.569  -8.883   4.940  0.00  0.00    +0.002 A 
ATOM     22  C   UNL     1      -1.673  -7.507   5.006  0.00  0.00    +0.026 A 
ATOM     23  C   UNL     1      -2.367  -6.817   4.021  0.00  0.00    +0.053 A 
ENDBRANCH   1  23
BRANCH  11  24
ATOM     24  C   UNL     1       0.011   1.072   2.506  0.00  0.00    +0.131 C 
BRANCH  24  25
ATOM     25  C   UNL     1      -0.729   1.579   1.267  0.00  0.00    -0.011 C 
ATOM     26  C   UNL     1      -0.013   1.086   0.008  0.00  0.00    +0.007 C 
BRANCH  25  27
ATOM     27  C   UNL     1      -0.750   3.109   1.275  0.00  0.00    -0.073 C 
BRANCH  27  37
ATOM     28  C   UNL     1      -1.431   5.052  -0.003  0.00  0.00    -0.074 C 
ATOM     29  C   UNL     1      -1.981   5.445  -1.375  0.00  0.00    +0.017 C 
ATOM     30  C   UNL     1      -3.350   4.847  -1.571  0.00  0.00    -0.048 A 
ATOM     31  C   UNL     1      -4.159   5.360  -2.574  0.00  0.00    +0.004 A 
ATOM     32  C   UNL     1      -5.418   4.838  -2.790  0.00  0.00    +0.000 A 
ATOM     33  C   UNL     1      -5.876   3.798  -2.002  0.00  0.00    +0.000 A 
ATOM     34  C   UNL     1      -5.073   3.288  -1.003  0.00  0.00    +0.002 A 
ATOM     35  C   UNL     1      -3.808   3.812  -0.783  0.00  0.00    -0.061 A 
ATOM     36  C   UNL     1      -2.970   3.225   0.322  0.00  0.00    -0.043 C 
ATOM     37  N   UNL     1      -1.556   3.586   0.129  0.00  0.00    +0.383 N 
ATOM     38  H   UNL     1      -1.211   3.142  -0.730  0.00  0.00    -0.081 HD
ENDBRANCH  27  37
ENDBRANCH  25  27
ENDBRANCH  24  25
ENDBRANCH  11  24
TORSDOF 5
