REMARK  Name = ZINC39929093
REMARK  8 active torsions:
REMARK  status: ('A' for Active; 'I' for Inactive)
REMARK    1  A    between atoms: C_1  and  O_2
REMARK    2  A    between atoms: O_2  and  C_3
REMARK    3  A    between atoms: C_8  and  C_15
REMARK    4  A    between atoms: C_15  and  N_16
REMARK    5  A    between atoms: N_16  and  C_17
REMARK    6  A    between atoms: C_22  and  O_23
REMARK    7  A    between atoms: O_23  and  C_24
REMARK    8  A    between atoms: C_25  and  C_27
REMARK                            x       y       z     vdW  Elec       q    Type
REMARK                         _______ _______ _______ _____ _____    ______ ____
ROOT
ATOM      1  N   UNL     1       4.141  -5.848   4.311  0.00  0.00    -0.261 N 
ATOM      2  C   UNL     1       4.136  -6.518   5.481  0.00  0.00    +0.286 C 
ATOM      3  O   UNL     1       4.119  -7.735   5.485  0.00  0.00    -0.266 OA
ENDROOT
BRANCH   1   4
ATOM      4  C   UNL     1       4.240  -6.550   3.103  0.00  0.00    +0.079 A 
ATOM      5  C   UNL     1       5.484  -6.913   2.610  0.00  0.00    +0.027 A 
ATOM      6  C   UNL     1       5.580  -7.605   1.417  0.00  0.00    +0.002 A 
ATOM      7  C   UNL     1       4.436  -7.937   0.713  0.00  0.00    +0.004 A 
ATOM      8  C   UNL     1       3.193  -7.578   1.199  0.00  0.00    +0.047 A 
ATOM      9  C   UNL     1       3.088  -6.889   2.396  0.00  0.00    +0.141 A 
BRANCH   9  10
ATOM     10  O   UNL     1       1.865  -6.541   2.878  0.00  0.00    -0.493 OA
ATOM     11  C   UNL     1       0.725  -7.016   2.159  0.00  0.00    +0.277 C 
ENDBRANCH   9  10
ENDBRANCH   1   4
BRANCH   2  12
ATOM     12  C   UNL     1       4.149  -5.780   6.748  0.00  0.00    +0.190 A 
ATOM     13  C   UNL     1       4.235  -6.329   7.995  0.00  0.00    +0.054 A 
ATOM     14  C   UNL     1       4.215  -5.263   8.908  0.00  0.00    +0.042 A 
ATOM     15  C   UNL     1       4.119  -4.124   8.187  0.00  0.00    +0.196 A 
ATOM     16  O   UNL     1       4.084  -4.440   6.886  0.00  0.00    -0.458 OA
ENDBRANCH   2  12
BRANCH   1  17
ATOM     17  C   UNL     1       4.043  -4.386   4.303  0.00  0.00    +0.131 C 
BRANCH  17  23
ATOM     18  C   UNL     1       7.181   0.057   6.956  0.00  0.00    +0.122 A 
ATOM     19  C   UNL     1       6.444   0.675   5.935  0.00  0.00    +0.046 A 
ATOM     20  C   UNL     1       5.816  -0.053   4.981  0.00  0.00    +0.013 A 
ATOM     21  C   UNL     1       5.912  -1.514   5.022  0.00  0.00    -0.007 A 
ATOM     22  C   UNL     1       5.295  -2.278   4.080  0.00  0.00    -0.003 C 
ATOM     23  C   UNL     1       5.445  -3.782   4.196  0.00  0.00    +0.116 C 
ATOM     24  C   UNL     1       6.268  -4.314   5.347  0.00  0.00    +0.226 C 
ATOM     25  O   UNL     1       6.421  -5.513   5.487  0.00  0.00    -0.275 OA
ATOM     26  N   UNL     1       6.821  -3.471   6.201  0.00  0.00    -0.284 N 
ATOM     27  C   UNL     1       6.691  -2.145   6.104  0.00  0.00    +0.044 A 
ATOM     28  C   UNL     1       7.311  -1.312   7.044  0.00  0.00    +0.069 A 
ATOM     29  H   UNL     1       7.345  -3.831   6.934  0.00  0.00    +0.155 HD
BRANCH  18  31
ATOM     30  C   UNL     1       7.627   2.246   7.756  0.00  0.00    +0.277 C 
ATOM     31  O   UNL     1       7.789   0.832   7.885  0.00  0.00    -0.495 OA
ENDBRANCH  18  31
ENDBRANCH  17  23
ENDBRANCH   1  17
TORSDOF 6
