REMARK  Name = ZINC00808490
REMARK  7 active torsions:
REMARK  status: ('A' for Active; 'I' for Inactive)
REMARK    1  A    between atoms: C_1  and  C_2
REMARK    2  A    between atoms: C_4  and  C_30
REMARK    3  A    between atoms: C_6  and  S_8
REMARK    4  A    between atoms: S_8  and  C_9
REMARK    5  A    between atoms: C_9  and  C_10
REMARK    6  A    between atoms: C_10  and  N_11
REMARK    7  A    between atoms: N_19  and  C_29
REMARK                            x       y       z     vdW  Elec       q    Type
REMARK                         _______ _______ _______ _____ _____    ______ ____
ROOT
ATOM      1  N   UNL     1      -0.776   1.628   1.150  0.00  0.00    -0.305 N 
ATOM      2  C   UNL     1      -1.827   0.997   1.802  0.00  0.00    +0.153 A 
ATOM      3  C   UNL     1      -2.635  -0.118   1.518  0.00  0.00    +0.280 A 
ATOM      4  O   UNL     1      -2.466  -0.756   0.493  0.00  0.00    -0.265 OA
ATOM      5  N   UNL     1      -3.599  -0.475   2.392  0.00  0.00    -0.273 N 
ATOM      6  H   UNL     1      -4.175  -1.268   2.192  0.00  0.00    +0.173 HD
ATOM      7  C   UNL     1      -3.796   0.218   3.526  0.00  0.00    +0.331 A 
ATOM      8  O   UNL     1      -4.674  -0.133   4.290  0.00  0.00    -0.246 OA
ATOM      9  N   UNL     1      -3.046   1.292   3.837  0.00  0.00    -0.280 N 
ATOM     10  C   UNL     1      -2.040   1.707   2.979  0.00  0.00    +0.170 A 
ATOM     11  N   UNL     1      -1.155   2.705   3.012  0.00  0.00    -0.196 NA
ATOM     12  C   UNL     1      -0.395   2.668   1.937  0.00  0.00    +0.201 A 
ATOM     13  N   UNL     1       0.624   3.548   1.653  0.00  0.00    -0.301 N 
ATOM     14  C   UNL     1       1.691   3.460   2.658  0.00  0.00    +0.108 C 
ATOM     15  C   UNL     1       2.868   4.342   2.234  0.00  0.00    +0.019 C 
ATOM     16  C   UNL     1       2.389   5.790   2.096  0.00  0.00    +0.003 C 
ATOM     17  C   UNL     1       1.246   5.847   1.079  0.00  0.00    +0.019 C 
ATOM     18  C   UNL     1       0.117   4.921   1.536  0.00  0.00    +0.108 C 
ATOM     19  C   UNL     1      -3.292   2.021   5.083  0.00  0.00    +0.155 C 
ENDROOT
BRANCH   1  20
ATOM     20  C   UNL     1      -0.188   1.243  -0.136  0.00  0.00    +0.136 C 
BRANCH  20  21
ATOM     21  C   UNL     1      -0.953   1.926  -1.272  0.00  0.00    +0.099 C 
BRANCH  21  22
ATOM     22  S   UNL     1      -0.226   1.450  -2.860  0.00  0.00    -0.084 S 
BRANCH  22  28
ATOM     23  C   UNL     1      -4.152   4.631  -3.673  0.00  0.00    +0.066 C 
ATOM     24  C   UNL     1      -3.045   3.787  -4.250  0.00  0.00    +0.043 A 
ATOM     25  C   UNL     1      -2.854   3.724  -5.622  0.00  0.00    +0.046 A 
ATOM     26  C   UNL     1      -1.825   2.935  -6.112  0.00  0.00    +0.043 A 
ATOM     27  N   UNL     1      -1.060   2.270  -5.262  0.00  0.00    -0.227 NA
ATOM     28  C   UNL     1      -1.269   2.352  -3.956  0.00  0.00    +0.189 A 
ATOM     29  N   UNL     1      -2.248   3.093  -3.455  0.00  0.00    -0.227 NA
ATOM     30  C   UNL     1      -1.580   2.837  -7.596  0.00  0.00    +0.066 C 
ENDBRANCH  22  28
ENDBRANCH  21  22
ENDBRANCH  20  21
ENDBRANCH   1  20
TORSDOF 4
