REMARK  Name = ZINC33121303
REMARK  13 active torsions:
REMARK  status: ('A' for Active; 'I' for Inactive)
REMARK    1  A    between atoms: C_1  and  C_2
REMARK    2  A    between atoms: C_2  and  C_3
REMARK    3  A    between atoms: C_3  and  C_4
REMARK    4  A    between atoms: C_4  and  N_5
REMARK    5  A    between atoms: N_5  and  C_6
REMARK    6  A    between atoms: C_7  and  C_9
REMARK    7  A    between atoms: C_11  and  N_21
REMARK    8  A    between atoms: C_14  and  N_15
REMARK    9  A    between atoms: N_21  and  S_22
REMARK   10  A    between atoms: S_22  and  C_25
REMARK   11  A    between atoms: C_26  and  C_33
REMARK   12  A    between atoms: C_28  and  C_32
REMARK   13  A    between atoms: C_30  and  C_31
REMARK                            x       y       z     vdW  Elec       q    Type
REMARK                         _______ _______ _______ _____ _____    ______ ____
ROOT
ATOM      1  C   UNL     1       2.817  -3.426   1.215  0.00  0.00    +0.060 A 
ATOM      2  C   UNL     1       1.549  -3.744   0.722  0.00  0.00    +0.039 A 
ATOM      3  C   UNL     1       1.312  -4.999   0.190  0.00  0.00    +0.049 A 
ATOM      4  C   UNL     1       2.333  -5.944   0.144  0.00  0.00    +0.026 A 
ATOM      5  C   UNL     1       3.587  -5.638   0.628  0.00  0.00    +0.026 A 
ATOM      6  C   UNL     1       3.843  -4.381   1.161  0.00  0.00    +0.042 A 
ENDROOT
BRANCH   6   7
ATOM      7  N   UNL     1       5.111  -4.072   1.643  0.00  0.00    -0.333 N 
ATOM      8  C   UNL     1       5.947  -5.277   1.737  0.00  0.00    +0.086 C 
ATOM      9  C   UNL     1       7.302  -4.908   2.344  0.00  0.00    -0.063 C 
ATOM     10  N   UNL     1       7.949  -3.886   1.510  0.00  0.00    +0.381 N 
ATOM     11  C   UNL     1       7.112  -2.681   1.416  0.00  0.00    -0.063 C 
ATOM     12  C   UNL     1       5.757  -3.050   0.808  0.00  0.00    +0.086 C 
ATOM     13  H   UNL     1       8.918  -3.611   1.952  0.00  0.00    -0.086 HD
ATOM     14  H   UNL     1       8.107  -4.286   0.497  0.00  0.00    -0.086 HD
ENDBRANCH   6   7
BRANCH   1  17
ATOM     15  N   UNL     1       2.894  -0.990   1.028  0.00  0.00    -0.301 N 
ATOM     16  C   UNL     1       2.344  -1.112  -0.325  0.00  0.00    +0.132 C 
ATOM     17  C   UNL     1       3.078  -2.091   1.783  0.00  0.00    +0.248 C 
ATOM     18  O   UNL     1       3.458  -1.983   2.933  0.00  0.00    -0.270 OA
BRANCH  15  19
ATOM     19  C   UNL     1       3.245   0.330   1.559  0.00  0.00    +0.108 C 
BRANCH  19  20
ATOM     20  C   UNL     1       2.033   0.930   2.274  0.00  0.00    +0.019 C 
BRANCH  20  22
ATOM     21  C   UNL     1       1.187   2.909   3.544  0.00  0.00    +0.004 C 
ATOM     22  C   UNL     1       2.399   2.308   2.829  0.00  0.00    -0.002 C 
ENDBRANCH  20  22
ENDBRANCH  19  20
ENDBRANCH  15  19
ENDBRANCH   1  17
BRANCH   3  23
ATOM     23  N   UNL     1       0.041  -5.320  -0.304  0.00  0.00    -0.216 N 
ATOM     24  H   UNL     1      -0.855  -5.074   0.284  0.00  0.00    +0.174 HD
BRANCH  23  25
ATOM     25  S   UNL     1      -0.112  -6.068  -1.773  0.00  0.00    +0.073 S 
ATOM     26  O   UNL     1      -1.504  -6.242  -1.998  0.00  0.00    -0.150 OA
ATOM     27  O   UNL     1       0.724  -5.359  -2.678  0.00  0.00    -0.150 OA
BRANCH  25  28
ATOM     28  C   UNL     1       0.578  -7.681  -1.610  0.00  0.00    +0.114 A 
ATOM     29  C   UNL     1      -0.055  -8.627  -0.825  0.00  0.00    -0.023 A 
ATOM     30  C   UNL     1       0.483  -9.894  -0.701  0.00  0.00    +0.008 A 
ATOM     31  C   UNL     1       1.659 -10.213  -1.355  0.00  0.00    -0.050 A 
ATOM     32  C   UNL     1       2.294  -9.266  -2.136  0.00  0.00    +0.008 A 
ATOM     33  C   UNL     1       1.753  -8.000  -2.263  0.00  0.00    -0.023 A 
ATOM     34  C   UNL     1       2.446  -6.967  -3.115  0.00  0.00    +0.046 C 
ATOM     35  C   UNL     1       2.248 -11.593  -1.216  0.00  0.00    +0.044 C 
ATOM     36  C   UNL     1      -1.334  -8.278  -0.108  0.00  0.00    +0.046 C 
ENDBRANCH  25  28
ENDBRANCH  23  25
ENDBRANCH   3  23
TORSDOF 8
