REMARK  Name = ZINC12401765
REMARK  11 active torsions:
REMARK  status: ('A' for Active; 'I' for Inactive)
REMARK    1  A    between atoms: C_1  and  C_2
REMARK    2  A    between atoms: C_2  and  C_3
REMARK    3  A    between atoms: C_2  and  C_4
REMARK    4  A    between atoms: C_9  and  C_15
REMARK    5  A    between atoms: C_10  and  O_14
REMARK    6  A    between atoms: C_15  and  C_16
REMARK    7  A    between atoms: C_15  and  C_21
REMARK    8  A    between atoms: C_22  and  O_34
REMARK    9  A    between atoms: C_29  and  C_31
REMARK   10  A    between atoms: C_31  and  C_32
REMARK   11  A    between atoms: C_31  and  C_33
REMARK                            x       y       z     vdW  Elec       q    Type
REMARK                         _______ _______ _______ _____ _____    ______ ____
ROOT
ATOM      1  C   UNL     1      -0.013   1.086   0.008  0.00  0.00    +0.107 C 
ENDROOT
BRANCH   1   7
ATOM      2  C   UNL     1       4.830   3.327   2.979  0.00  0.00    +0.105 A 
ATOM      3  N   UNL     1       3.559   3.120   2.819  0.00  0.00    -0.159 NA
ATOM      4  N   UNL     1       3.065   2.407   1.730  0.00  0.00    -0.171 N 
ATOM      5  C   UNL     1       1.758   2.126   1.453  0.00  0.00    +0.283 A 
ATOM      6  O   UNL     1       0.877   2.515   2.206  0.00  0.00    -0.265 OA
ATOM      7  C   UNL     1       1.429   1.398   0.316  0.00  0.00    +0.093 A 
ATOM      8  C   UNL     1       2.435   0.954  -0.531  0.00  0.00    +0.224 A 
ATOM      9  N   UNL     1       3.702   1.252  -0.232  0.00  0.00    -0.186 NA
ATOM     10  C   UNL     1       3.995   1.939   0.843  0.00  0.00    +0.202 A 
ATOM     11  S   UNL     1       5.525   2.507   1.553  0.00  0.00    -0.032 S 
BRANCH   2  13
ATOM     12  C   UNL     1       5.784   5.515   3.651  0.00  0.00    +0.014 C 
ATOM     13  C   UNL     1       5.538   4.068   4.084  0.00  0.00    +0.040 C 
ATOM     14  C   UNL     1       4.671   4.053   5.345  0.00  0.00    +0.014 C 
ENDBRANCH   2  13
BRANCH   8  15
ATOM     15  O   UNL     1       2.137   0.238  -1.641  0.00  0.00    -0.492 OA
ATOM     16  H   UNL     1       2.910  -0.021  -2.161  0.00  0.00    +0.294 HD
ENDBRANCH   8  15
ENDBRANCH   1   7
BRANCH   1  17
ATOM     17  C   UNL     1      -0.373   1.657  -1.339  0.00  0.00    +0.093 A 
ATOM     18  C   UNL     1      -0.953   0.848  -2.307  0.00  0.00    +0.224 A 
ATOM     19  N   UNL     1      -1.266   1.386  -3.488  0.00  0.00    -0.186 NA
ATOM     20  C   UNL     1      -1.022   2.647  -3.738  0.00  0.00    +0.202 A 
ATOM     21  N   UNL     1      -0.448   3.509  -2.843  0.00  0.00    -0.171 N 
ATOM     22  C   UNL     1      -0.121   2.994  -1.621  0.00  0.00    +0.283 A 
ATOM     23  O   UNL     1       0.395   3.709  -0.776  0.00  0.00    -0.265 OA
ATOM     24  N   UNL     1      -0.264   4.817  -3.280  0.00  0.00    -0.159 NA
ATOM     25  C   UNL     1      -0.617   5.194  -4.471  0.00  0.00    +0.105 A 
ATOM     26  S   UNL     1      -1.284   3.687  -5.158  0.00  0.00    -0.032 S 
BRANCH  25  27
ATOM     27  C   UNL     1      -0.495   6.554  -5.109  0.00  0.00    +0.040 C 
ATOM     28  C   UNL     1      -1.808   7.319  -4.933  0.00  0.00    +0.014 C 
ATOM     29  C   UNL     1       0.642   7.330  -4.441  0.00  0.00    +0.014 C 
ENDBRANCH  25  27
BRANCH  18  30
ATOM     30  O   UNL     1      -1.203  -0.459  -2.055  0.00  0.00    -0.492 OA
ATOM     31  H   UNL     1      -1.608  -0.932  -2.795  0.00  0.00    +0.294 HD
ENDBRANCH  18  30
ENDBRANCH   1  17
BRANCH   1  32
ATOM     32  C   UNL     1      -0.896   1.697   1.065  0.00  0.00    +0.002 A 
ATOM     33  C   UNL     1      -1.473   1.108   2.141  0.00  0.00    +0.012 A 
ATOM     34  C   UNL     1      -2.250   1.875   2.989  0.00  0.00    +0.008 A 
ATOM     35  C   UNL     1      -2.421   3.191   2.713  0.00  0.00    +0.045 A 
ATOM     36  S   UNL     1      -1.461   3.384   1.221  0.00  0.00    -0.101 S 
ENDBRANCH   1  32
TORSDOF 7
