REMARK  Name = ZINC27238110
REMARK  12 active torsions:
REMARK  status: ('A' for Active; 'I' for Inactive)
REMARK    1  A    between atoms: C_1  and  C_2
REMARK    2  A    between atoms: C_2  and  O_3
REMARK    3  A    between atoms: O_3  and  C_4
REMARK    4  A    between atoms: C_7  and  C_10
REMARK    5  A    between atoms: C_10  and  C_11
REMARK    6  A    between atoms: C_10  and  C_18
REMARK    7  A    between atoms: C_10  and  O_37
REMARK    8  A    between atoms: C_11  and  C_12
REMARK    9  A    between atoms: C_18  and  C_20
REMARK   10  A    between atoms: C_18  and  O_28
REMARK   11  A    between atoms: C_20  and  N_21
REMARK   12  A    between atoms: O_28  and  C_29
REMARK                            x       y       z     vdW  Elec       q    Type
REMARK                         _______ _______ _______ _____ _____    ______ ____
ROOT
ATOM      1  C   UNL     1       1.176   2.382  -0.543  0.00  0.00    +0.130 C 
ENDROOT
BRANCH   1   5
ATOM      2  C   UNL     1       0.404   6.493  -1.417  0.00  0.00    +0.121 A 
ATOM      3  C   UNL     1      -0.082   5.928  -0.247  0.00  0.00    +0.046 A 
ATOM      4  C   UNL     1       0.168   4.599   0.033  0.00  0.00    +0.010 A 
ATOM      5  C   UNL     1       0.904   3.832  -0.851  0.00  0.00    -0.012 A 
ATOM      6  C   UNL     1       1.395   4.394  -2.015  0.00  0.00    +0.010 A 
ATOM      7  C   UNL     1       1.141   5.721  -2.303  0.00  0.00    +0.046 A 
BRANCH   2   8
ATOM      8  O   UNL     1       0.159   7.800  -1.695  0.00  0.00    -0.492 OA
BRANCH   8  10
ATOM      9  C   UNL     1       0.315   9.791  -3.056  0.00  0.00    +0.048 C 
ATOM     10  C   UNL     1       0.691   8.315  -2.918  0.00  0.00    +0.225 C 
ENDBRANCH   8  10
ENDBRANCH   2   8
ENDBRANCH   1   5
BRANCH   1  11
ATOM     11  O   UNL     1       2.043   1.837  -1.540  0.00  0.00    -0.380 OA
ATOM     12  H   UNL     1       2.355   0.784  -1.482  0.00  0.00    +0.211 HD
ENDBRANCH   1  11
BRANCH   1  13
ATOM     13  C   UNL     1       1.844   2.269   0.829  0.00  0.00    +0.078 C 
BRANCH  13  14
ATOM     14  C   UNL     1       3.079   3.132   0.860  0.00  0.00    -0.044 A 
ATOM     15  C   UNL     1       4.300   2.604   0.485  0.00  0.00    +0.004 A 
ATOM     16  C   UNL     1       5.432   3.398   0.508  0.00  0.00    +0.000 A 
ATOM     17  C   UNL     1       5.345   4.715   0.916  0.00  0.00    +0.000 A 
ATOM     18  C   UNL     1       4.124   5.242   1.295  0.00  0.00    +0.000 A 
ATOM     19  C   UNL     1       2.991   4.450   1.267  0.00  0.00    +0.004 A 
ENDBRANCH  13  14
ENDBRANCH   1  13
BRANCH   1  20
ATOM     20  C   UNL     1      -0.142   1.606  -0.533  0.00  0.00    +0.193 C 
BRANCH  20  21
ATOM     21  C   UNL     1      -0.881   1.839  -1.853  0.00  0.00    -0.030 C 
BRANCH  21  22
ATOM     22  N   UNL     1      -2.079   0.990  -1.901  0.00  0.00    +0.382 N 
ATOM     23  C   UNL     1      -1.711  -0.441  -1.976  0.00  0.00    -0.079 C 
ATOM     24  C   UNL     1      -2.883  -1.328  -2.299  0.00  0.00    -0.019 C 
ATOM     25  C   UNL     1      -2.926  -1.546  -3.825  0.00  0.00    -0.002 C 
ATOM     26  C   UNL     1      -3.495  -0.403  -4.529  0.00  0.00    -0.002 C 
ATOM     27  C   UNL     1      -2.671   0.884  -4.313  0.00  0.00    -0.019 C 
ATOM     28  C   UNL     1      -3.009   1.445  -2.958  0.00  0.00    -0.079 C 
ATOM     29  H   UNL     1      -2.631   1.102  -0.956  0.00  0.00    -0.082 HD
ENDBRANCH  21  22
ENDBRANCH  20  21
BRANCH  20  30
ATOM     30  O   UNL     1      -0.953   2.058   0.553  0.00  0.00    -0.486 OA
BRANCH  30  31
ATOM     31  C   UNL     1      -0.948   1.302   1.683  0.00  0.00    +0.139 A 
ATOM     32  C   UNL     1      -0.088   0.219   1.790  0.00  0.00    +0.048 A 
ATOM     33  C   UNL     1      -0.080  -0.545   2.941  0.00  0.00    +0.023 A 
ATOM     34  C   UNL     1      -0.937  -0.236   3.983  0.00  0.00    +0.043 A 
ATOM     35  C   UNL     1      -1.800   0.840   3.877  0.00  0.00    +0.043 A 
ATOM     36  C   UNL     1      -1.807   1.610   2.729  0.00  0.00    +0.084 A 
ATOM     37 CL   UNL     1      -2.890   2.960   2.595  0.00  0.00    -0.080 Cl
ATOM     38 CL   UNL     1      -0.930  -1.202   5.426  0.00  0.00    -0.083 Cl
ENDBRANCH  30  31
ENDBRANCH  20  30
ENDBRANCH   1  20
TORSDOF 11
