REMARK  Name = ZINC63958018
REMARK  10 active torsions:
REMARK  status: ('A' for Active; 'I' for Inactive)
REMARK    1  A    between atoms: C_1  and  C_2
REMARK    2  A    between atoms: C_3  and  C_7
REMARK    3  A    between atoms: N_9  and  C_10
REMARK    4  A    between atoms: C_10  and  C_11
REMARK    5  A    between atoms: C_10  and  C_12
REMARK    6  A    between atoms: C_10  and  C_13
REMARK    7  A    between atoms: C_15  and  C_18
REMARK    8  A    between atoms: C_18  and  C_19
REMARK    9  A    between atoms: C_18  and  C_20
REMARK   10  A    between atoms: C_18  and  C_21
REMARK                            x       y       z     vdW  Elec       q    Type
REMARK                         _______ _______ _______ _____ _____    ______ ____
ROOT
ATOM      1  C   UNL     1      -0.014  -0.661  -4.963  0.00  0.00    +0.092 C 
ATOM      2  C   UNL     1      -1.276   0.169  -5.206  0.00  0.00    +0.040 C 
ATOM      3  C   UNL     1       1.222   0.204  -5.219  0.00  0.00    +0.040 C 
ENDROOT
BRANCH   1   4
ATOM      4  C   UNL     1      -0.003  -1.843  -5.898  0.00  0.00    +0.194 A 
ATOM      5  N   UNL     1      -0.005  -1.778  -7.234  0.00  0.00    -0.193 NA
ATOM      6  C   UNL     1       0.007  -2.979  -7.741  0.00  0.00    +0.233 A 
ATOM      7  O   UNL     1       0.018  -3.860  -6.732  0.00  0.00    -0.337 OA
ATOM      8  N   UNL     1       0.017  -3.093  -5.536  0.00  0.00    -0.059 NA
BRANCH   6   9
ATOM      9  C   UNL     1       0.009  -3.319  -9.209  0.00  0.00    +0.041 C 
ATOM     10  C   UNL     1       1.251  -2.717  -9.870  0.00  0.00    +0.020 C 
ATOM     11  C   UNL     1       0.025  -4.839  -9.381  0.00  0.00    +0.020 C 
ATOM     12  C   UNL     1      -1.248  -2.744  -9.867  0.00  0.00    +0.020 C 
ENDBRANCH   6   9
ENDBRANCH   1   4
BRANCH   1  15
ATOM     13  C   UNL     1      -0.008  -0.248  -2.562  0.00  0.00    +0.253 C 
ATOM     14  O   UNL     1      -0.025   0.946  -2.797  0.00  0.00    -0.270 OA
ATOM     15  N   UNL     1      -0.001  -1.134  -3.577  0.00  0.00    -0.299 N 
ATOM     16  H   UNL     1       0.013  -2.086  -3.389  0.00  0.00    +0.150 HD
BRANCH  13  19
ATOM     17  C   UNL     1      -0.018   1.503   0.010  0.00  0.00    +0.067 C 
ATOM     18  C   UNL     1       0.002  -0.004   0.002  0.00  0.00    +0.058 A 
ATOM     19  C   UNL     1       0.006  -0.722  -1.174  0.00  0.00    +0.096 A 
ATOM     20  S   UNL     1       0.032  -2.390  -0.537  0.00  0.00    -0.071 S 
ATOM     21  C   UNL     1       0.035  -2.012   1.103  0.00  0.00    +0.156 A 
ATOM     22  N   UNL     1       0.022  -0.699   1.113  0.00  0.00    -0.252 NA
ENDBRANCH  13  19
ENDBRANCH   1  15
TORSDOF 4
