REMARK  Name = ZINC20829767
REMARK  7 active torsions:
REMARK  status: ('A' for Active; 'I' for Inactive)
REMARK    1  A    between atoms: C_10  and  N_12
REMARK    2  A    between atoms: C_13  and  C_15
REMARK    3  A    between atoms: C_15  and  S_16
REMARK    4  A    between atoms: S_16  and  C_17
REMARK    5  A    between atoms: C_20  and  C_23
REMARK    6  A    between atoms: N_21  and  N_22
REMARK    7  A    between atoms: C_28  and  O_29
REMARK                            x       y       z     vdW  Elec       q    Type
REMARK                         _______ _______ _______ _____ _____    ______ ____
ROOT
ATOM      1  S   UNL     1      -0.737   8.677   0.689  0.00  0.00    -0.075 S 
ENDROOT
BRANCH   1   2
ATOM      2  C   UNL     1      -0.805   9.905   1.950  0.00  0.00    +0.209 A 
ATOM      3  N   UNL     1      -1.391   9.789   3.120  0.00  0.00    -0.121 NA
ATOM      4  N   UNL     1      -1.249  10.874   3.795  0.00  0.00    -0.127 NA
ATOM      5  C   UNL     1      -0.563  11.749   3.097  0.00  0.00    +0.185 A 
ATOM      6  N   UNL     1      -0.252  11.153   1.896  0.00  0.00    -0.224 N 
BRANCH   5   7
ATOM      7  C   UNL     1      -0.189  13.114   3.523  0.00  0.00    +0.062 A 
ATOM      8  C   UNL     1      -0.369  14.193   2.657  0.00  0.00    +0.015 A 
ATOM      9  C   UNL     1      -0.024  15.465   3.063  0.00  0.00    +0.001 A 
ATOM     10  C   UNL     1       0.512  15.675   4.322  0.00  0.00    +0.004 A 
ATOM     11  C   UNL     1       0.700  14.612   5.186  0.00  0.00    +0.046 A 
ATOM     12  C   UNL     1       0.353  13.329   4.796  0.00  0.00    +0.128 A 
BRANCH  12  13
ATOM     13  O   UNL     1       0.538  12.285   5.644  0.00  0.00    -0.506 OA
ATOM     14  H   UNL     1       0.964  12.457   6.644  0.00  0.00    +0.292 HD
ENDBRANCH  12  13
ENDBRANCH   5   7
BRANCH   6  15
ATOM     15  N   UNL     1       0.458  11.698   0.864  0.00  0.00    -0.295 N 
ATOM     16  H   UNL     1       0.851  12.722   0.947  0.00  0.00    +0.163 HD
ATOM     17  H   UNL     1       0.635  11.113  -0.051  0.00  0.00    +0.163 HD
ENDBRANCH   6  15
ENDBRANCH   1   2
BRANCH   1  18
ATOM     18  C   UNL     1      -1.663   7.347   1.495  0.00  0.00    +0.173 C 
BRANCH  18  20
ATOM     19  N   UNL     1      -2.383   5.040   0.967  0.00  0.00    -0.308 N 
ATOM     20  C   UNL     1      -1.737   6.156   0.575  0.00  0.00    +0.224 C 
ATOM     21  O   UNL     1      -1.214   6.202  -0.519  0.00  0.00    -0.275 OA
ATOM     22  H   UNL     1      -2.856   4.998   1.959  0.00  0.00    +0.149 HD
BRANCH  19  32
ATOM     23  C   UNL     1       1.153   1.627   0.516  0.00  0.00    +0.000 A 
ATOM     24  C   UNL     1       1.182   3.009   0.479  0.00  0.00    +0.000 A 
ATOM     25  C   UNL     1       0.005   3.715   0.339  0.00  0.00    +0.006 A 
ATOM     26  C   UNL     1      -1.210   3.050   0.236  0.00  0.00    -0.024 A 
ATOM     27  C   UNL     1      -1.239   1.674   0.274  0.00  0.00    -0.042 A 
ATOM     28  C   UNL     1      -0.053   0.964   0.417  0.00  0.00    +0.004 A 
ATOM     29  C   UNL     1      -2.520   0.887   0.179  0.00  0.00    +0.035 C 
ATOM     30  C   UNL     1      -3.638   1.750  -0.402  0.00  0.00    +0.007 C 
ATOM     31  C   UNL     1      -3.698   3.062   0.390  0.00  0.00    +0.027 C 
ATOM     32  C   UNL     1      -2.454   3.882   0.072  0.00  0.00    +0.103 C 
ENDBRANCH  19  32
ENDBRANCH  18  20
ENDBRANCH   1  18
TORSDOF 7
