REMARK  Name = ZINC65032261
REMARK  9 active torsions:
REMARK  status: ('A' for Active; 'I' for Inactive)
REMARK    1  A    between atoms: C_1  and  C_2
REMARK    2  A    between atoms: C_4  and  C_7
REMARK    3  A    between atoms: C_10  and  C_13
REMARK    4  A    between atoms: C_15  and  C_18
REMARK    5  A    between atoms: C_18  and  C_20
REMARK    6  A    between atoms: C_18  and  N_23
REMARK    7  A    between atoms: C_20  and  C_21
REMARK    8  A    between atoms: C_20  and  C_22
REMARK    9  A    between atoms: C_24  and  C_26
REMARK                            x       y       z     vdW  Elec       q    Type
REMARK                         _______ _______ _______ _____ _____    ______ ____
ROOT
ATOM      1  C   UNL     1      -5.269  -5.785  -0.004  0.00  0.00    +0.202 A 
ATOM      2  N   UNL     1      -6.569  -5.439  -0.007  0.00  0.00    -0.190 NA
ATOM      3  C   UNL     1      -7.314  -6.507  -0.006  0.00  0.00    +0.248 A 
ATOM      4  O   UNL     1      -6.516  -7.583  -0.002  0.00  0.00    -0.336 OA
ATOM      5  N   UNL     1      -5.183  -7.093  -0.006  0.00  0.00    -0.056 NA
ENDROOT
BRANCH   1   9
ATOM      6  C   UNL     1      -1.982  -3.083  -0.006  0.00  0.00    +0.001 A 
ATOM      7  C   UNL     1      -1.754  -4.459  -0.008  0.00  0.00    +0.011 A 
ATOM      8  C   UNL     1      -2.817  -5.333  -0.007  0.00  0.00    +0.012 A 
ATOM      9  C   UNL     1      -4.123  -4.843  -0.004  0.00  0.00    +0.022 A 
ATOM     10  C   UNL     1      -4.352  -3.467  -0.003  0.00  0.00    +0.012 A 
ATOM     11  C   UNL     1      -3.288  -2.592   0.003  0.00  0.00    +0.011 A 
BRANCH   6  15
ATOM     12  C   UNL     1      -0.018   1.503   0.010  0.00  0.00    +0.073 C 
ATOM     13  C   UNL     1       0.002  -0.004   0.002  0.00  0.00    +0.076 A 
ATOM     14  N   UNL     1      -1.013  -0.827   0.002  0.00  0.00    -0.244 NA
ATOM     15  C   UNL     1      -0.837  -2.141  -0.006  0.00  0.00    +0.078 A 
ATOM     16  C   UNL     1       0.460  -2.583  -0.014  0.00  0.00    +0.075 A 
ATOM     17  S   UNL     1       1.337  -1.028  -0.017  0.00  0.00    -0.080 S 
ENDBRANCH   6  15
ENDBRANCH   1   9
BRANCH   3  18
ATOM     18  C   UNL     1      -8.821  -6.529  -0.008  0.00  0.00    +0.165 C 
BRANCH  18  19
ATOM     19  N   UNL     1      -9.293  -7.515  -0.984  0.00  0.00    -0.297 N 
ATOM     20  C   UNL     1     -10.517  -7.385  -1.535  0.00  0.00    +0.280 C 
ATOM     21  O   UNL     1     -11.229  -6.449  -1.222  0.00  0.00    -0.267 OA
ATOM     22  H   UNL     1      -8.726  -8.261  -1.233  0.00  0.00    +0.150 HD
BRANCH  20  23
ATOM     23  C   UNL     1     -10.990  -8.372  -2.511  0.00  0.00    +0.189 A 
ATOM     24  C   UNL     1     -12.198  -8.357  -3.146  0.00  0.00    +0.054 A 
ATOM     25  C   UNL     1     -12.227  -9.480  -3.987  0.00  0.00    +0.042 A 
ATOM     26  C   UNL     1     -11.049 -10.124  -3.830  0.00  0.00    +0.196 A 
ATOM     27  O   UNL     1     -10.304  -9.450  -2.944  0.00  0.00    -0.458 OA
ENDBRANCH  20  23
ENDBRANCH  18  19
BRANCH  18  28
ATOM     28  C   UNL     1      -9.328  -6.908   1.385  0.00  0.00    +0.012 C 
ATOM     29  C   UNL     1      -8.834  -5.878   2.404  0.00  0.00    +0.009 C 
ATOM     30  C   UNL     1     -10.857  -6.930   1.383  0.00  0.00    +0.009 C 
ENDBRANCH  18  28
ENDBRANCH   3  18
TORSDOF 6
