REMARK  Name = ZINC36544860
REMARK  11 active torsions:
REMARK  status: ('A' for Active; 'I' for Inactive)
REMARK    1  A    between atoms: C_1  and  C_2
REMARK    2  A    between atoms: C_3  and  C_4
REMARK    3  A    between atoms: C_4  and  C_6
REMARK    4  A    between atoms: C_4  and  N_20
REMARK    5  A    between atoms: N_8  and  C_9
REMARK    6  A    between atoms: C_9  and  S_10
REMARK    7  A    between atoms: S_10  and  C_13
REMARK    8  A    between atoms: C_16  and  C_19
REMARK    9  A    between atoms: N_20  and  C_21
REMARK   10  A    between atoms: C_28  and  C_30
REMARK   11  A    between atoms: C_31  and  C_32
REMARK                            x       y       z     vdW  Elec       q    Type
REMARK                         _______ _______ _______ _____ _____    ______ ____
ROOT
ATOM      1  C   UNL     1       1.234   0.190  -2.225  0.00  0.00    +0.191 C 
ENDROOT
BRANCH   1   2
ATOM      2  C   UNL     1       0.428   0.358  -3.487  0.00  0.00    +0.239 C 
ATOM      3  O   UNL     1      -0.063   1.435  -3.754  0.00  0.00    -0.273 OA
ATOM      4  N   UNL     1       0.252  -0.687  -4.319  0.00  0.00    -0.294 N 
ATOM      5  H   UNL     1       0.645  -1.548  -4.106  0.00  0.00    +0.150 HD
BRANCH   4   6
ATOM      6  C   UNL     1      -0.531  -0.523  -5.546  0.00  0.00    +0.278 C 
BRANCH   6   7
ATOM      7  S   UNL     1       0.582  -0.163  -6.932  0.00  0.00    +0.013 S 
ATOM      8  O   UNL     1      -0.157  -0.064  -8.141  0.00  0.00    -0.168 OA
ATOM      9  O   UNL     1       1.509   0.850  -6.564  0.00  0.00    -0.168 OA
BRANCH   7  10
ATOM     10  C   UNL     1       1.557  -1.619  -7.119  0.00  0.00    +0.090 A 
ATOM     11  C   UNL     1       2.745  -1.749  -6.424  0.00  0.00    +0.027 A 
ATOM     12  C   UNL     1       3.510  -2.891  -6.571  0.00  0.00    +0.005 A 
ATOM     13  C   UNL     1       3.087  -3.903  -7.413  0.00  0.00    -0.050 A 
ATOM     14  C   UNL     1       1.899  -3.772  -8.108  0.00  0.00    +0.005 A 
ATOM     15  C   UNL     1       1.132  -2.632  -7.957  0.00  0.00    +0.027 A 
ATOM     16  C   UNL     1       3.921  -5.147  -7.574  0.00  0.00    +0.044 C 
ENDBRANCH   7  10
ENDBRANCH   6   7
ENDBRANCH   4   6
ENDBRANCH   1   2
BRANCH   1  19
ATOM     17  C   UNL     1       2.338  -2.216  -1.259  0.00  0.00    +0.035 C 
ATOM     18  C   UNL     1       0.965  -1.784  -0.814  0.00  0.00    -0.032 C 
ATOM     19  C   UNL     1       0.462  -0.654  -1.244  0.00  0.00    +0.000 C 
ENDBRANCH   1  19
BRANCH   1  20
ATOM     20  N   UNL     1       1.499   1.505  -1.636  0.00  0.00    -0.244 N 
ATOM     21  C   UNL     1       0.478   2.256  -1.178  0.00  0.00    +0.297 C 
ATOM     22  O   UNL     1      -0.664   1.843  -1.254  0.00  0.00    -0.260 OA
BRANCH  20  23
ATOM     23  C   UNL     1       2.812   1.980  -1.548  0.00  0.00    +0.057 A 
ATOM     24  C   UNL     1       3.363   2.701  -2.599  0.00  0.00    +0.025 A 
ATOM     25  C   UNL     1       4.659   3.169  -2.509  0.00  0.00    +0.002 A 
ATOM     26  C   UNL     1       5.409   2.920  -1.374  0.00  0.00    +0.002 A 
ATOM     27  C   UNL     1       4.864   2.203  -0.325  0.00  0.00    +0.022 A 
ATOM     28  C   UNL     1       3.566   1.736  -0.406  0.00  0.00    +0.062 A 
ATOM     29 CL   UNL     1       2.880   0.842   0.914  0.00  0.00    -0.082 Cl
ENDBRANCH  20  23
BRANCH  21  30
ATOM     30  C   UNL     1       0.738   3.541  -0.602  0.00  0.00    -0.002 C 
ATOM     31  C   UNL     1       0.950   4.595  -0.130  0.00  0.00    -0.057 C 
BRANCH  31  32
ATOM     32  C   UNL     1       1.209   5.880   0.447  0.00  0.00    +0.025 A 
ATOM     33  C   UNL     1       2.519   6.361   0.531  0.00  0.00    +0.017 A 
ATOM     34  C   UNL     1       2.761   7.600   1.087  0.00  0.00    +0.001 A 
ATOM     35  C   UNL     1       1.710   8.366   1.561  0.00  0.00    +0.000 A 
ATOM     36  C   UNL     1       0.411   7.897   1.481  0.00  0.00    +0.001 A 
ATOM     37  C   UNL     1       0.152   6.663   0.923  0.00  0.00    +0.017 A 
ENDBRANCH  31  32
ENDBRANCH  21  30
ENDBRANCH   1  20
TORSDOF 9
