REMARK  Name = ZINC33937363
REMARK  12 active torsions:
REMARK  status: ('A' for Active; 'I' for Inactive)
REMARK    1  A    between atoms: C_1  and  C_2
REMARK    2  A    between atoms: C_2  and  C_3
REMARK    3  A    between atoms: C_3  and  C_4
REMARK    4  A    between atoms: C_4  and  C_6
REMARK    5  A    between atoms: C_4  and  N_18
REMARK    6  A    between atoms: N_10  and  C_11
REMARK    7  A    between atoms: C_11  and  C_12
REMARK    8  A    between atoms: N_18  and  C_19
REMARK    9  A    between atoms: N_18  and  C_25
REMARK   10  A    between atoms: C_19  and  C_20
REMARK   11  A    between atoms: C_25  and  C_26
REMARK   12  A    between atoms: C_30  and  C_38
REMARK                            x       y       z     vdW  Elec       q    Type
REMARK                         _______ _______ _______ _____ _____    ______ ____
ROOT
ATOM      1  N   UNL     1      -0.466  -1.987  -1.871  0.00  0.00    +0.394 N 
ATOM      2  H   UNL     1      -1.151  -1.491  -2.420  0.00  0.00    -0.080 HD
ENDROOT
BRANCH   1   3
ATOM      3  C   UNL     1       0.871  -1.444  -2.148  0.00  0.00    +0.004 C 
BRANCH   3   4
ATOM      4  C   UNL     1       1.909  -2.279  -1.443  0.00  0.00    +0.138 A 
ATOM      5  N   UNL     1       1.942  -3.587  -1.369  0.00  0.00    -0.115 NA
ATOM      6  N   UNL     1       2.981  -3.920  -0.683  0.00  0.00    -0.023 NA
ATOM      7  N   UNL     1       3.611  -2.858  -0.318  0.00  0.00    -0.044 NA
ATOM      8  N   UNL     1       2.983  -1.825  -0.771  0.00  0.00    -0.228 N 
BRANCH   8   9
ATOM      9  C   UNL     1       3.367  -0.424  -0.587  0.00  0.00    +0.178 C 
BRANCH   9  10
ATOM     10  C   UNL     1       2.721   0.118   0.689  0.00  0.00    +0.140 C 
ATOM     11  C   UNL     1       3.186   1.573   0.952  0.00  0.00    +0.035 C 
ATOM     12  C   UNL     1       2.006   2.110   1.807  0.00  0.00    +0.031 C 
ATOM     13  C   UNL     1       0.797   1.367   1.200  0.00  0.00    +0.160 C 
ATOM     14  O   UNL     1       1.296   0.202   0.530  0.00  0.00    -0.375 OA
ENDBRANCH   9  10
ENDBRANCH   8   9
ENDBRANCH   3   4
BRANCH   3  15
ATOM     15  C   UNL     1       1.131  -1.474  -3.655  0.00  0.00    -0.008 C 
BRANCH  15  17
ATOM     16  C   UNL     1       0.450  -0.508  -5.857  0.00  0.00    +0.004 C 
ATOM     17  C   UNL     1       0.111  -0.582  -4.367  0.00  0.00    -0.005 C 
ENDBRANCH  15  17
ENDBRANCH   3  15
ENDBRANCH   1   3
BRANCH   1  18
ATOM     18  C   UNL     1      -0.497  -3.413  -2.222  0.00  0.00    -0.002 C 
BRANCH  18  19
ATOM     19  C   UNL     1      -1.903  -3.809  -2.594  0.00  0.00    +0.089 A 
ATOM     20  C   UNL     1      -2.478  -3.629  -3.796  0.00  0.00    +0.042 A 
ATOM     21  C   UNL     1      -3.792  -4.142  -3.702  0.00  0.00    +0.041 A 
ATOM     22  C   UNL     1      -3.941  -4.604  -2.448  0.00  0.00    +0.195 A 
ATOM     23  O   UNL     1      -2.792  -4.405  -1.783  0.00  0.00    -0.470 OA
ENDBRANCH  18  19
ENDBRANCH   1  18
BRANCH   1  24
ATOM     24  C   UNL     1      -0.773  -1.827  -0.444  0.00  0.00    -0.036 C 
BRANCH  24  25
ATOM     25  C   UNL     1      -2.204  -2.227  -0.190  0.00  0.00    +0.001 A 
ATOM     26  C   UNL     1      -2.476  -3.359   0.505  0.00  0.00    +0.017 A 
ATOM     27  C   UNL     1      -3.877  -3.719   0.735  0.00  0.00    -0.001 A 
ATOM     28  C   UNL     1      -4.220  -4.873   1.446  0.00  0.00    +0.013 A 
ATOM     29  C   UNL     1      -5.536  -5.181   1.643  0.00  0.00    -0.050 A 
ATOM     30  C   UNL     1      -6.536  -4.358   1.145  0.00  0.00    +0.005 A 
ATOM     31  C   UNL     1      -6.221  -3.215   0.441  0.00  0.00    +0.026 A 
ATOM     32  C   UNL     1      -4.888  -2.881   0.229  0.00  0.00    +0.049 A 
ATOM     33  N   UNL     1      -4.545  -1.744  -0.471  0.00  0.00    -0.322 N 
ATOM     34  H   UNL     1      -5.243  -1.168  -0.819  0.00  0.00    +0.169 HD
ATOM     35  C   UNL     1      -3.256  -1.419  -0.672  0.00  0.00    +0.251 A 
ATOM     36  O   UNL     1      -2.989  -0.403  -1.290  0.00  0.00    -0.268 OA
ATOM     37  C   UNL     1      -5.905  -6.426   2.409  0.00  0.00    +0.044 C 
ENDBRANCH  24  25
ENDBRANCH   1  24
TORSDOF 10
