REMARK  Name = ZINC03267549
REMARK  6 active torsions:
REMARK  status: ('A' for Active; 'I' for Inactive)
REMARK    1  A    between atoms: C_8  and  N_22
REMARK    2  A    between atoms: C_9  and  N_11
REMARK    3  A    between atoms: N_11  and  S_12
REMARK    4  A    between atoms: S_12  and  C_15
REMARK    5  A    between atoms: N_22  and  C_23
REMARK    6  A    between atoms: C_24  and  C_32
REMARK                            x       y       z     vdW  Elec       q    Type
REMARK                         _______ _______ _______ _____ _____    ______ ____
ROOT
ATOM      1  C   UNL     1       6.510  -1.086  -4.402  0.00  0.00    +0.002 A 
ATOM      2  C   UNL     1       6.521  -0.678  -3.071  0.00  0.00    +0.002 A 
ATOM      3  C   UNL     1       5.476  -0.960  -2.244  0.00  0.00    +0.030 A 
ATOM      4  C   UNL     1       4.369  -1.670  -2.737  0.00  0.00    +0.091 A 
ATOM      5  C   UNL     1       4.357  -2.083  -4.091  0.00  0.00    +0.091 A 
ATOM      6  C   UNL     1       5.453  -1.776  -4.914  0.00  0.00    +0.030 A 
ATOM      7  N   UNL     1       3.305  -2.761  -4.571  0.00  0.00    -0.227 NA
ATOM      8  C   UNL     1       2.288  -3.038  -3.780  0.00  0.00    +0.166 A 
ATOM      9  C   UNL     1       2.300  -2.624  -2.427  0.00  0.00    +0.179 A 
ATOM     10  N   UNL     1       3.325  -1.953  -1.944  0.00  0.00    -0.226 NA
ENDROOT
BRANCH   9  11
ATOM     11  N   UNL     1       1.223  -2.923  -1.606  0.00  0.00    -0.197 N 
ATOM     12  H   UNL     1       0.465  -3.413  -1.960  0.00  0.00    +0.175 HD
BRANCH  11  13
ATOM     13  S   UNL     1       1.231  -2.441  -0.022  0.00  0.00    +0.074 S 
ATOM     14  O   UNL     1       2.487  -2.833   0.515  0.00  0.00    -0.150 OA
ATOM     15  O   UNL     1      -0.003  -2.866   0.538  0.00  0.00    -0.150 OA
BRANCH  13  16
ATOM     16  C   UNL     1       1.208  -0.679  -0.013  0.00  0.00    +0.109 A 
ATOM     17  C   UNL     1       0.002  -0.004   0.002  0.00  0.00    +0.030 A 
ATOM     18  C   UNL     1      -0.017   1.378   0.010  0.00  0.00    +0.022 A 
ATOM     19  C   UNL     1       1.172   2.086   0.002  0.00  0.00    +0.041 A 
ATOM     20  C   UNL     1       2.379   1.409  -0.013  0.00  0.00    +0.022 A 
ATOM     21  C   UNL     1       2.397   0.027  -0.020  0.00  0.00    +0.030 A 
ATOM     22 CL   UNL     1       1.149   3.821   0.011  0.00  0.00    -0.084 Cl
ENDBRANCH  13  16
ENDBRANCH  11  13
ENDBRANCH   9  11
BRANCH   8  23
ATOM     23  N   UNL     1       1.199  -3.740  -4.278  0.00  0.00    -0.290 N 
ATOM     24  H   UNL     1       0.449  -3.946  -3.698  0.00  0.00    +0.154 HD
BRANCH  23  25
ATOM     25  C   UNL     1       1.183  -4.147  -5.601  0.00  0.00    +0.089 A 
ATOM     26  C   UNL     1       0.195  -4.851  -6.275  0.00  0.00    +0.084 A 
ATOM     27  C   UNL     1       0.426  -5.156  -7.677  0.00  0.00    -0.018 A 
ATOM     28  C   UNL     1       1.600  -4.712  -8.177  0.00  0.00    -0.004 A 
ATOM     29  S   UNL     1       2.389  -3.894  -6.820  0.00  0.00    -0.077 S 
ATOM     30  C   UNL     1       2.106  -4.878  -9.577  0.00  0.00    +0.043 C 
ATOM     31  C   UNL     1       1.260  -5.955 -10.272  0.00  0.00    +0.005 C 
ATOM     32  C   UNL     1      -0.221  -5.658 -10.020  0.00  0.00    +0.005 C 
ATOM     33  C   UNL     1      -0.561  -5.919  -8.552  0.00  0.00    +0.037 C 
BRANCH  26  34
ATOM     34  C   UNL     1      -1.007  -5.261  -5.614  0.00  0.00    +0.102 C 
ATOM     35  N   UNL     1      -1.960  -5.586  -5.089  0.00  0.00    -0.191 NA
ENDBRANCH  26  34
ENDBRANCH  23  25
ENDBRANCH   8  23
TORSDOF 6
