REMARK  Name = ZINC17458116
REMARK  6 active torsions:
REMARK  status: ('A' for Active; 'I' for Inactive)
REMARK    1  A    between atoms: C_1  and  C_2
REMARK    2  A    between atoms: C_9  and  C_11
REMARK    3  A    between atoms: N_13  and  N_14
REMARK    4  A    between atoms: C_15  and  C_17
REMARK    5  A    between atoms: C_20  and  S_23
REMARK    6  A    between atoms: S_23  and  N_26
REMARK                            x       y       z     vdW  Elec       q    Type
REMARK                         _______ _______ _______ _____ _____    ______ ____
ROOT
ATOM      1  N   UNL     1      -2.918   4.280   5.434  0.00  0.00    -0.230 N 
ATOM      2  C   UNL     1      -3.119   3.065   4.886  0.00  0.00    +0.260 C 
ATOM      3  O   UNL     1      -3.927   2.303   5.379  0.00  0.00    -0.269 OA
ATOM      4  H   UNL     1      -2.273   4.889   5.040  0.00  0.00    +0.173 HD
ENDROOT
BRANCH   2   5
ATOM      5  C   UNL     1      -2.356   2.660   3.686  0.00  0.00    +0.038 A 
ATOM      6  C   UNL     1      -2.561   1.402   3.117  0.00  0.00    +0.015 A 
ATOM      7  C   UNL     1      -1.846   1.030   1.998  0.00  0.00    +0.029 A 
ATOM      8  C   UNL     1      -0.927   1.900   1.439  0.00  0.00    +0.106 A 
ATOM      9  C   UNL     1      -0.715   3.146   2.002  0.00  0.00    +0.029 A 
ATOM     10  C   UNL     1      -1.427   3.533   3.118  0.00  0.00    +0.015 A 
BRANCH   8  11
ATOM     11  S   UNL     1      -0.017   1.417   0.010  0.00  0.00    +0.061 S 
ATOM     12  O   UNL     1       0.002  -0.004   0.002  0.00  0.00    -0.153 OA
ATOM     13  O   UNL     1       1.172   2.195   0.003  0.00  0.00    -0.153 OA
BRANCH  11  14
ATOM     14  N   UNL     1      -0.897   1.885  -1.312  0.00  0.00    -0.177 NA
ATOM     15  C   UNL     1      -1.909   1.071  -2.000  0.00  0.00    +0.109 C 
ATOM     16  C   UNL     1      -2.444   1.906  -3.183  0.00  0.00    +0.018 C 
ATOM     17  C   UNL     1      -1.295   2.918  -3.438  0.00  0.00    +0.018 C 
ATOM     18  C   UNL     1      -0.792   3.186  -1.998  0.00  0.00    +0.109 C 
ENDBRANCH  11  14
ENDBRANCH   8  11
ENDBRANCH   2   5
BRANCH   1  21
ATOM     19  C   UNL     1      -3.440   5.880   7.118  0.00  0.00    +0.267 C 
ATOM     20  O   UNL     1      -2.631   6.643   6.624  0.00  0.00    -0.268 OA
ATOM     21  N   UNL     1      -3.641   4.665   6.571  0.00  0.00    -0.230 N 
ATOM     22  H   UNL     1      -4.286   4.056   6.964  0.00  0.00    +0.173 HD
BRANCH  19  30
ATOM     23  C   UNL     1      -5.819   9.831  13.127  0.00  0.00    +0.008 C 
ATOM     24  C   UNL     1      -5.628   8.542  12.325  0.00  0.00    -0.009 C 
ATOM     25  C   UNL     1      -6.986   7.868  12.112  0.00  0.00    +0.009 C 
ATOM     26  C   UNL     1      -6.755   6.457  11.552  0.00  0.00    +0.043 C 
ATOM     27  C   UNL     1      -5.779   6.553  10.420  0.00  0.00    -0.006 A 
ATOM     28  C   UNL     1      -4.968   7.610  10.119  0.00  0.00    -0.036 A 
ATOM     29  C   UNL     1      -4.142   7.468   9.015  0.00  0.00    +0.024 A 
ATOM     30  C   UNL     1      -4.197   6.282   8.307  0.00  0.00    +0.076 A 
ATOM     31  S   UNL     1      -5.434   5.371   9.216  0.00  0.00    -0.088 S 
ATOM     32  C   UNL     1      -4.992   8.874  10.975  0.00  0.00    +0.039 C 
ENDBRANCH  19  30
ENDBRANCH   1  21
TORSDOF 5
