REMARK  Name = ZINC08582593
REMARK  14 active torsions:
REMARK  status: ('A' for Active; 'I' for Inactive)
REMARK    1  A    between atoms: C_1  and  C_2
REMARK    2  A    between atoms: C_2  and  C_3
REMARK    3  A    between atoms: C_3  and  C_5
REMARK    4  A    between atoms: C_3  and  N_67
REMARK    5  A    between atoms: N_9  and  C_10
REMARK    6  A    between atoms: C_10  and  C_11
REMARK    7  A    between atoms: C_16  and  C_17
REMARK    8  A    between atoms: C_16  and  N_67
REMARK    9  A    between atoms: C_22  and  O_23
REMARK   10  A    between atoms: O_23  and  C_24
REMARK   11  A    between atoms: C_25  and  C_26
REMARK   12  A    between atoms: C_25  and  N_67
REMARK   13  A    between atoms: C_30  and  C_37
REMARK   14  A    between atoms: C_35  and  O_36
REMARK                            x       y       z     vdW  Elec       q    Type
REMARK                         _______ _______ _______ _____ _____    ______ ____
ROOT
ATOM      1  N   UNL     1       0.966   3.289  -1.246  0.00  0.00    +0.392 N 
ATOM      2  H   UNL     1       0.629   3.079  -2.193  0.00  0.00    -0.080 HD
ENDROOT
BRANCH   1   3
ATOM      3  C   UNL     1       1.827   2.179  -0.786  0.00  0.00    +0.003 C 
BRANCH   3   4
ATOM      4  C   UNL     1       1.140   0.873  -1.095  0.00  0.00    +0.139 A 
ATOM      5  N   UNL     1      -0.118   0.579  -0.873  0.00  0.00    -0.115 NA
ATOM      6  N   UNL     1      -0.321  -0.628  -1.273  0.00  0.00    -0.023 NA
ATOM      7  N   UNL     1       0.775  -1.112  -1.745  0.00  0.00    -0.044 NA
ATOM      8  N   UNL     1       1.699  -0.217  -1.652  0.00  0.00    -0.223 N 
BRANCH   8   9
ATOM      9  C   UNL     1       3.095  -0.359  -2.075  0.00  0.00    +0.221 C 
BRANCH   9  10
ATOM     10  C   UNL     1       3.231   0.077  -3.511  0.00  0.00    +0.126 A 
ATOM     11  C   UNL     1       3.502   1.326  -3.931  0.00  0.00    +0.046 A 
ATOM     12  C   UNL     1       3.542   1.283  -5.344  0.00  0.00    +0.041 A 
ATOM     13  C   UNL     1       3.286   0.012  -5.703  0.00  0.00    +0.195 A 
ATOM     14  O   UNL     1       3.098  -0.714  -4.588  0.00  0.00    -0.466 OA
ENDBRANCH   9  10
ENDBRANCH   8   9
ENDBRANCH   3   4
BRANCH   3  16
ATOM     15  C   UNL     1       3.025   1.165   1.158  0.00  0.00    +0.002 C 
ATOM     16  C   UNL     1       2.075   2.281   0.720  0.00  0.00    -0.011 C 
ENDBRANCH   3  16
ENDBRANCH   1   3
BRANCH   1  17
ATOM     17  C   UNL     1      -0.195   3.434  -0.344  0.00  0.00    -0.038 C 
BRANCH  17  18
ATOM     18  C   UNL     1      -1.247   4.260  -1.039  0.00  0.00    -0.022 A 
ATOM     19  C   UNL     1      -1.527   5.538  -0.595  0.00  0.00    +0.005 A 
ATOM     20  C   UNL     1      -2.488   6.298  -1.236  0.00  0.00    +0.000 A 
ATOM     21  C   UNL     1      -3.179   5.778  -2.315  0.00  0.00    +0.004 A 
ATOM     22  C   UNL     1      -2.906   4.499  -2.759  0.00  0.00    +0.046 A 
ATOM     23  C   UNL     1      -1.938   3.736  -2.121  0.00  0.00    +0.121 A 
BRANCH  23  24
ATOM     24  O   UNL     1      -1.669   2.477  -2.555  0.00  0.00    -0.495 OA
ATOM     25  C   UNL     1      -2.420   2.002  -3.675  0.00  0.00    +0.277 C 
ENDBRANCH  23  24
ENDBRANCH  17  18
ENDBRANCH   1  17
BRANCH   1  26
ATOM     26  C   UNL     1       1.740   4.547  -1.281  0.00  0.00    -0.036 C 
BRANCH  26  27
ATOM     27  C   UNL     1       1.015   5.537  -2.156  0.00  0.00    -0.002 A 
ATOM     28  C   UNL     1       0.726   6.783  -1.684  0.00  0.00    +0.017 A 
ATOM     29  C   UNL     1       0.047   7.677  -2.535  0.00  0.00    +0.001 A 
ATOM     30  C   UNL     1      -0.282   8.975  -2.114  0.00  0.00    +0.013 A 
ATOM     31  C   UNL     1      -0.940   9.812  -2.964  0.00  0.00    -0.050 A 
ATOM     32  C   UNL     1      -1.290   9.397  -4.247  0.00  0.00    +0.005 A 
ATOM     33  C   UNL     1      -0.987   8.145  -4.687  0.00  0.00    +0.029 A 
ATOM     34  C   UNL     1      -0.309   7.253  -3.838  0.00  0.00    +0.075 A 
ATOM     35  N   UNL     1       0.001   6.016  -4.245  0.00  0.00    -0.213 NA
ATOM     36  C   UNL     1       0.641   5.179  -3.457  0.00  0.00    +0.214 A 
ATOM     37  C   UNL     1      -1.292  11.206  -2.511  0.00  0.00    +0.044 C 
BRANCH  36  38
ATOM     38  O   UNL     1       0.940   3.938  -3.914  0.00  0.00    -0.492 OA
ATOM     39  H   UNL     1       0.253   3.280  -3.742  0.00  0.00    +0.294 HD
ENDBRANCH  36  38
ENDBRANCH  26  27
ENDBRANCH   1  26
TORSDOF 11
