REMARK  Name = ZINC44709892
REMARK  14 active torsions:
REMARK  status: ('A' for Active; 'I' for Inactive)
REMARK    1  A    between atoms: C_1  and  C_2
REMARK    2  A    between atoms: C_11  and  O_12
REMARK    3  A    between atoms: O_12  and  C_13
REMARK    4  A    between atoms: C_13  and  C_14
REMARK    5  A    between atoms: C_14  and  C_16
REMARK    6  A    between atoms: C_14  and  O_36
REMARK    7  A    between atoms: C_16  and  N_17
REMARK    8  A    between atoms: N_17  and  C_18
REMARK    9  A    between atoms: C_18  and  C_20
REMARK   10  A    between atoms: C_18  and  C_21
REMARK   11  A    between atoms: C_21  and  C_22
REMARK   12  A    between atoms: C_22  and  N_23
REMARK   13  A    between atoms: N_30  and  C_35
REMARK   14  A    between atoms: N_33  and  C_34
REMARK                            x       y       z     vdW  Elec       q    Type
REMARK                         _______ _______ _______ _____ _____    ______ ____
ROOT
ATOM      1  N   UNL     1      -5.883  -3.972  -4.704  0.00  0.00    +0.383 N 
ATOM      2  H   UNL     1      -6.547  -4.151  -3.966  0.00  0.00    -0.085 HD
ATOM      3  H   UNL     1      -5.904  -2.992  -4.945  0.00  0.00    -0.085 HD
ENDROOT
BRANCH   1   4
ATOM      4  C   UNL     1      -6.233  -4.774  -5.883  0.00  0.00    -0.073 C 
ATOM      5  C   UNL     1      -6.322  -6.250  -5.488  0.00  0.00    -0.014 C 
BRANCH   4   6
ATOM      6  C   UNL     1      -7.584  -4.311  -6.433  0.00  0.00    +0.006 C 
BRANCH   6   7
ATOM      7  C   UNL     1      -7.460  -2.873  -6.943  0.00  0.00    +0.122 C 
BRANCH   7   8
ATOM      8  N   UNL     1      -8.754  -2.430  -7.469  0.00  0.00    -0.325 N 
ATOM      9  C   UNL     1      -9.156  -2.478  -8.754  0.00  0.00    +0.202 A 
ATOM     10  N   UNL     1     -10.369  -1.997  -8.856  0.00  0.00    -0.218 NA
ATOM     11  C   UNL     1     -10.807  -1.617  -7.653  0.00  0.00    +0.168 A 
ATOM     12  C   UNL     1      -9.794  -1.888  -6.741  0.00  0.00    +0.151 A 
ATOM     13  C   UNL     1      -9.998  -1.585  -5.378  0.00  0.00    +0.282 A 
ATOM     14  O   UNL     1      -9.123  -1.810  -4.560  0.00  0.00    -0.265 OA
ATOM     15  N   UNL     1     -11.171  -1.044  -4.991  0.00  0.00    -0.262 N 
ATOM     16  C   UNL     1     -12.144  -0.790  -5.883  0.00  0.00    +0.333 A 
ATOM     17  O   UNL     1     -13.189  -0.301  -5.498  0.00  0.00    -0.246 OA
ATOM     18  N   UNL     1     -11.988  -1.056  -7.194  0.00  0.00    -0.280 N 
ATOM     19  C   UNL     1     -13.073  -0.766  -8.133  0.00  0.00    +0.155 C 
ATOM     20  C   UNL     1     -11.389  -0.728  -3.577  0.00  0.00    +0.157 C 
ENDBRANCH   7   8
ENDBRANCH   6   7
ENDBRANCH   4   6
ENDBRANCH   1   4
BRANCH   1  21
ATOM     21  C   UNL     1      -4.534  -4.334  -4.248  0.00  0.00    -0.047 C 
BRANCH  21  22
ATOM     22  C   UNL     1      -4.169  -3.498  -3.020  0.00  0.00    +0.135 C 
BRANCH  22  23
ATOM     23  O   UNL     1      -5.038  -3.838  -1.937  0.00  0.00    -0.390 OA
ATOM     24  H   UNL     1      -4.993  -4.767  -1.674  0.00  0.00    +0.210 HD
ENDBRANCH  22  23
BRANCH  22  25
ATOM     25  C   UNL     1      -2.720  -3.785  -2.620  0.00  0.00    +0.258 C 
BRANCH  25  26
ATOM     26  O   UNL     1      -2.342  -2.921  -1.546  0.00  0.00    -0.493 OA
BRANCH  26  36
ATOM     27  C   UNL     1      -0.018   1.503   0.010  0.00  0.00    +0.065 C 
ATOM     28  C   UNL     1       0.002  -0.004   0.002  0.00  0.00    +0.036 C 
ATOM     29  C   UNL     1      -1.101  -0.762   0.003  0.00  0.00    +0.013 C 
ATOM     30  C   UNL     1      -0.602  -2.180   0.055  0.00  0.00    +0.127 C 
ATOM     31  C   UNL     1       0.902  -2.008  -0.100  0.00  0.00    +0.056 C 
ATOM     32  N   UNL     1       1.132  -0.736  -0.013  0.00  0.00    -0.256 NA
ATOM     33  C   UNL     1       1.732  -3.086  -0.450  0.00  0.00    +0.024 C 
ATOM     34  C   UNL     1       1.131  -4.071  -1.190  0.00  0.00    +0.005 C 
ATOM     35  C   UNL     1      -0.207  -3.944  -1.606  0.00  0.00    +0.042 C 
ATOM     36  C   UNL     1      -1.084  -3.047  -1.072  0.00  0.00    +0.110 C 
ENDBRANCH  26  36
ENDBRANCH  25  26
ENDBRANCH  22  25
ENDBRANCH  21  22
ENDBRANCH   1  21
TORSDOF 10
