REMARK  Name = ZINC59433806
REMARK  14 active torsions:
REMARK  status: ('A' for Active; 'I' for Inactive)
REMARK    1  A    between atoms: C_1  and  C_2
REMARK    2  A    between atoms: C_5  and  N_8
REMARK    3  A    between atoms: C_9  and  C_34
REMARK    4  A    between atoms: C_11  and  C_14
REMARK    5  A    between atoms: C_12  and  C_13
REMARK    6  A    between atoms: N_15  and  N_16
REMARK    7  A    between atoms: C_17  and  C_19
REMARK    8  A    between atoms: C_19  and  O_20
REMARK    9  A    between atoms: O_20  and  C_21
REMARK   10  A    between atoms: C_22  and  C_32
REMARK   11  A    between atoms: C_23  and  C_29
REMARK   12  A    between atoms: C_25  and  C_27
REMARK   13  A    between atoms: C_29  and  O_30
REMARK   14  A    between atoms: O_30  and  C_31
REMARK                            x       y       z     vdW  Elec       q    Type
REMARK                         _______ _______ _______ _____ _____    ______ ____
ROOT
ATOM      1  N   UNL     1       3.482  -8.394   1.528  0.00  0.00    -0.204 N 
ATOM      2  C   UNL     1       4.694  -8.231   2.095  0.00  0.00    +0.270 C 
ATOM      3  O   UNL     1       5.120  -7.115   2.307  0.00  0.00    -0.270 OA
ATOM      4  H   UNL     1       3.142  -9.286   1.359  0.00  0.00    +0.177 HD
ENDROOT
BRANCH   1   6
ATOM      5  C   UNL     1       1.548  -7.431   0.636  0.00  0.00    +0.140 C 
ATOM      6  N   UNL     1       2.715  -7.274   1.182  0.00  0.00    -0.188 NA
BRANCH   5  10
ATOM      7  N   UNL     1       0.059  -4.172  -0.021  0.00  0.00    -0.317 N 
ATOM      8  C   UNL     1      -0.945  -4.966  -0.498  0.00  0.00    +0.022 A 
ATOM      9  C   UNL     1      -0.589  -6.255  -0.347  0.00  0.00    +0.032 A 
ATOM     10  C   UNL     1       0.740  -6.253   0.272  0.00  0.00    +0.016 A 
ATOM     11  C   UNL     1       1.081  -4.941   0.441  0.00  0.00    +0.030 A 
ATOM     12  C   UNL     1       2.369  -4.434   1.038  0.00  0.00    +0.064 C 
ATOM     13  C   UNL     1      -2.240  -4.478  -1.095  0.00  0.00    +0.064 C 
BRANCH   7  18
ATOM     14  C   UNL     1      -0.018   1.503   0.010  0.00  0.00    +0.044 C 
ATOM     15  C   UNL     1       0.002  -0.004   0.002  0.00  0.00    -0.050 A 
ATOM     16  C   UNL     1       0.006  -0.688  -1.200  0.00  0.00    +0.005 A 
ATOM     17  C   UNL     1       0.025  -2.068  -1.211  0.00  0.00    +0.026 A 
ATOM     18  C   UNL     1       0.040  -2.771  -0.013  0.00  0.00    +0.047 A 
ATOM     19  C   UNL     1       0.037  -2.082   1.192  0.00  0.00    +0.026 A 
ATOM     20  C   UNL     1       0.023  -0.700   1.196  0.00  0.00    +0.005 A 
ENDBRANCH   7  18
ENDBRANCH   5  10
ENDBRANCH   1   6
BRANCH   2  21
ATOM     21  C   UNL     1       5.520  -9.435   2.467  0.00  0.00    +0.328 C 
BRANCH  21  22
ATOM     22  O   UNL     1       6.753  -9.006   3.047  0.00  0.00    -0.466 OA
BRANCH  22  23
ATOM     23  C   UNL     1       7.618  -9.973   3.439  0.00  0.00    +0.234 A 
ATOM     24  C   UNL     1       8.844  -9.617   4.022  0.00  0.00    +0.120 A 
ATOM     25  C   UNL     1       9.721 -10.633   4.420  0.00  0.00    +0.016 A 
ATOM     26  C   UNL     1       9.338 -11.948   4.220  0.00  0.00    +0.046 A 
ATOM     27  C   UNL     1       8.112 -12.219   3.639  0.00  0.00    +0.056 A 
ATOM     28  N   UNL     1       7.299 -11.245   3.276  0.00  0.00    -0.216 NA
ATOM     29  C   UNL     1       7.695 -13.650   3.421  0.00  0.00    +0.067 C 
ATOM     30 BR   UNL     1      10.481 -13.364   4.737  0.00  0.00    -0.048 Br
BRANCH  24  31
ATOM     31  C   UNL     1       9.192  -8.241   4.206  0.00  0.00    +0.105 C 
ATOM     32  N   UNL     1       9.467  -7.148   4.352  0.00  0.00    -0.191 NA
ENDBRANCH  24  31
BRANCH  25  33
ATOM     33  C   UNL     1      11.050 -10.303   5.050  0.00  0.00    +0.197 C 
BRANCH  33  34
ATOM     34  O   UNL     1      10.896 -10.216   6.468  0.00  0.00    -0.378 OA
ATOM     35  C   UNL     1      12.104  -9.905   7.166  0.00  0.00    +0.194 C 
ENDBRANCH  33  34
ENDBRANCH  25  33
ENDBRANCH  22  23
ENDBRANCH  21  22
ENDBRANCH   2  21
TORSDOF 9
