REMARK  Name = ZINC39881858
REMARK  7 active torsions:
REMARK  status: ('A' for Active; 'I' for Inactive)
REMARK    1  A    between atoms: C_1  and  C_2
REMARK    2  A    between atoms: C_2  and  O_3
REMARK    3  A    between atoms: O_3  and  C_4
REMARK    4  A    between atoms: C_4  and  C_6
REMARK    5  A    between atoms: C_9  and  N_12
REMARK    6  A    between atoms: C_13  and  C_15
REMARK    7  A    between atoms: C_15  and  N_16
REMARK                            x       y       z     vdW  Elec       q    Type
REMARK                         _______ _______ _______ _____ _____    ______ ____
ROOT
ATOM      1  N   UNL     1       4.410  -7.235  -7.057  0.00  0.00    -0.288 N 
ATOM      2  C   UNL     1       5.436  -7.832  -6.364  0.00  0.00    +0.090 A 
ATOM      3  C   UNL     1       5.387  -9.183  -6.331  0.00  0.00    +0.033 A 
ATOM      4  S   UNL     1       3.933  -9.561  -7.272  0.00  0.00    -0.030 S 
ATOM      5  C   UNL     1       3.459  -7.990  -7.638  0.00  0.00    +0.292 A 
ATOM      6  O   UNL     1       2.488  -7.623  -8.276  0.00  0.00    -0.259 OA
ATOM      7  C   UNL     1       6.323 -10.109  -5.652  0.00  0.00    +0.076 C 
ATOM      8  C   UNL     1       6.470 -11.442  -6.321  0.00  0.00    +0.004 A 
ATOM      9  C   UNL     1       5.412 -11.966  -7.042  0.00  0.00    +0.008 A 
ATOM     10  C   UNL     1       5.526 -13.198  -7.655  0.00  0.00    +0.001 A 
ATOM     11  C   UNL     1       6.705 -13.915  -7.548  0.00  0.00    +0.004 A 
ATOM     12  C   UNL     1       7.766 -13.396  -6.835  0.00  0.00    +0.046 A 
ATOM     13  C   UNL     1       7.658 -12.152  -6.222  0.00  0.00    +0.135 A 
ATOM     14  O   UNL     1       8.739 -11.664  -5.554  0.00  0.00    -0.425 OA
ATOM     15  C   UNL     1       8.603 -10.513  -4.858  0.00  0.00    +0.317 C 
ATOM     16  O   UNL     1       9.172 -10.331  -3.808  0.00  0.00    -0.250 OA
ATOM     17  C   UNL     1       7.703  -9.475  -5.480  0.00  0.00    +0.121 C 
ATOM     18  C   UNL     1       7.582  -8.235  -4.596  0.00  0.00    +0.091 C 
ATOM     19  S   UNL     1       6.755  -6.937  -5.571  0.00  0.00    -0.106 S 
ENDROOT
BRANCH   1  20
ATOM     20  C   UNL     1       4.348  -5.775  -7.158  0.00  0.00    +0.222 C 
BRANCH  20  22
ATOM     21  N   UNL     1       3.368  -3.894  -5.884  0.00  0.00    -0.284 N 
ATOM     22  C   UNL     1       3.557  -5.224  -5.999  0.00  0.00    +0.237 C 
ATOM     23  O   UNL     1       3.091  -5.977  -5.171  0.00  0.00    -0.274 OA
ATOM     24  H   UNL     1       3.674  -3.298  -6.586  0.00  0.00    +0.155 HD
BRANCH  21  28
ATOM     25  C   UNL     1       1.470  -2.345  -2.516  0.00  0.00    +0.059 A 
ATOM     26  C   UNL     1       2.279  -3.480  -2.405  0.00  0.00    +0.017 A 
ATOM     27  C   UNL     1       2.904  -3.989  -3.520  0.00  0.00    +0.024 A 
ATOM     28  C   UNL     1       2.732  -3.376  -4.757  0.00  0.00    +0.033 A 
ATOM     29  C   UNL     1       1.929  -2.246  -4.872  0.00  0.00    +0.024 A 
ATOM     30  C   UNL     1       1.295  -1.735  -3.762  0.00  0.00    +0.017 A 
BRANCH  25  31
ATOM     31  C   UNL     1       0.797  -1.796  -1.323  0.00  0.00    +0.339 C 
ATOM     32  O   UNL     1       0.091  -0.813  -1.423  0.00  0.00    -0.245 OA
BRANCH  31  33
ATOM     33  O   UNL     1       0.967  -2.386  -0.124  0.00  0.00    -0.461 OA
BRANCH  33  35
ATOM     34  C   UNL     1       0.597  -2.601   2.255  0.00  0.00    +0.048 C 
ATOM     35  C   UNL     1       0.286  -1.801   0.988  0.00  0.00    +0.229 C 
ENDBRANCH  33  35
ENDBRANCH  31  33
ENDBRANCH  25  31
ENDBRANCH  21  28
ENDBRANCH  20  22
ENDBRANCH   1  20
TORSDOF 6
