REMARK  Name = ZINC38981258
REMARK  5 active torsions:
REMARK  status: ('A' for Active; 'I' for Inactive)
REMARK    1  A    between atoms: C_4  and  C_7
REMARK    2  A    between atoms: C_9  and  C_13
REMARK    3  A    between atoms: C_17  and  S_31
REMARK    4  A    between atoms: N_19  and  N_20
REMARK    5  A    between atoms: C_21  and  C_22
REMARK                            x       y       z     vdW  Elec       q    Type
REMARK                         _______ _______ _______ _____ _____    ______ ____
ROOT
ATOM      1  C   UNL     1       5.763  -2.987  -1.332  0.00  0.00    +0.206 C 
ATOM      2  N   UNL     1       5.043  -4.278  -1.431  0.00  0.00    -0.231 NA
ATOM      3  N   UNL     1       6.037  -5.209  -1.989  0.00  0.00    -0.225 NA
ATOM      4  C   UNL     1       7.300  -4.783  -1.330  0.00  0.00    +0.231 C 
ATOM      5  N   UNL     1       7.199  -3.310  -1.268  0.00  0.00    -0.207 N 
ATOM      6  H   UNL     1       4.728  -4.587  -0.524  0.00  0.00    +0.143 HD
ATOM      7  H   UNL     1       6.102  -5.112  -2.991  0.00  0.00    +0.143 HD
ENDROOT
BRANCH   1  10
ATOM      8  C   UNL     1       3.699  -0.689  -0.037  0.00  0.00    +0.091 C 
ATOM      9  C   UNL     1       3.832  -2.029  -0.051  0.00  0.00    +0.034 C 
ATOM     10  C   UNL     1       5.335  -2.245  -0.065  0.00  0.00    +0.190 C 
ATOM     11  N   UNL     1       5.871  -0.874  -0.056  0.00  0.00    -0.176 NA
ATOM     12  N   UNL     1       4.919  -0.090  -0.047  0.00  0.00    -0.154 NA
BRANCH   8  16
ATOM     13  C   UNL     1      -0.017   1.379   0.010  0.00  0.00    +0.000 A 
ATOM     14  C   UNL     1       1.169   2.092   0.002  0.00  0.00    +0.001 A 
ATOM     15  C   UNL     1       2.377   1.426  -0.013  0.00  0.00    +0.010 A 
ATOM     16  C   UNL     1       2.402   0.033  -0.021  0.00  0.00    +0.002 A 
ATOM     17  C   UNL     1       1.205  -0.680  -0.013  0.00  0.00    +0.010 A 
ATOM     18  C   UNL     1       0.002  -0.004   0.002  0.00  0.00    +0.001 A 
ENDBRANCH   8  16
ENDBRANCH   1  10
BRANCH   5  19
ATOM     19  N   UNL     1       8.175  -2.471  -1.176  0.00  0.00    -0.188 NA
ATOM     20  C   UNL     1       9.412  -2.907  -1.128  0.00  0.00    +0.136 C 
BRANCH  20  21
ATOM     21  C   UNL     1      10.469  -1.998  -1.028  0.00  0.00    +0.000 C 
ATOM     22  C   UNL     1      11.833  -2.293  -0.972  0.00  0.00    +0.004 A 
ATOM     23  C   UNL     1      12.547  -3.509  -0.996  0.00  0.00    +0.010 A 
ATOM     24  C   UNL     1      13.903  -3.496  -0.926  0.00  0.00    +0.001 A 
ATOM     25  C   UNL     1      14.618  -2.301  -0.830  0.00  0.00    +0.002 A 
ATOM     26  C   UNL     1      13.998  -1.096  -0.802  0.00  0.00    +0.026 A 
ATOM     27  C   UNL     1      12.582  -1.030  -0.871  0.00  0.00    +0.043 A 
ATOM     28  N   UNL     1      11.755  -0.003  -0.863  0.00  0.00    -0.380 N 
ATOM     29  C   UNL     1      10.376  -0.490  -0.964  0.00  0.00    +0.150 C 
ATOM     30  H   UNL     1      12.019   0.929  -0.803  0.00  0.00    +0.160 HD
ENDBRANCH  20  21
ENDBRANCH   5  19
BRANCH   4  31
ATOM     31  S   UNL     1       7.413  -5.486   0.339  0.00  0.00    -0.138 S 
ATOM     32  H   UNL     1       7.415  -6.815   0.133  0.00  0.00    +0.105 HD
ENDBRANCH   4  31
TORSDOF 5
