REMARK  Name = ZINC63707958
REMARK  7 active torsions:
REMARK  status: ('A' for Active; 'I' for Inactive)
REMARK    1  A    between atoms: C_4  and  C_7
REMARK    2  A    between atoms: C_7  and  N_8
REMARK    3  A    between atoms: C_9  and  C_11
REMARK    4  A    between atoms: C_11  and  S_12
REMARK    5  A    between atoms: S_12  and  C_13
REMARK    6  A    between atoms: C_23  and  C_28
REMARK    7  A    between atoms: C_28  and  C_29
REMARK                            x       y       z     vdW  Elec       q    Type
REMARK                         _______ _______ _______ _____ _____    ______ ____
ROOT
ATOM      1  C   UNL     1       7.737  -2.955   4.667  0.00  0.00    +0.169 C 
ATOM      2  N   UNL     1       6.903  -2.494   5.559  0.00  0.00    -0.225 NA
ATOM      3  C   UNL     1       7.128  -2.619   6.892  0.00  0.00    +0.077 A 
ATOM      4  C   UNL     1       6.222  -2.118   7.830  0.00  0.00    +0.028 A 
ATOM      5  C   UNL     1       6.483  -2.264   9.175  0.00  0.00    +0.002 A 
ATOM      6  C   UNL     1       7.636  -2.902   9.611  0.00  0.00    +0.001 A 
ATOM      7  C   UNL     1       8.544  -3.403   8.701  0.00  0.00    +0.013 A 
ATOM      8  C   UNL     1       8.297  -3.266   7.339  0.00  0.00    +0.041 A 
ATOM      9  C   UNL     1       9.241  -3.788   6.327  0.00  0.00    +0.139 C 
ATOM     10  N   UNL     1      10.374  -4.415   6.474  0.00  0.00    -0.255 NA
ATOM     11  C   UNL     1      10.904  -4.707   5.135  0.00  0.00    +0.198 C 
ATOM     12  C   UNL     1       9.864  -4.131   4.197  0.00  0.00    +0.252 C 
ATOM     13  O   UNL     1       9.884  -4.141   2.985  0.00  0.00    -0.272 OA
ATOM     14  N   UNL     1       8.906  -3.609   4.996  0.00  0.00    -0.200 N 
ENDROOT
BRANCH   1  15
ATOM     15  S   UNL     1       7.347  -2.738   2.963  0.00  0.00    -0.080 S 
BRANCH  15  16
ATOM     16  C   UNL     1       5.764  -1.853   2.984  0.00  0.00    +0.172 C 
BRANCH  16  18
ATOM     17  N   UNL     1       4.152  -0.952   1.338  0.00  0.00    -0.311 N 
ATOM     18  C   UNL     1       5.311  -1.601   1.569  0.00  0.00    +0.224 C 
ATOM     19  O   UNL     1       5.989  -1.981   0.638  0.00  0.00    -0.275 OA
ATOM     20  H   UNL     1       3.610  -0.648   2.082  0.00  0.00    +0.149 HD
BRANCH  17  21
ATOM     21  C   UNL     1       3.711  -0.707  -0.038  0.00  0.00    +0.139 C 
BRANCH  21  25
ATOM     22  C   UNL     1      -0.017   1.378   0.010  0.00  0.00    +0.000 A 
ATOM     23  C   UNL     1       1.171   2.086   0.002  0.00  0.00    +0.000 A 
ATOM     24  C   UNL     1       2.377   1.411  -0.013  0.00  0.00    +0.005 A 
ATOM     25  C   UNL     1       2.396   0.029  -0.020  0.00  0.00    -0.030 A 
ATOM     26  C   UNL     1       1.208  -0.679  -0.012  0.00  0.00    +0.005 A 
ATOM     27  C   UNL     1       0.002  -0.004   0.002  0.00  0.00    +0.000 A 
ENDBRANCH  21  25
ENDBRANCH  17  21
ENDBRANCH  16  18
ENDBRANCH  15  16
ENDBRANCH   1  15
BRANCH  11  28
ATOM     28  C   UNL     1      12.255  -4.020   4.930  0.00  0.00    +0.069 C 
BRANCH  28  29
ATOM     29  C   UNL     1      13.275  -4.631   5.856  0.00  0.00    -0.039 C 
ATOM     30  C   UNL     1      14.148  -5.622   5.564  0.00  0.00    -0.001 A 
ATOM     31  C   UNL     1      14.399  -6.398   4.344  0.00  0.00    +0.010 A 
ATOM     32  C   UNL     1      15.362  -7.348   4.357  0.00  0.00    +0.001 A 
ATOM     33  C   UNL     1      16.125  -7.608   5.504  0.00  0.00    +0.002 A 
ATOM     34  C   UNL     1      15.952  -6.937   6.662  0.00  0.00    +0.026 A 
ATOM     35  C   UNL     1      14.967  -5.916   6.761  0.00  0.00    +0.043 A 
ATOM     36  N   UNL     1      14.614  -5.138   7.755  0.00  0.00    -0.380 N 
ATOM     37  C   UNL     1      13.534  -4.256   7.298  0.00  0.00    +0.144 C 
ATOM     38  H   UNL     1      15.004  -5.141   8.643  0.00  0.00    +0.160 HD
ENDBRANCH  28  29
ENDBRANCH  11  28
TORSDOF 7
