REMARK  Name = ZINC12402122
REMARK  9 active torsions:
REMARK  status: ('A' for Active; 'I' for Inactive)
REMARK    1  A    between atoms: C_1  and  C_2
REMARK    2  A    between atoms: C_2  and  C_15
REMARK    3  A    between atoms: C_4  and  C_7
REMARK    4  A    between atoms: C_10  and  O_13
REMARK    5  A    between atoms: O_13  and  C_14
REMARK    6  A    between atoms: C_20  and  C_35
REMARK    7  A    between atoms: C_24  and  C_27
REMARK    8  A    between atoms: C_30  and  O_33
REMARK    9  A    between atoms: O_33  and  C_34
REMARK                            x       y       z     vdW  Elec       q    Type
REMARK                         _______ _______ _______ _____ _____    ______ ____
ROOT
ATOM      1  C   UNL     1      -1.177   3.222   1.973  0.00  0.00    +0.046 C 
ATOM      2  C   UNL     1       0.140   3.580   1.296  0.00  0.00    +0.056 C 
ATOM      3  C   UNL     1       0.298   5.059   1.062  0.00  0.00    +0.224 C 
ATOM      4  C   UNL     1      -0.908   5.755   0.431  0.00  0.00    +0.111 C 
ATOM      5  C   UNL     1      -2.213   5.131   0.829  0.00  0.00    +0.149 C 
ATOM      6  O   UNL     1      -3.187   5.832   0.970  0.00  0.00    -0.296 OA
ATOM      7  C   UNL     1      -2.330   3.647   1.055  0.00  0.00    +0.083 C 
ATOM      8  C   UNL     1      -0.836   7.146   1.049  0.00  0.00    +0.104 C 
ATOM      9  N   UNL     1      -0.059   7.082   2.080  0.00  0.00    -0.088 NA
ATOM     10  O   UNL     1       0.458   5.781   2.297  0.00  0.00    -0.389 OA
ATOM     11  C   UNL     1      -0.780   5.824  -1.092  0.00  0.00    +0.030 C 
ENDROOT
BRANCH   1  13
ATOM     12  C   UNL     1      -0.981   0.945   0.911  0.00  0.00    +0.059 C 
ATOM     13  C   UNL     1      -1.238   1.712   2.210  0.00  0.00    +0.145 C 
ATOM     14  C   UNL     1      -2.594   1.303   2.835  0.00  0.00    +0.110 C 
ATOM     15  C   UNL     1      -2.192   0.211   3.808  0.00  0.00    +0.091 C 
ATOM     16  N   UNL     1      -0.914   0.273   3.982  0.00  0.00    -0.088 NA
ATOM     17  O   UNL     1      -0.309   1.312   3.238  0.00  0.00    -0.387 OA
BRANCH  15  18
ATOM     18  C   UNL     1      -3.106  -0.755   4.447  0.00  0.00    -0.000 A 
ATOM     19  C   UNL     1      -4.475  -0.710   4.177  0.00  0.00    +0.013 A 
ATOM     20  C   UNL     1      -5.324  -1.617   4.772  0.00  0.00    +0.046 A 
ATOM     21  C   UNL     1      -4.821  -2.570   5.649  0.00  0.00    +0.120 A 
ATOM     22  C   UNL     1      -3.460  -2.616   5.925  0.00  0.00    +0.046 A 
ATOM     23  C   UNL     1      -2.604  -1.716   5.330  0.00  0.00    +0.013 A 
BRANCH  21  24
ATOM     24  O   UNL     1      -5.661  -3.460   6.238  0.00  0.00    -0.495 OA
ATOM     25  C   UNL     1      -7.048  -3.356   5.910  0.00  0.00    +0.277 C 
ENDBRANCH  21  24
ENDBRANCH  15  18
ENDBRANCH   1  13
BRANCH   8  26
ATOM     26  C   UNL     1      -1.530   8.351   0.557  0.00  0.00    +0.001 A 
ATOM     27  C   UNL     1      -1.152   9.614   1.018  0.00  0.00    +0.013 A 
ATOM     28  C   UNL     1      -1.799  10.738   0.553  0.00  0.00    +0.046 A 
ATOM     29  C   UNL     1      -2.835  10.615  -0.365  0.00  0.00    +0.120 A 
ATOM     30  C   UNL     1      -3.218   9.361  -0.822  0.00  0.00    +0.046 A 
ATOM     31  C   UNL     1      -2.572   8.232  -0.366  0.00  0.00    +0.013 A 
BRANCH  29  32
ATOM     32  O   UNL     1      -3.474  11.725  -0.817  0.00  0.00    -0.495 OA
ATOM     33  C   UNL     1      -3.029  12.983  -0.306  0.00  0.00    +0.277 C 
ENDBRANCH  29  32
ENDBRANCH   8  26
TORSDOF 5
