REMARK  Name = ZINC04647294
REMARK  7 active torsions:
REMARK  status: ('A' for Active; 'I' for Inactive)
REMARK    1  A    between atoms: C_1  and  C_2
REMARK    2  A    between atoms: C_5  and  S_8
REMARK    3  A    between atoms: S_8  and  N_11
REMARK    4  A    between atoms: N_11  and  C_12
REMARK    5  A    between atoms: C_17  and  C_18
REMARK    6  A    between atoms: C_18  and  C_20
REMARK    7  A    between atoms: C_18  and  O_27
REMARK                            x       y       z     vdW  Elec       q    Type
REMARK                         _______ _______ _______ _____ _____    ______ ____
ROOT
ATOM      1  C   UNL     1      -1.135   3.197   2.453  0.00  0.00    +0.054 A 
ATOM      2  C   UNL     1      -0.497   4.340   1.986  0.00  0.00    +0.025 A 
ATOM      3  C   UNL     1       0.331   5.058   2.825  0.00  0.00    +0.002 A 
ATOM      4  C   UNL     1       0.527   4.641   4.129  0.00  0.00    +0.000 A 
ATOM      5  C   UNL     1      -0.106   3.504   4.597  0.00  0.00    +0.008 A 
ATOM      6  C   UNL     1      -0.940   2.784   3.764  0.00  0.00    +0.008 A 
ENDROOT
BRANCH   1   7
ATOM      7  N   UNL     1      -1.974   2.469   1.607  0.00  0.00    -0.216 N 
ATOM      8  H   UNL     1      -2.770   2.043   1.962  0.00  0.00    +0.174 HD
BRANCH   7   9
ATOM      9  S   UNL     1      -1.610   2.331  -0.003  0.00  0.00    +0.072 S 
ATOM     10  O   UNL     1      -1.430   3.653  -0.493  0.00  0.00    -0.150 OA
ATOM     11  O   UNL     1      -2.563   1.435  -0.559  0.00  0.00    -0.150 OA
BRANCH   9  16
ATOM     12  C   UNL     1       3.756  -0.398  -0.410  0.00  0.00    +0.044 C 
ATOM     13  C   UNL     1       2.415   0.284  -0.307  0.00  0.00    -0.050 A 
ATOM     14  C   UNL     1       1.257  -0.470  -0.287  0.00  0.00    +0.005 A 
ATOM     15  C   UNL     1       0.027   0.155  -0.193  0.00  0.00    +0.029 A 
ATOM     16  C   UNL     1      -0.043   1.534  -0.116  0.00  0.00    +0.109 A 
ATOM     17  C   UNL     1       1.116   2.287  -0.135  0.00  0.00    +0.029 A 
ATOM     18  C   UNL     1       2.345   1.662  -0.231  0.00  0.00    +0.005 A 
ENDBRANCH   9  16
ENDBRANCH   7   9
ENDBRANCH   1   7
BRANCH   6  19
ATOM     19  C   UNL     1      -1.634   1.548   4.277  0.00  0.00    +0.176 C 
BRANCH  19  20
ATOM     20  C   UNL     1      -3.019   1.909   4.749  0.00  0.00    -0.015 A 
ATOM     21  C   UNL     1      -3.197   2.479   5.997  0.00  0.00    +0.007 A 
ATOM     22  C   UNL     1      -4.466   2.814   6.428  0.00  0.00    +0.015 A 
ATOM     23  C   UNL     1      -5.559   2.571   5.617  0.00  0.00    +0.018 A 
ATOM     24  C   UNL     1      -5.381   1.997   4.371  0.00  0.00    +0.015 A 
ATOM     25  C   UNL     1      -4.111   1.666   3.938  0.00  0.00    +0.007 A 
ATOM     26 BR   UNL     1      -7.297   3.025   6.209  0.00  0.00    -0.050 Br
ENDBRANCH  19  20
BRANCH  19  27
ATOM     27  O   UNL     1      -0.887   0.999   5.365  0.00  0.00    -0.382 OA
ATOM     28  H   UNL     1      -0.785   1.601   6.115  0.00  0.00    +0.211 HD
ENDBRANCH  19  27
ENDBRANCH   6  19
TORSDOF 6
