REMARK  Name = ZINC16363195
REMARK  8 active torsions:
REMARK  status: ('A' for Active; 'I' for Inactive)
REMARK    1  A    between atoms: C_1  and  C_2
REMARK    2  A    between atoms: C_8  and  C_10
REMARK    3  A    between atoms: C_11  and  C_35
REMARK    4  A    between atoms: C_13  and  C_34
REMARK    5  A    between atoms: C_14  and  C_25
REMARK    6  A    between atoms: C_15  and  C_16
REMARK    7  A    between atoms: C_20  and  N_22
REMARK    8  A    between atoms: C_30  and  C_33
REMARK                            x       y       z     vdW  Elec       q    Type
REMARK                         _______ _______ _______ _____ _____    ______ ____
ROOT
ATOM      1  C   UNL     1      -5.817   3.235   3.867  0.00  0.00    +0.131 C 
ATOM      2  C   UNL     1      -6.275   3.511   5.099  0.00  0.00    +0.029 C 
ATOM      3  N   UNL     1      -7.608   3.733   5.318  0.00  0.00    -0.260 NA
ATOM      4  C   UNL     1      -8.438   4.034   4.272  0.00  0.00    +0.047 C 
ATOM      5  C   UNL     1      -8.069   3.780   3.005  0.00  0.00    +0.044 C 
ATOM      6  C   UNL     1      -6.742   3.157   2.686  0.00  0.00    +0.073 C 
ATOM      7  C   UNL     1      -9.783   4.658   4.544  0.00  0.00    +0.066 C 
ATOM      8  C   UNL     1      -5.310   3.576   6.255  0.00  0.00    +0.061 C 
ENDROOT
BRANCH   1  16
ATOM      9  C   UNL     1       0.277  -0.763   4.032  0.00  0.00    +0.066 C 
ATOM     10  C   UNL     1      -0.523   0.487   3.772  0.00  0.00    +0.047 A 
ATOM     11  C   UNL     1       0.075   1.605   3.292  0.00  0.00    +0.071 A 
ATOM     12  S   UNL     1      -1.324   2.712   3.191  0.00  0.00    -0.060 S 
ATOM     13  C   UNL     1      -2.529   1.609   3.781  0.00  0.00    +0.165 A 
ATOM     14  N   UNL     1      -1.821   0.518   4.001  0.00  0.00    -0.230 NA
ATOM     15  N   UNL     1      -3.888   1.821   3.968  0.00  0.00    -0.264 N 
ATOM     16  C   UNL     1      -4.430   3.020   3.676  0.00  0.00    +0.228 C 
ATOM     17  O   UNL     1      -3.728   3.917   3.248  0.00  0.00    -0.275 OA
ATOM     18  H   UNL     1      -4.448   1.106   4.309  0.00  0.00    +0.157 HD
ENDBRANCH   1  16
BRANCH   5  19
ATOM     19  C   UNL     1      -8.951   4.107   1.948  0.00  0.00    +0.248 C 
ATOM     20  O   UNL     1     -10.032   4.613   2.191  0.00  0.00    -0.270 OA
ATOM     21  N   UNL     1      -8.596   3.859   0.672  0.00  0.00    -0.261 N 
ATOM     22  C   UNL     1      -9.461   4.180  -0.366  0.00  0.00    +0.165 A 
ATOM     23  N   UNL     1      -9.294   4.021  -1.664  0.00  0.00    -0.230 NA
ATOM     24  C   UNL     1     -10.228   4.380  -2.523  0.00  0.00    +0.047 A 
ATOM     25  C   UNL     1     -11.370   4.931  -2.042  0.00  0.00    +0.071 A 
ATOM     26  S   UNL     1     -11.039   4.900  -0.286  0.00  0.00    -0.060 S 
ATOM     27  C   UNL     1     -10.028   4.189  -4.004  0.00  0.00    +0.066 C 
ATOM     28  H   UNL     1      -7.735   3.456   0.478  0.00  0.00    +0.157 HD
ENDBRANCH   5  19
BRANCH   6  29
ATOM     29  C   UNL     1      -6.954   1.711   2.317  0.00  0.00    -0.037 A 
ATOM     30  C   UNL     1      -7.499   0.836   3.238  0.00  0.00    +0.004 A 
ATOM     31  C   UNL     1      -7.697  -0.489   2.899  0.00  0.00    +0.003 A 
ATOM     32  C   UNL     1      -7.342  -0.941   1.642  0.00  0.00    +0.033 A 
ATOM     33  C   UNL     1      -6.793  -0.067   0.723  0.00  0.00    +0.126 A 
ATOM     34  C   UNL     1      -6.598   1.259   1.060  0.00  0.00    +0.037 A 
BRANCH  33  35
ATOM     35  N   UNL     1      -6.413  -0.551  -0.624  0.00  0.00    +0.056 N 
ATOM     36  O   UNL     1      -5.928   0.219  -1.433  0.00  0.00    -0.126 OA
ATOM     37  O   UNL     1      -6.584  -1.720  -0.921  0.00  0.00    -0.126 OA
ENDBRANCH  33  35
ENDBRANCH   6  29
TORSDOF 4
