REMARK  Name = ZINC61464669
REMARK  7 active torsions:
REMARK  status: ('A' for Active; 'I' for Inactive)
REMARK    1  A    between atoms: C_1  and  C_2
REMARK    2  A    between atoms: C_4  and  C_26
REMARK    3  A    between atoms: C_6  and  C_25
REMARK    4  A    between atoms: C_10  and  C_11
REMARK    5  A    between atoms: N_13  and  N_14
REMARK    6  A    between atoms: C_15  and  C_17
REMARK    7  A    between atoms: C_20  and  C_23
REMARK                            x       y       z     vdW  Elec       q    Type
REMARK                         _______ _______ _______ _____ _____    ______ ____
ROOT
ATOM      1  C   UNL     1       3.216  -0.290   1.210  0.00  0.00    +0.267 C 
ATOM      2  O   UNL     1       3.444   0.902   1.296  0.00  0.00    -0.268 OA
ATOM      3  N   UNL     1       3.858  -1.158   2.017  0.00  0.00    -0.230 N 
ATOM      4  H   UNL     1       3.677  -2.109   1.948  0.00  0.00    +0.173 HD
ENDROOT
BRANCH   1  14
ATOM      5  C   UNL     1       1.632   1.431  -0.722  0.00  0.00    +0.046 C 
ATOM      6  C   UNL     1       1.502  -0.069  -0.663  0.00  0.00    -0.020 A 
ATOM      7  C   UNL     1       0.622  -0.734  -1.532  0.00  0.00    +0.032 A 
ATOM      8  C   UNL     1      -0.230  -0.199  -2.530  0.00  0.00    +0.050 A 
ATOM      9  N   UNL     1      -0.982  -1.011  -3.239  0.00  0.00    -0.237 NA
ATOM     10  C   UNL     1      -0.977  -2.321  -3.058  0.00  0.00    +0.128 A 
ATOM     11  N   UNL     1      -0.208  -2.885  -2.147  0.00  0.00    -0.225 NA
ATOM     12  C   UNL     1       0.577  -2.146  -1.393  0.00  0.00    +0.113 A 
ATOM     13  S   UNL     1       1.737  -2.465  -0.090  0.00  0.00    -0.064 S 
ATOM     14  C   UNL     1       2.241  -0.783   0.227  0.00  0.00    +0.081 A 
ATOM     15  C   UNL     1      -1.868  -3.187  -3.911  0.00  0.00    +0.088 C 
ATOM     16  C   UNL     1      -0.274   1.288  -2.775  0.00  0.00    +0.066 C 
ENDBRANCH   1  14
BRANCH   3  17
ATOM     17  N   UNL     1       4.787  -0.688   2.954  0.00  0.00    -0.230 N 
ATOM     18  C   UNL     1       5.429  -1.556   3.761  0.00  0.00    +0.260 C 
ATOM     19  O   UNL     1       5.202  -2.747   3.675  0.00  0.00    -0.269 OA
ATOM     20  H   UNL     1       4.969   0.262   3.023  0.00  0.00    +0.173 HD
BRANCH  18  21
ATOM     21  C   UNL     1       6.410  -1.060   4.750  0.00  0.00    +0.038 A 
ATOM     22  C   UNL     1       6.667   0.308   4.853  0.00  0.00    +0.014 A 
ATOM     23  C   UNL     1       7.581   0.771   5.774  0.00  0.00    +0.019 A 
ATOM     24  C   UNL     1       8.250  -0.130   6.606  0.00  0.00    +0.052 A 
ATOM     25  C   UNL     1       7.993  -1.499   6.503  0.00  0.00    +0.019 A 
ATOM     26  C   UNL     1       7.075  -1.960   5.586  0.00  0.00    +0.014 A 
BRANCH  24  27
ATOM     27  C   UNL     1       9.200   0.351   7.563  0.00  0.00    +0.099 C 
ATOM     28  N   UNL     1       9.954   0.732   8.323  0.00  0.00    -0.191 NA
ENDBRANCH  24  27
ENDBRANCH  18  21
ENDBRANCH   3  17
TORSDOF 4
