REMARK  Name = ZINC38994385
REMARK  6 active torsions:
REMARK  status: ('A' for Active; 'I' for Inactive)
REMARK    1  A    between atoms: C_4  and  C_7
REMARK    2  A    between atoms: C_7  and  O_8
REMARK    3  A    between atoms: O_8  and  C_9
REMARK    4  A    between atoms: C_13  and  C_15
REMARK    5  A    between atoms: C_17  and  C_21
REMARK    6  A    between atoms: N_23  and  N_24
REMARK                            x       y       z     vdW  Elec       q    Type
REMARK                         _______ _______ _______ _____ _____    ______ ____
ROOT
ATOM      1  C   UNL     1       7.510  -2.843   4.264  0.00  0.00    +0.092 C 
ATOM      2  C   UNL     1       8.664  -3.484   4.530  0.00  0.00    +0.041 C 
ATOM      3  C   UNL     1       8.717  -3.525   6.047  0.00  0.00    +0.240 C 
ATOM      4  N   UNL     1       7.476  -2.840   6.444  0.00  0.00    -0.170 NA
ATOM      5  N   UNL     1       6.883  -2.498   5.419  0.00  0.00    -0.153 NA
ENDROOT
BRANCH   1  10
ATOM      6  C   UNL     1       5.319  -1.605   1.466  0.00  0.00    +0.122 A 
ATOM      7  C   UNL     1       6.048  -2.007   0.356  0.00  0.00    +0.046 A 
ATOM      8  C   UNL     1       7.246  -2.677   0.516  0.00  0.00    +0.004 A 
ATOM      9  C   UNL     1       7.724  -2.951   1.782  0.00  0.00    +0.010 A 
ATOM     10  C   UNL     1       6.998  -2.550   2.902  0.00  0.00    +0.005 A 
ATOM     11  C   UNL     1       5.794  -1.870   2.740  0.00  0.00    +0.055 A 
BRANCH   6  12
ATOM     12  O   UNL     1       4.141  -0.946   1.304  0.00  0.00    -0.487 OA
BRANCH  12  13
ATOM     13  C   UNL     1       3.711  -0.707  -0.038  0.00  0.00    +0.264 C 
BRANCH  13  17
ATOM     14  C   UNL     1      -0.017   1.378   0.010  0.00  0.00    +0.000 A 
ATOM     15  C   UNL     1       1.171   2.086   0.002  0.00  0.00    +0.000 A 
ATOM     16  C   UNL     1       2.377   1.411  -0.013  0.00  0.00    +0.007 A 
ATOM     17  C   UNL     1       2.396   0.029  -0.020  0.00  0.00    -0.010 A 
ATOM     18  C   UNL     1       1.208  -0.679  -0.012  0.00  0.00    +0.007 A 
ATOM     19  C   UNL     1       0.002  -0.004   0.002  0.00  0.00    +0.000 A 
ENDBRANCH  13  17
ENDBRANCH  12  13
ENDBRANCH   6  12
ENDBRANCH   1  10
BRANCH   3  20
ATOM     20  C   UNL     1       9.925  -2.782   6.557  0.00  0.00    +0.263 C 
ATOM     21  O   UNL     1       9.808  -1.650   6.976  0.00  0.00    -0.271 OA
ATOM     22  N   UNL     1      11.135  -3.376   6.548  0.00  0.00    -0.204 N 
ATOM     23  H   UNL     1      11.228  -4.281   6.212  0.00  0.00    +0.177 HD
BRANCH  22  24
ATOM     24  N   UNL     1      12.258  -2.685   7.022  0.00  0.00    -0.174 NA
ATOM     25  C   UNL     1      13.434  -3.263   7.013  0.00  0.00    +0.153 C 
ATOM     26  C   UNL     1      14.722  -2.695   7.476  0.00  0.00    +0.029 A 
ATOM     27  C   UNL     1      15.078  -1.469   8.026  0.00  0.00    +0.027 A 
ATOM     28  C   UNL     1      16.395  -1.227   8.366  0.00  0.00    +0.019 A 
ATOM     29  C   UNL     1      17.355  -2.204   8.159  0.00  0.00    +0.017 A 
ATOM     30  C   UNL     1      17.011  -3.424   7.613  0.00  0.00    +0.025 A 
ATOM     31  C   UNL     1      15.690  -3.685   7.265  0.00  0.00    +0.043 A 
ATOM     32  N   UNL     1      15.085  -4.808   6.710  0.00  0.00    -0.280 N 
ATOM     33  C   UNL     1      13.765  -4.624   6.544  0.00  0.00    +0.269 C 
ATOM     34  O   UNL     1      12.980  -5.434   6.086  0.00  0.00    -0.268 OA
ATOM     35 BR   UNL     1      16.888   0.438   9.114  0.00  0.00    -0.050 Br
ATOM     36  H   UNL     1      15.557  -5.623   6.476  0.00  0.00    +0.155 HD
ENDBRANCH  22  24
ENDBRANCH   3  20
TORSDOF 6
