REMARK  Name = ZINC19356768
REMARK  10 active torsions:
REMARK  status: ('A' for Active; 'I' for Inactive)
REMARK    1  A    between atoms: C_1  and  C_2
REMARK    2  A    between atoms: C_6  and  N_8
REMARK    3  A    between atoms: N_8  and  S_9
REMARK    4  A    between atoms: S_9  and  C_12
REMARK    5  A    between atoms: C_16  and  C_18
REMARK    6  A    between atoms: C_18  and  O_20
REMARK    7  A    between atoms: O_20  and  C_21
REMARK    8  A    between atoms: C_21  and  C_23
REMARK    9  A    between atoms: C_21  and  C_29
REMARK   10  A    between atoms: N_31  and  C_32
REMARK                            x       y       z     vdW  Elec       q    Type
REMARK                         _______ _______ _______ _____ _____    ______ ____
ROOT
ATOM      1  C   UNL     1       0.735  -0.523   1.518  0.00  0.00    +0.109 A 
ATOM      2  C   UNL     1       2.104  -0.715   1.593  0.00  0.00    +0.030 A 
ATOM      3  C   UNL     1       2.689  -1.117   2.779  0.00  0.00    +0.023 A 
ATOM      4  C   UNL     1       1.908  -1.341   3.896  0.00  0.00    +0.055 A 
ATOM      5  C   UNL     1       0.525  -1.155   3.826  0.00  0.00    +0.079 A 
ATOM      6  C   UNL     1      -0.057  -0.744   2.625  0.00  0.00    +0.045 A 
ATOM      7 CL   UNL     1       2.643  -1.852   5.384  0.00  0.00    -0.083 Cl
ENDROOT
BRANCH   1   8
ATOM      8  S   UNL     1       0.002  -0.004   0.002  0.00  0.00    +0.072 S 
ATOM      9  O   UNL     1      -1.353  -0.429   0.040  0.00  0.00    -0.150 OA
ATOM     10  O   UNL     1       0.893  -0.392  -1.034  0.00  0.00    -0.150 OA
BRANCH   8  11
ATOM     11  N   UNL     1      -0.020   1.652   0.011  0.00  0.00    -0.216 N 
ATOM     12  H   UNL     1      -0.980   2.189   0.023  0.00  0.00    +0.174 HD
BRANCH  11  18
ATOM     13  C   UNL     1       2.724   5.329   1.772  0.00  0.00    +0.044 C 
ATOM     14  C   UNL     1       2.538   4.154   0.847  0.00  0.00    -0.049 A 
ATOM     15  C   UNL     1       3.556   3.783  -0.013  0.00  0.00    +0.003 A 
ATOM     16  C   UNL     1       3.389   2.706  -0.864  0.00  0.00    +0.002 A 
ATOM     17  C   UNL     1       2.204   1.997  -0.858  0.00  0.00    +0.024 A 
ATOM     18  C   UNL     1       1.180   2.366   0.004  0.00  0.00    +0.048 A 
ATOM     19  C   UNL     1       1.349   3.452   0.854  0.00  0.00    +0.027 A 
ENDBRANCH  11  18
ENDBRANCH   8  11
ENDBRANCH   1   8
BRANCH   5  20
ATOM     20  C   UNL     1      -0.318  -1.393   5.015  0.00  0.00    +0.342 C 
ATOM     21  O   UNL     1       0.192  -1.750   6.058  0.00  0.00    -0.245 OA
BRANCH  20  22
ATOM     22  O   UNL     1      -1.651  -1.212   4.943  0.00  0.00    -0.444 OA
BRANCH  22  23
ATOM     23  C   UNL     1      -2.416  -1.464   6.152  0.00  0.00    +0.292 C 
BRANCH  23  24
ATOM     24  C   UNL     1      -2.517  -0.193   6.956  0.00  0.00    +0.002 A 
ATOM     25  C   UNL     1      -2.715   1.016   6.316  0.00  0.00    +0.008 A 
ATOM     26  C   UNL     1      -2.813   2.181   7.054  0.00  0.00    +0.000 A 
ATOM     27  C   UNL     1      -2.703   2.138   8.431  0.00  0.00    +0.000 A 
ATOM     28  C   UNL     1      -2.500   0.929   9.071  0.00  0.00    +0.000 A 
ATOM     29  C   UNL     1      -2.407  -0.236   8.333  0.00  0.00    +0.008 A 
ENDBRANCH  23  24
BRANCH  23  30
ATOM     30  C   UNL     1      -3.798  -1.935   5.781  0.00  0.00    +0.259 C 
ATOM     31  O   UNL     1      -4.108  -2.049   4.614  0.00  0.00    -0.271 OA
ATOM     32  N   UNL     1      -4.690  -2.232   6.747  0.00  0.00    -0.309 N 
ATOM     33  H   UNL     1      -4.409  -2.129   7.806  0.00  0.00    +0.149 HD
BRANCH  32  34
ATOM     34  C   UNL     1      -6.034  -2.691   6.387  0.00  0.00    +0.073 C 
ATOM     35  C   UNL     1      -7.214  -2.095   7.158  0.00  0.00    +0.024 C 
ATOM     36  C   UNL     1      -6.787  -3.543   7.410  0.00  0.00    +0.024 C 
ENDBRANCH  32  34
ENDBRANCH  23  30
ENDBRANCH  22  23
ENDBRANCH  20  22
ENDBRANCH   5  20
TORSDOF 9
