REMARK  Name = ZINC45471726
REMARK  6 active torsions:
REMARK  status: ('A' for Active; 'I' for Inactive)
REMARK    1  A    between atoms: C_1  and  C_2
REMARK    2  A    between atoms: C_2  and  C_21
REMARK    3  A    between atoms: N_5  and  C_9
REMARK    4  A    between atoms: C_9  and  C_10
REMARK    5  A    between atoms: C_13  and  C_15
REMARK    6  A    between atoms: C_21  and  C_22
REMARK                            x       y       z     vdW  Elec       q    Type
REMARK                         _______ _______ _______ _____ _____    ______ ____
ROOT
ATOM      1  C   UNL     1      -0.019   1.526   0.010  0.00  0.00    +0.042 C 
ATOM      2  C   UNL     1       0.002  -0.004   0.002  0.00  0.00    +0.114 C 
ATOM      3  C   UNL     1      -1.403  -0.557   0.139  0.00  0.00    +0.247 C 
ATOM      4  O   UNL     1      -2.332  -0.392  -0.621  0.00  0.00    -0.273 OA
ATOM      5  N   UNL     1      -1.403  -1.272   1.282  0.00  0.00    -0.218 N 
ATOM      6  C   UNL     1      -0.206  -1.247   1.879  0.00  0.00    +0.310 C 
ATOM      7  O   UNL     1       0.040  -1.819   2.924  0.00  0.00    -0.252 OA
ATOM      8  N   UNL     1       0.695  -0.520   1.195  0.00  0.00    -0.285 N 
ATOM      9  H   UNL     1       1.621  -0.365   1.440  0.00  0.00    +0.151 HD
ENDROOT
BRANCH   5  10
ATOM     10  C   UNL     1      -2.569  -1.986   1.805  0.00  0.00    +0.176 C 
BRANCH  10  11
ATOM     11  C   UNL     1      -2.585  -3.391   1.260  0.00  0.00    +0.098 A 
ATOM     12  C   UNL     1      -2.091  -4.484   1.871  0.00  0.00    +0.222 A 
ATOM     13  O   UNL     1      -2.304  -5.532   1.050  0.00  0.00    -0.443 OA
ATOM     14  C   UNL     1      -2.924  -5.069  -0.050  0.00  0.00    +0.227 A 
ATOM     15  N   UNL     1      -3.097  -3.776   0.081  0.00  0.00    -0.212 NA
BRANCH  14  16
ATOM     16  C   UNL     1      -3.343  -5.883  -1.210  0.00  0.00    +0.037 A 
ATOM     17  C   UNL     1      -3.975  -5.279  -2.299  0.00  0.00    +0.013 A 
ATOM     18  C   UNL     1      -4.364  -6.045  -3.379  0.00  0.00    +0.001 A 
ATOM     19  C   UNL     1      -4.129  -7.408  -3.385  0.00  0.00    +0.000 A 
ATOM     20  C   UNL     1      -3.503  -8.013  -2.309  0.00  0.00    +0.001 A 
ATOM     21  C   UNL     1      -3.104  -7.258  -1.225  0.00  0.00    +0.013 A 
ENDBRANCH  14  16
ENDBRANCH  10  11
ENDBRANCH   5  10
BRANCH   2  22
ATOM     22  C   UNL     1       0.667  -0.525  -1.274  0.00  0.00    +0.070 C 
BRANCH  22  23
ATOM     23  C   UNL     1       2.114  -0.104  -1.294  0.00  0.00    -0.041 A 
ATOM     24  C   UNL     1       2.474   1.101  -1.867  0.00  0.00    +0.007 A 
ATOM     25  C   UNL     1       3.800   1.492  -1.888  0.00  0.00    +0.050 A 
ATOM     26  C   UNL     1       4.772   0.675  -1.333  0.00  0.00    +0.166 A 
ATOM     27  C   UNL     1       4.409  -0.540  -0.755  0.00  0.00    +0.166 A 
ATOM     28  C   UNL     1       3.078  -0.922  -0.734  0.00  0.00    +0.053 A 
ATOM     29  O   UNL     1       5.535  -1.153  -0.285  0.00  0.00    -0.453 OA
ATOM     30  C   UNL     1       6.634  -0.495  -0.943  0.00  0.00    +0.466 C 
ATOM     31  O   UNL     1       6.125   0.822  -1.225  0.00  0.00    -0.453 OA
ENDBRANCH  22  23
ENDBRANCH   2  22
TORSDOF 5
