REMARK  Name = ZINC10440477
REMARK  10 active torsions:
REMARK  status: ('A' for Active; 'I' for Inactive)
REMARK    1  A    between atoms: C_1  and  C_2
REMARK    2  A    between atoms: C_2  and  C_3
REMARK    3  A    between atoms: C_10  and  C_12
REMARK    4  A    between atoms: C_15  and  S_18
REMARK    5  A    between atoms: N_16  and  C_17
REMARK    6  A    between atoms: S_18  and  C_19
REMARK    7  A    between atoms: C_19  and  C_20
REMARK    8  A    between atoms: N_22  and  C_23
REMARK    9  A    between atoms: C_28  and  C_29
REMARK   10  A    between atoms: N_31  and  C_32
REMARK                            x       y       z     vdW  Elec       q    Type
REMARK                         _______ _______ _______ _____ _____    ______ ____
ROOT
ATOM      1  S   UNL     1       1.910   3.397   0.042  0.00  0.00    -0.077 S 
ENDROOT
BRANCH   1   5
ATOM      2  C   UNL     1       0.028  -0.029   0.096  0.00  0.00    +0.171 A 
ATOM      3  N   UNL     1       1.292  -0.391   0.084  0.00  0.00    -0.128 NA
ATOM      4  N   UNL     1       2.047   0.649   0.066  0.00  0.00    -0.122 NA
ATOM      5  C   UNL     1       1.315   1.739   0.065  0.00  0.00    +0.192 A 
ATOM      6  N   UNL     1       0.004   1.349   0.084  0.00  0.00    -0.305 N 
ATOM      7  C   UNL     1      -1.178   2.214   0.085  0.00  0.00    +0.153 C 
BRANCH   2  14
ATOM      8  C   UNL     1      -3.896  -4.899   0.276  0.00  0.00    -0.007 C 
ATOM      9  C   UNL     1      -5.052  -4.020  -0.211  0.00  0.00    +0.009 C 
ATOM     10  C   UNL     1      -4.921  -2.632   0.434  0.00  0.00    +0.043 C 
ATOM     11  C   UNL     1      -3.506  -2.174   0.280  0.00  0.00    -0.006 A 
ATOM     12  C   UNL     1      -2.423  -2.927  -0.064  0.00  0.00    -0.036 A 
ATOM     13  C   UNL     1      -1.203  -2.266  -0.143  0.00  0.00    +0.023 A 
ATOM     14  C   UNL     1      -1.139  -0.924   0.119  0.00  0.00    +0.057 A 
ATOM     15  S   UNL     1      -2.843  -0.545   0.502  0.00  0.00    -0.090 S 
ATOM     16  C   UNL     1      -2.580  -4.420  -0.339  0.00  0.00    +0.039 C 
BRANCH   8  18
ATOM     17  C   UNL     1      -3.062  -7.247   0.450  0.00  0.00    +0.004 C 
ATOM     18  C   UNL     1      -4.150  -6.349  -0.141  0.00  0.00    +0.000 C 
ENDBRANCH   8  18
ENDBRANCH   2  14
ENDBRANCH   1   5
BRANCH   1  19
ATOM     19  C   UNL     1       3.694   3.090   0.023  0.00  0.00    +0.173 C 
BRANCH  19  20
ATOM     20  C   UNL     1       4.430   4.405   0.002  0.00  0.00    +0.228 C 
ATOM     21  O   UNL     1       3.809   5.447  -0.001  0.00  0.00    -0.275 OA
ATOM     22  N   UNL     1       5.777   4.423  -0.015  0.00  0.00    -0.284 N 
ATOM     23  H   UNL     1       6.274   3.593   0.052  0.00  0.00    +0.155 HD
BRANCH  22  24
ATOM     24  C   UNL     1       6.456   5.634  -0.128  0.00  0.00    +0.046 A 
ATOM     25  C   UNL     1       5.948   6.778   0.473  0.00  0.00    +0.024 A 
ATOM     26  C   UNL     1       6.625   7.976   0.364  0.00  0.00    +0.002 A 
ATOM     27  C   UNL     1       7.808   8.050  -0.353  0.00  0.00    +0.001 A 
ATOM     28  C   UNL     1       8.325   6.926  -0.960  0.00  0.00    +0.015 A 
ATOM     29  C   UNL     1       7.654   5.705  -0.854  0.00  0.00    +0.058 A 
BRANCH  29  30
ATOM     30  C   UNL     1       8.202   4.499  -1.502  0.00  0.00    +0.246 C 
ATOM     31  O   UNL     1       7.566   3.462  -1.492  0.00  0.00    -0.270 OA
ATOM     32  N   UNL     1       9.406   4.545  -2.106  0.00  0.00    -0.308 N 
ATOM     33  H   UNL     1       9.912   5.373  -2.114  0.00  0.00    +0.149 HD
BRANCH  32  34
ATOM     34  C   UNL     1       9.950   3.347  -2.750  0.00  0.00    +0.073 C 
ATOM     35  C   UNL     1      11.427   3.028  -2.515  0.00  0.00    +0.024 C 
ATOM     36  C   UNL     1      10.964   3.549  -3.877  0.00  0.00    +0.024 C 
ENDBRANCH  32  34
ENDBRANCH  29  30
ENDBRANCH  22  24
ENDBRANCH  19  20
ENDBRANCH   1  19
TORSDOF 8
