REMARK  Name = ZINC15838388
REMARK  7 active torsions:
REMARK  status: ('A' for Active; 'I' for Inactive)
REMARK    1  A    between atoms: C_1  and  C_2
REMARK    2  A    between atoms: C_6  and  N_8
REMARK    3  A    between atoms: N_8  and  C_9
REMARK    4  A    between atoms: N_8  and  C_10
REMARK    5  A    between atoms: N_14  and  S_17
REMARK    6  A    between atoms: S_17  and  C_20
REMARK    7  A    between atoms: C_23  and  N_26
REMARK                            x       y       z     vdW  Elec       q    Type
REMARK                         _______ _______ _______ _____ _____    ______ ____
ROOT
ATOM      1  C   UNL     1       3.315   0.024  -7.684  0.00  0.00    +0.088 C 
ATOM      2  C   UNL     1       2.162  -0.850  -7.264  0.00  0.00    +0.130 A 
ATOM      3  N   UNL     1       2.173  -1.390  -6.062  0.00  0.00    -0.218 NA
ATOM      4  C   UNL     1       1.173  -2.168  -5.652  0.00  0.00    +0.127 A 
ATOM      5  C   UNL     1       0.110  -2.412  -6.517  0.00  0.00    +0.087 A 
ATOM      6  C   UNL     1       0.134  -1.819  -7.775  0.00  0.00    +0.126 A 
ATOM      7  N   UNL     1       1.172  -1.053  -8.108  0.00  0.00    -0.218 NA
ATOM      8  N   UNL     1       1.193  -2.731  -4.386  0.00  0.00    -0.312 N 
ATOM      9  C   UNL     1       2.408  -2.343  -3.656  0.00  0.00    +0.123 C 
ATOM     10  C   UNL     1       2.481  -3.125  -2.341  0.00  0.00    +0.128 C 
ATOM     11  N   UNL     1       1.223  -2.923  -1.606  0.00  0.00    -0.174 NA
ATOM     12  C   UNL     1      -0.043  -3.166  -2.314  0.00  0.00    +0.128 C 
ATOM     13  C   UNL     1      -0.017  -2.376  -3.632  0.00  0.00    +0.123 C 
ENDROOT
BRANCH   6  14
ATOM     14  N   UNL     1      -0.903  -2.026  -8.671  0.00  0.00    -0.321 N 
ATOM     15  C   UNL     1      -2.090  -2.779  -8.255  0.00  0.00    +0.130 C 
ATOM     16  C   UNL     1      -0.814  -1.492 -10.032  0.00  0.00    +0.130 C 
ENDBRANCH   6  14
BRANCH  11  17
ATOM     17  S   UNL     1       1.232  -2.441  -0.022  0.00  0.00    +0.061 S 
ATOM     18  O   UNL     1       2.489  -2.832   0.515  0.00  0.00    -0.153 OA
ATOM     19  O   UNL     1      -0.002  -2.866   0.539  0.00  0.00    -0.153 OA
BRANCH  17  20
ATOM     20  C   UNL     1       1.208  -0.679  -0.013  0.00  0.00    +0.106 A 
ATOM     21  C   UNL     1       0.002  -0.004   0.002  0.00  0.00    +0.031 A 
ATOM     22  C   UNL     1      -0.017   1.378   0.010  0.00  0.00    +0.034 A 
ATOM     23  C   UNL     1       1.171   2.086   0.002  0.00  0.00    +0.126 A 
ATOM     24  C   UNL     1       2.377   1.411  -0.015  0.00  0.00    +0.034 A 
ATOM     25  C   UNL     1       2.396   0.029  -0.021  0.00  0.00    +0.031 A 
BRANCH  23  26
ATOM     26  N   UNL     1       1.151   3.566   0.010  0.00  0.00    +0.056 N 
ATOM     27  O   UNL     1       0.088   4.160   0.023  0.00  0.00    -0.126 OA
ATOM     28  O   UNL     1       2.197   4.189   0.003  0.00  0.00    -0.126 OA
ENDBRANCH  23  26
ENDBRANCH  17  20
ENDBRANCH  11  17
TORSDOF 4
