REMARK  Name = ZINC39710973
REMARK  12 active torsions:
REMARK  status: ('A' for Active; 'I' for Inactive)
REMARK    1  A    between atoms: C_1  and  C_2
REMARK    2  A    between atoms: C_8  and  C_14
REMARK    3  A    between atoms: C_14  and  C_16
REMARK    4  A    between atoms: C_14  and  N_26
REMARK    5  A    between atoms: N_21  and  C_22
REMARK    6  A    between atoms: C_22  and  C_23
REMARK    7  A    between atoms: C_22  and  C_24
REMARK    8  A    between atoms: C_22  and  C_25
REMARK    9  A    between atoms: N_26  and  C_27
REMARK   10  A    between atoms: N_26  and  C_33
REMARK   11  A    between atoms: C_27  and  C_28
REMARK   12  A    between atoms: C_33  and  C_34
REMARK                            x       y       z     vdW  Elec       q    Type
REMARK                         _______ _______ _______ _____ _____    ______ ____
ROOT
ATOM      1  C   UNL     1      -1.772  -2.700   4.578  0.00  0.00    -0.009 C 
ENDROOT
BRANCH   1   9
ATOM      2  C   UNL     1       0.299  -6.375   0.120  0.00  0.00    +0.045 C 
ATOM      3  C   UNL     1       0.767  -6.165   1.537  0.00  0.00    -0.029 A 
ATOM      4  C   UNL     1       1.604  -7.067   2.111  0.00  0.00    +0.005 A 
ATOM      5  C   UNL     1       2.075  -6.932   3.418  0.00  0.00    +0.001 A 
ATOM      6  C   UNL     1       1.715  -5.877   4.194  0.00  0.00    +0.009 A 
ATOM      7  C   UNL     1       0.815  -4.866   3.637  0.00  0.00    -0.007 A 
ATOM      8  C   UNL     1       0.427  -3.790   4.378  0.00  0.00    -0.006 C 
ATOM      9  C   UNL     1      -0.508  -2.794   3.721  0.00  0.00    +0.088 C 
ATOM     10  C   UNL     1      -0.933  -3.074   2.297  0.00  0.00    +0.223 C 
ATOM     11  O   UNL     1      -1.682  -2.307   1.722  0.00  0.00    -0.275 OA
ATOM     12  N   UNL     1      -0.488  -4.156   1.681  0.00  0.00    -0.284 N 
ATOM     13  C   UNL     1       0.338  -5.032   2.253  0.00  0.00    +0.043 A 
ATOM     14  H   UNL     1      -0.773  -4.317   0.768  0.00  0.00    +0.155 HD
ENDBRANCH   1   9
BRANCH   1  15
ATOM     15  C   UNL     1      -2.178  -4.099   5.043  0.00  0.00    +0.205 C 
ATOM     16  N   UNL     1      -1.073  -4.739   5.771  0.00  0.00    -0.152 NA
ATOM     17  N   UNL     1      -0.739  -5.762   5.170  0.00  0.00    -0.070 NA
ATOM     18  N   UNL     1      -1.494  -5.986   4.019  0.00  0.00    -0.179 N 
ATOM     19  N   UNL     1      -2.418  -4.980   3.881  0.00  0.00    -0.183 NA
ATOM     20  H   UNL     1      -1.385  -6.735   3.413  0.00  0.00    +0.191 HD
BRANCH  19  21
ATOM     21  C   UNL     1      -3.787  -5.512   3.897  0.00  0.00    +0.035 C 
ATOM     22  C   UNL     1      -4.785  -4.354   3.850  0.00  0.00    +0.029 C 
ATOM     23  C   UNL     1      -3.997  -6.417   2.682  0.00  0.00    +0.029 C 
ATOM     24  C   UNL     1      -4.004  -6.321   5.178  0.00  0.00    +0.029 C 
ENDBRANCH  19  21
ENDBRANCH   1  15
BRANCH   1  25
ATOM     25  N   UNL     1      -1.508  -1.852   5.749  0.00  0.00    +0.389 N 
ATOM     26  H   UNL     1      -2.281  -1.919   6.394  0.00  0.00    -0.081 HD
BRANCH  25  27
ATOM     27  C   UNL     1      -0.276  -2.302   6.411  0.00  0.00    -0.035 C 
BRANCH  27  28
ATOM     28  C   UNL     1      -0.079  -1.523   7.686  0.00  0.00    -0.027 A 
ATOM     29  C   UNL     1      -0.512  -1.811   8.938  0.00  0.00    +0.009 A 
ATOM     30  C   UNL     1      -0.208  -0.941   9.969  0.00  0.00    +0.008 A 
ATOM     31  C   UNL     1       0.514   0.173   9.697  0.00  0.00    +0.045 A 
ATOM     32  S   UNL     1       0.793   0.014   7.941  0.00  0.00    -0.103 S 
ENDBRANCH  27  28
ENDBRANCH  25  27
BRANCH  25  33
ATOM     33  C   UNL     1      -1.350  -0.457   5.317  0.00  0.00    -0.046 C 
BRANCH  33  34
ATOM     34  C   UNL     1      -2.675   0.054   4.747  0.00  0.00    +0.102 C 
ATOM     35  C   UNL     1      -2.508   1.508   4.257  0.00  0.00    +0.032 C 
ATOM     36  C   UNL     1      -3.851   2.158   4.688  0.00  0.00    +0.030 C 
ATOM     37  C   UNL     1      -4.136   1.395   6.006  0.00  0.00    +0.160 C 
ATOM     38  O   UNL     1      -3.676   0.053   5.771  0.00  0.00    -0.378 OA
ENDBRANCH  33  34
ENDBRANCH  25  33
ENDBRANCH   1  25
TORSDOF 8
