REMARK  Name = ZINC57852815
REMARK  5 active torsions:
REMARK  status: ('A' for Active; 'I' for Inactive)
REMARK    1  A    between atoms: N_6  and  C_13
REMARK    2  A    between atoms: C_9  and  N_10
REMARK    3  A    between atoms: C_13  and  C_14
REMARK    4  A    between atoms: N_16  and  C_17
REMARK    5  A    between atoms: N_16  and  C_25
REMARK                            x       y       z     vdW  Elec       q    Type
REMARK                         _______ _______ _______ _____ _____    ______ ____
ROOT
ATOM      1  C   UNL     1       4.375  -2.232   1.368  0.00  0.00    +0.238 C 
ATOM      2  O   UNL     1       4.210  -1.467   2.295  0.00  0.00    -0.274 OA
ATOM      3  N   UNL     1       4.720  -3.513   1.604  0.00  0.00    -0.292 N 
ENDROOT
BRANCH   3   4
ATOM      4  C   UNL     1       4.789  -4.010   2.981  0.00  0.00    +0.099 C 
ATOM      5  C   UNL     1       3.422  -3.840   3.663  0.00  0.00    +0.046 C 
ATOM      6  C   UNL     1       3.563  -4.058   5.189  0.00  0.00    +0.168 C 
ATOM      7  S   UNL     1       5.304  -3.558   5.509  0.00  0.00    -0.029 S 
ATOM      8  O   UNL     1       6.028  -4.684   5.986  0.00  0.00    -0.174 OA
ATOM      9  O   UNL     1       5.309  -2.353   6.263  0.00  0.00    -0.174 OA
ATOM     10  C   UNL     1       5.838  -3.189   3.784  0.00  0.00    +0.188 C 
ENDBRANCH   3   4
BRANCH   3  11
ATOM     11  C   UNL     1       5.027  -4.407   0.486  0.00  0.00    +0.076 C 
ATOM     12  C   UNL     1       4.024  -5.578   0.455  0.00  0.00    +0.022 C 
ATOM     13  C   UNL     1       4.875  -6.797   0.019  0.00  0.00    +0.002 C 
ATOM     14  C   UNL     1       6.217  -6.556   0.752  0.00  0.00    +0.002 C 
ATOM     15  C   UNL     1       6.422  -5.029   0.675  0.00  0.00    +0.022 C 
ENDBRANCH   3  11
BRANCH   1  16
ATOM     16  C   UNL     1       4.193  -1.750  -0.048  0.00  0.00    +0.239 C 
BRANCH  16  22
ATOM     17  C   UNL     1      -0.017   1.385   0.012  0.00  0.00    +0.033 A 
ATOM     18  C   UNL     1       1.148   2.096   0.004  0.00  0.00    +0.014 A 
ATOM     19  C   UNL     1       2.372   1.419  -0.012  0.00  0.00    +0.020 A 
ATOM     20  C   UNL     1       3.767   1.846  -0.024  0.00  0.00    +0.143 A 
ATOM     21  N   UNL     1       4.510   0.776  -0.037  0.00  0.00    -0.178 NA
ATOM     22  N   UNL     1       3.706  -0.368  -0.035  0.00  0.00    -0.255 N 
ATOM     23  C   UNL     1       2.389   0.011  -0.020  0.00  0.00    +0.072 A 
ATOM     24  C   UNL     1       1.184  -0.688  -0.011  0.00  0.00    +0.060 A 
ATOM     25  C   UNL     1       0.002  -0.004   0.005  0.00  0.00    +0.128 A 
BRANCH  25  26
ATOM     26  N   UNL     1      -1.275  -0.752   0.014  0.00  0.00    +0.056 N 
ATOM     27  O   UNL     1      -2.326  -0.154   0.029  0.00  0.00    -0.126 OA
ATOM     28  O   UNL     1      -1.268  -1.961   0.008  0.00  0.00    -0.126 OA
ENDBRANCH  25  26
ENDBRANCH  16  22
ENDBRANCH   1  16
TORSDOF 5
