REMARK  Name = ZINC14538379
REMARK  6 active torsions:
REMARK  status: ('A' for Active; 'I' for Inactive)
REMARK    1  A    between atoms: C_1  and  C_2
REMARK    2  A    between atoms: C_2  and  N_3
REMARK    3  A    between atoms: N_6  and  C_26
REMARK    4  A    between atoms: C_14  and  C_15
REMARK    5  A    between atoms: C_14  and  N_66
REMARK    6  A    between atoms: C_20  and  C_21
REMARK                            x       y       z     vdW  Elec       q    Type
REMARK                         _______ _______ _______ _____ _____    ______ ____
ROOT
ATOM      1  N   UNL     1      -3.693  -0.286   3.770  0.00  0.00    -0.271 N 
ATOM      2  C   UNL     1      -4.245  -0.503   4.979  0.00  0.00    +0.312 C 
ATOM      3  O   UNL     1      -5.280   0.013   5.352  0.00  0.00    -0.252 OA
ATOM      4  N   UNL     1      -3.526  -1.352   5.724  0.00  0.00    -0.220 N 
ATOM      5  C   UNL     1      -2.425  -1.776   5.070  0.00  0.00    +0.247 C 
ATOM      6  O   UNL     1      -1.580  -2.545   5.476  0.00  0.00    -0.273 OA
ATOM      7  C   UNL     1      -2.466  -1.091   3.724  0.00  0.00    +0.112 C 
ATOM      8  C   UNL     1      -2.544  -2.122   2.602  0.00  0.00    +0.017 C 
ATOM      9  C   UNL     1      -2.557  -1.401   1.251  0.00  0.00    -0.076 C 
ATOM     10  C   UNL     1      -1.300   0.463   2.161  0.00  0.00    -0.076 C 
ATOM     11  C   UNL     1      -1.245  -0.196   3.542  0.00  0.00    +0.017 C 
ATOM     12  N   UNL     1      -1.323  -0.595   1.128  0.00  0.00    +0.383 N 
ATOM     13  H   UNL     1      -0.511  -1.208   1.261  0.00  0.00    -0.081 HD
ENDROOT
BRANCH   4  14
ATOM     14  C   UNL     1      -3.891  -1.770   7.080  0.00  0.00    +0.094 C 
ATOM     15  C   UNL     1      -5.308  -2.380   7.104  0.00  0.00    +0.058 C 
ATOM     16  C   UNL     1      -5.899  -1.947   8.432  0.00  0.00    -0.042 A 
ATOM     17  C   UNL     1      -6.990  -2.439   9.130  0.00  0.00    +0.004 A 
ATOM     18  C   UNL     1      -7.348  -1.883  10.342  0.00  0.00    +0.000 A 
ATOM     19  C   UNL     1      -6.616  -0.832  10.862  0.00  0.00    +0.000 A 
ATOM     20  C   UNL     1      -5.528  -0.340  10.168  0.00  0.00    +0.004 A 
ATOM     21  C   UNL     1      -5.167  -0.897   8.952  0.00  0.00    -0.042 A 
ATOM     22  C   UNL     1      -4.035  -0.546   8.010  0.00  0.00    +0.058 C 
ENDBRANCH   4  14
BRANCH   1  24
ATOM     23  C   UNL     1      -4.155   2.040   3.171  0.00  0.00    +0.024 C 
ATOM     24  C   UNL     1      -4.213   0.582   2.711  0.00  0.00    +0.107 C 
ENDBRANCH   1  24
BRANCH  12  25
ATOM     25  C   UNL     1      -1.250   0.012  -0.217  0.00  0.00    -0.042 C 
BRANCH  25  26
ATOM     26  C   UNL     1      -0.144   1.036  -0.237  0.00  0.00    -0.053 A 
ATOM     27  C   UNL     1      -0.444   2.379  -0.135  0.00  0.00    +0.002 A 
ATOM     28  C   UNL     1       0.570   3.321  -0.154  0.00  0.00    +0.000 A 
ATOM     29  C   UNL     1       1.890   2.923  -0.274  0.00  0.00    +0.001 A 
ATOM     30  C   UNL     1       2.203   1.583  -0.376  0.00  0.00    +0.012 A 
ATOM     31  C   UNL     1       1.185   0.628  -0.358  0.00  0.00    +0.019 A 
BRANCH  31  32
ATOM     32  C   UNL     1       1.513  -0.809  -0.467  0.00  0.00    +0.135 A 
ATOM     33  C   UNL     1       2.317  -1.375  -1.406  0.00  0.00    +0.050 A 
ATOM     34  C   UNL     1       2.349  -2.757  -1.133  0.00  0.00    +0.042 A 
ATOM     35  C   UNL     1       1.572  -2.964  -0.052  0.00  0.00    +0.196 A 
ATOM     36  O   UNL     1       1.073  -1.784   0.351  0.00  0.00    -0.463 OA
ENDBRANCH  31  32
ENDBRANCH  25  26
ENDBRANCH  12  25
TORSDOF 5
