REMARK  Name = ZINC38759692
REMARK  12 active torsions:
REMARK  status: ('A' for Active; 'I' for Inactive)
REMARK    1  A    between atoms: C_1  and  C_2
REMARK    2  A    between atoms: C_2  and  O_3
REMARK    3  A    between atoms: O_3  and  C_4
REMARK    4  A    between atoms: C_4  and  C_6
REMARK    5  A    between atoms: C_9  and  O_12
REMARK    6  A    between atoms: O_12  and  C_13
REMARK    7  A    between atoms: C_14  and  C_36
REMARK    8  A    between atoms: C_17  and  C_19
REMARK    9  A    between atoms: C_22  and  O_26
REMARK   10  A    between atoms: C_24  and  O_25
REMARK   11  A    between atoms: O_26  and  C_27
REMARK   12  A    between atoms: C_27  and  C_28
REMARK                            x       y       z     vdW  Elec       q    Type
REMARK                         _______ _______ _______ _____ _____    ______ ____
ROOT
ATOM      1  C   UNL     1       3.735  -5.271   5.857  0.00  0.00    +0.156 C 
ATOM      2  C   UNL     1       3.267  -6.267   5.078  0.00  0.00    +0.098 C 
ATOM      3  N   UNL     1       3.515  -7.459   5.633  0.00  0.00    -0.179 NA
ATOM      4  N   UNL     1       4.105  -7.416   6.715  0.00  0.00    -0.294 N 
ATOM      5  C   UNL     1       4.353  -6.000   7.038  0.00  0.00    +0.200 C 
ATOM      6  C   UNL     1       2.560  -6.064   3.763  0.00  0.00    +0.071 C 
ATOM      7  H   UNL     1       4.364  -8.179   7.255  0.00  0.00    +0.184 HD
ENDROOT
BRANCH   5   8
ATOM      8  C   UNL     1       5.831  -5.720   7.125  0.00  0.00    +0.025 A 
ATOM      9  C   UNL     1       6.734  -6.593   6.548  0.00  0.00    +0.013 A 
ATOM     10  C   UNL     1       8.090  -6.339   6.625  0.00  0.00    +0.046 A 
ATOM     11  C   UNL     1       8.548  -5.207   7.284  0.00  0.00    +0.124 A 
ATOM     12  C   UNL     1       7.645  -4.330   7.864  0.00  0.00    +0.091 A 
ATOM     13  C   UNL     1       6.284  -4.584   7.779  0.00  0.00    +0.126 A 
BRANCH  13  14
ATOM     14  O   UNL     1       5.396  -3.723   8.342  0.00  0.00    -0.506 OA
ATOM     15  H   UNL     1       5.179  -3.926   9.262  0.00  0.00    +0.292 HD
ENDBRANCH  13  14
BRANCH  11  16
ATOM     16  O   UNL     1       9.882  -4.958   7.360  0.00  0.00    -0.487 OA
BRANCH  16  17
ATOM     17  C   UNL     1      10.755  -5.904   6.741  0.00  0.00    +0.264 C 
BRANCH  17  18
ATOM     18  C   UNL     1      12.185  -5.466   6.927  0.00  0.00    -0.009 A 
ATOM     19  C   UNL     1      12.782  -4.642   5.990  0.00  0.00    +0.008 A 
ATOM     20  C   UNL     1      14.093  -4.239   6.160  0.00  0.00    +0.022 A 
ATOM     21  C   UNL     1      14.809  -4.660   7.266  0.00  0.00    +0.059 A 
ATOM     22  C   UNL     1      14.211  -5.484   8.204  0.00  0.00    +0.060 A 
ATOM     23  C   UNL     1      12.897  -5.883   8.036  0.00  0.00    +0.028 A 
ATOM     24 CL   UNL     1      15.108  -6.014   9.592  0.00  0.00    -0.082 Cl
ATOM     25 CL   UNL     1      16.456  -4.155   7.479  0.00  0.00    -0.082 Cl
ENDBRANCH  17  18
ENDBRANCH  16  17
ENDBRANCH  11  16
ENDBRANCH   5   8
BRANCH   1  26
ATOM     26  O   UNL     1       3.675  -3.940   5.637  0.00  0.00    -0.456 OA
BRANCH  26  30
ATOM     27  C   UNL     1       1.329  -1.662   8.155  0.00  0.00    +0.059 A 
ATOM     28  C   UNL     1       2.122  -1.043   7.185  0.00  0.00    +0.018 A 
ATOM     29  C   UNL     1       2.903  -1.806   6.347  0.00  0.00    +0.047 A 
ATOM     30  C   UNL     1       2.904  -3.192   6.465  0.00  0.00    +0.128 A 
ATOM     31  C   UNL     1       2.117  -3.812   7.428  0.00  0.00    +0.047 A 
ATOM     32  C   UNL     1       1.337  -3.055   8.274  0.00  0.00    +0.018 A 
BRANCH  27  33
ATOM     33  C   UNL     1       0.490  -0.849   9.055  0.00  0.00    +0.339 C 
ATOM     34  O   UNL     1      -0.194  -1.389   9.902  0.00  0.00    -0.245 OA
BRANCH  33  35
ATOM     35  O   UNL     1       0.483   0.494   8.939  0.00  0.00    -0.461 OA
BRANCH  35  37
ATOM     36  C   UNL     1      -0.229   2.718   9.561  0.00  0.00    +0.048 C 
ATOM     37  C   UNL     1      -0.352   1.219   9.844  0.00  0.00    +0.229 C 
ENDBRANCH  35  37
ENDBRANCH  33  35
ENDBRANCH  27  33
ENDBRANCH  26  30
ENDBRANCH   1  26
TORSDOF 10
