REMARK  Name = ZINC20242278
REMARK  10 active torsions:
REMARK  status: ('A' for Active; 'I' for Inactive)
REMARK    1  A    between atoms: C_1  and  C_2
REMARK    2  A    between atoms: C_2  and  N_3
REMARK    3  A    between atoms: N_3  and  C_4
REMARK    4  A    between atoms: N_3  and  C_6
REMARK    5  A    between atoms: C_4  and  C_5
REMARK    6  A    between atoms: C_6  and  C_7
REMARK    7  A    between atoms: C_7  and  N_8
REMARK    8  A    between atoms: C_9  and  C_11
REMARK    9  A    between atoms: N_17  and  C_28
REMARK   10  A    between atoms: C_28  and  C_29
REMARK                            x       y       z     vdW  Elec       q    Type
REMARK                         _______ _______ _______ _____ _____    ______ ____
ROOT
ATOM      1  C   UNL     1       0.709  -1.794  -2.462  0.00  0.00    +0.039 A 
ATOM      2  C   UNL     1       1.558  -2.577  -3.246  0.00  0.00    +0.014 A 
ATOM      3  C   UNL     1       2.884  -2.248  -3.339  0.00  0.00    +0.020 A 
ATOM      4  C   UNL     1       3.392  -1.156  -2.657  0.00  0.00    +0.065 A 
ATOM      5  C   UNL     1       2.570  -0.372  -1.870  0.00  0.00    +0.054 A 
ATOM      6  C   UNL     1       1.216  -0.694  -1.777  0.00  0.00    +0.037 A 
ATOM      7  N   UNL     1       3.034   0.727  -1.169  0.00  0.00    -0.262 N 
ATOM      8  C   UNL     1       3.833   1.694  -1.536  0.00  0.00    +0.252 C 
ATOM      9  O   UNL     1       4.047   2.544  -0.694  0.00  0.00    -0.270 OA
ATOM     10  C   UNL     1       4.506   1.893  -2.821  0.00  0.00    +0.053 A 
ATOM     11  C   UNL     1       4.535   3.175  -3.388  0.00  0.00    +0.014 A 
ATOM     12  C   UNL     1       5.160   3.383  -4.598  0.00  0.00    +0.001 A 
ATOM     13  C   UNL     1       5.763   2.329  -5.261  0.00  0.00    +0.001 A 
ATOM     14  C   UNL     1       5.742   1.060  -4.710  0.00  0.00    +0.018 A 
ATOM     15  C   UNL     1       5.120   0.841  -3.498  0.00  0.00    +0.056 A 
ATOM     16  S   UNL     1       5.108  -0.777  -2.800  0.00  0.00    +0.088 S 
ATOM     17  O   UNL     1       5.529  -0.576  -1.458  0.00  0.00    -0.247 OA
ENDROOT
BRANCH   1  19
ATOM     18  N   UNL     1      -1.217  -3.198  -3.024  0.00  0.00    -0.313 N 
ATOM     19  C   UNL     1      -0.727  -2.133  -2.359  0.00  0.00    +0.244 C 
ATOM     20  O   UNL     1      -1.465  -1.451  -1.676  0.00  0.00    -0.270 OA
ATOM     21  H   UNL     1      -0.549  -3.816  -3.642  0.00  0.00    +0.149 HD
BRANCH  18  22
ATOM     22  C   UNL     1      -2.639  -3.534  -2.922  0.00  0.00    +0.086 C 
BRANCH  22  23
ATOM     23  C   UNL     1      -2.932  -4.777  -3.765  0.00  0.00    -0.060 C 
BRANCH  23  24
ATOM     24  N   UNL     1      -4.358  -5.114  -3.664  0.00  0.00    +0.380 N 
ATOM     25  H   UNL     1      -4.617  -5.168  -2.596  0.00  0.00    -0.082 HD
BRANCH  24  27
ATOM     26  C   UNL     1      -4.891  -3.997  -5.777  0.00  0.00    -0.017 C 
ATOM     27  C   UNL     1      -5.190  -4.071  -4.278  0.00  0.00    -0.082 C 
ENDBRANCH  24  27
BRANCH  24  28
ATOM     28  C   UNL     1      -4.633  -6.427  -4.262  0.00  0.00    -0.082 C 
ATOM     29  C   UNL     1      -6.008  -6.918  -3.804  0.00  0.00    -0.017 C 
ENDBRANCH  24  28
ENDBRANCH  23  24
ENDBRANCH  22  23
ENDBRANCH  18  22
ENDBRANCH   1  19
BRANCH   7  30
ATOM     30  C   UNL     1       2.557   0.818   0.213  0.00  0.00    +0.149 C 
BRANCH  30  31
ATOM     31  C   UNL     1       3.488   0.053   1.117  0.00  0.00    -0.030 A 
ATOM     32  C   UNL     1       4.555   0.698   1.715  0.00  0.00    +0.006 A 
ATOM     33  C   UNL     1       5.413  -0.004   2.541  0.00  0.00    +0.020 A 
ATOM     34  C   UNL     1       5.198  -1.350   2.777  0.00  0.00    +0.041 A 
ATOM     35  C   UNL     1       4.130  -1.995   2.179  0.00  0.00    +0.020 A 
ATOM     36  C   UNL     1       3.276  -1.293   1.350  0.00  0.00    +0.006 A 
ATOM     37 CL   UNL     1       6.271  -2.231   3.819  0.00  0.00    -0.084 Cl
ENDBRANCH  30  31
ENDBRANCH   7  30
TORSDOF 8
