REMARK  Name = ZINC20618174
REMARK  8 active torsions:
REMARK  status: ('A' for Active; 'I' for Inactive)
REMARK    1  A    between atoms: C_1  and  C_2
REMARK    2  A    between atoms: C_5  and  C_21
REMARK    3  A    between atoms: C_7  and  N_8
REMARK    4  A    between atoms: N_23  and  C_24
REMARK    5  A    between atoms: C_24  and  C_25
REMARK    6  A    between atoms: C_25  and  O_26
REMARK    7  A    between atoms: O_26  and  C_27
REMARK    8  A    between atoms: C_31  and  C_33
REMARK                            x       y       z     vdW  Elec       q    Type
REMARK                         _______ _______ _______ _____ _____    ______ ____
ROOT
ATOM      1  C   UNL     1      -8.274  -0.687   2.396  0.00  0.00    +0.046 C 
ATOM      2  C   UNL     1      -6.824  -0.279   2.450  0.00  0.00    -0.025 A 
ATOM      3  C   UNL     1      -5.986  -0.571   1.390  0.00  0.00    +0.006 A 
ATOM      4  C   UNL     1      -4.658  -0.201   1.433  0.00  0.00    +0.013 A 
ATOM      5  C   UNL     1      -4.156   0.471   2.549  0.00  0.00    +0.039 A 
ATOM      6  C   UNL     1      -5.000   0.761   3.620  0.00  0.00    +0.041 A 
ATOM      7  C   UNL     1      -6.335   0.390   3.566  0.00  0.00    +0.070 A 
ENDROOT
BRANCH   7   8
ATOM      8  N   UNL     1      -7.187   0.684   4.635  0.00  0.00    -0.226 NA
ATOM      9  C   UNL     1      -6.738   1.460   5.680  0.00  0.00    +0.155 C 
ATOM     10  N   UNL     1      -5.561   2.072   5.787  0.00  0.00    -0.318 N 
ATOM     11  C   UNL     1      -5.282   2.725   7.021  0.00  0.00    +0.108 C 
ATOM     12  C   UNL     1      -4.164   3.721   7.261  0.00  0.00    +0.189 C 
ATOM     13  S   UNL     1      -4.639   4.346   8.940  0.00  0.00    -0.028 S 
ATOM     14  O   UNL     1      -4.834   5.752   8.873  0.00  0.00    -0.174 OA
ATOM     15  O   UNL     1      -3.747   3.806   9.905  0.00  0.00    -0.174 OA
ATOM     16  C   UNL     1      -6.289   3.513   9.107  0.00  0.00    +0.182 C 
ATOM     17  C   UNL     1      -6.606   3.327   7.619  0.00  0.00    +0.097 C 
ATOM     18  S   UNL     1      -7.614   1.862   7.200  0.00  0.00    -0.084 S 
ATOM     19  H   UNL     1      -4.817   2.087   4.976  0.00  0.00    +0.148 HD
ENDBRANCH   7   8
BRANCH   5  20
ATOM     20  C   UNL     1      -2.732   0.868   2.598  0.00  0.00    +0.244 C 
ATOM     21  O   UNL     1      -2.297   1.453   3.570  0.00  0.00    -0.270 OA
ATOM     22  N   UNL     1      -1.917   0.582   1.563  0.00  0.00    -0.308 N 
ATOM     23  H   UNL     1      -2.311   0.052   0.683  0.00  0.00    +0.149 HD
BRANCH  22  24
ATOM     24  C   UNL     1      -0.507   0.976   1.611  0.00  0.00    +0.145 C 
BRANCH  24  25
ATOM     25  C   UNL     1       0.190   0.535   0.322  0.00  0.00    +0.247 C 
BRANCH  25  26
ATOM     26  O   UNL     1      -0.364   1.247  -0.786  0.00  0.00    -0.490 OA
BRANCH  26  27
ATOM     27  C   UNL     1       0.148   0.971  -2.014  0.00  0.00    +0.121 A 
ATOM     28  C   UNL     1       1.166   0.038  -2.150  0.00  0.00    +0.045 A 
ATOM     29  C   UNL     1       1.681  -0.244  -3.400  0.00  0.00    +0.004 A 
ATOM     30  C   UNL     1       1.189   0.409  -4.515  0.00  0.00    +0.012 A 
ATOM     31  C   UNL     1       0.179   1.343  -4.382  0.00  0.00    +0.058 A 
ATOM     32  C   UNL     1      -0.343   1.625  -3.135  0.00  0.00    +0.058 A 
BRANCH  31  33
ATOM     33  C   UNL     1      -0.354   2.054  -5.600  0.00  0.00    +0.418 C 
ATOM     34  F   UNL     1       0.381   3.225  -5.815  0.00  0.00    -0.166 F 
ATOM     35  F   UNL     1      -0.238   1.219  -6.716  0.00  0.00    -0.166 F 
ATOM     36  F   UNL     1      -1.700   2.379  -5.398  0.00  0.00    -0.166 F 
ENDBRANCH  31  33
ENDBRANCH  26  27
ENDBRANCH  25  26
ENDBRANCH  24  25
ENDBRANCH  22  24
ENDBRANCH   5  20
TORSDOF 7
