REMARK  Name = ZINC65198664
REMARK  7 active torsions:
REMARK  status: ('A' for Active; 'I' for Inactive)
REMARK    1  A    between atoms: C_1  and  C_2
REMARK    2  A    between atoms: N_4  and  C_5
REMARK    3  A    between atoms: C_5  and  C_11
REMARK    4  A    between atoms: N_13  and  N_14
REMARK    5  A    between atoms: N_17  and  C_18
REMARK    6  A    between atoms: C_18  and  C_19
REMARK    7  A    between atoms: C_19  and  C_20
REMARK                            x       y       z     vdW  Elec       q    Type
REMARK                         _______ _______ _______ _____ _____    ______ ____
ROOT
ATOM      1  C   UNL     1      -0.280  -2.617  -1.266  0.00  0.00    +0.253 C 
ATOM      2  O   UNL     1      -0.679  -3.562  -1.912  0.00  0.00    -0.272 OA
ATOM      3  N   UNL     1       0.872  -2.006  -1.607  0.00  0.00    -0.231 N 
ATOM      4  H   UNL     1       1.154  -1.206  -1.136  0.00  0.00    +0.173 HD
ENDROOT
BRANCH   1   5
ATOM      5  C   UNL     1      -1.073  -2.125  -0.083  0.00  0.00    +0.112 C 
ATOM      6  C   UNL     1      -1.941  -3.262   0.458  0.00  0.00    +0.035 C 
ATOM      7  C   UNL     1      -2.746  -2.763   1.659  0.00  0.00    +0.003 C 
ATOM      8  C   UNL     1      -3.641  -1.600   1.226  0.00  0.00    +0.000 C 
ATOM      9  C   UNL     1      -2.772  -0.462   0.685  0.00  0.00    +0.003 C 
ATOM     10  C   UNL     1      -1.967  -0.962  -0.516  0.00  0.00    +0.035 C 
BRANCH   5  14
ATOM     11  C   UNL     1       1.811  -2.001   2.429  0.00  0.00    +0.109 C 
ATOM     12  C   UNL     1       0.797  -2.502   1.434  0.00  0.00    +0.211 C 
ATOM     13  O   UNL     1       0.837  -3.653   1.055  0.00  0.00    -0.276 OA
ATOM     14  N   UNL     1      -0.155  -1.671   0.965  0.00  0.00    -0.302 N 
ATOM     15  H   UNL     1      -0.232  -0.772   1.322  0.00  0.00    +0.150 HD
ENDBRANCH   5  14
ENDBRANCH   1   5
BRANCH   3  16
ATOM     16  N   UNL     1       1.662  -2.526  -2.640  0.00  0.00    -0.218 N 
ATOM     17  C   UNL     1       2.814  -1.915  -2.980  0.00  0.00    +0.316 C 
ATOM     18  O   UNL     1       3.500  -2.367  -3.877  0.00  0.00    -0.251 OA
ATOM     19  N   UNL     1       3.206  -0.803  -2.326  0.00  0.00    -0.298 N 
ATOM     20  H   UNL     1       1.380  -3.326  -3.110  0.00  0.00    +0.174 HD
ATOM     21  H   UNL     1       2.659  -0.443  -1.611  0.00  0.00    +0.150 HD
BRANCH  19  22
ATOM     22  C   UNL     1       4.459  -0.139  -2.696  0.00  0.00    +0.111 C 
BRANCH  22  23
ATOM     23  C   UNL     1       4.667   1.088  -1.807  0.00  0.00    +0.061 C 
BRANCH  23  24
ATOM     24  C   UNL     1       5.955   1.771  -2.188  0.00  0.00    -0.009 A 
ATOM     25  C   UNL     1       6.163   2.755  -3.096  0.00  0.00    +0.011 A 
ATOM     26  C   UNL     1       7.446   3.236  -3.281  0.00  0.00    +0.008 A 
ATOM     27  C   UNL     1       8.458   2.710  -2.549  0.00  0.00    +0.045 A 
ATOM     28  S   UNL     1       7.602   1.500  -1.553  0.00  0.00    -0.102 S 
ENDBRANCH  23  24
ENDBRANCH  22  23
ENDBRANCH  19  22
ENDBRANCH   3  16
TORSDOF 6
