REMARK  Name = ZINC01218546
REMARK  7 active torsions:
REMARK  status: ('A' for Active; 'I' for Inactive)
REMARK    1  A    between atoms: C_1  and  C_2
REMARK    2  A    between atoms: C_5  and  C_8
REMARK    3  A    between atoms: C_8  and  O_10
REMARK    4  A    between atoms: O_10  and  C_11
REMARK    5  A    between atoms: C_15  and  C_17
REMARK    6  A    between atoms: N_21  and  C_28
REMARK    7  A    between atoms: N_24  and  C_27
REMARK                            x       y       z     vdW  Elec       q    Type
REMARK                         _______ _______ _______ _____ _____    ______ ____
ROOT
ATOM      1  C   UNL     1      -0.246   5.280   0.022  0.00  0.00    +0.093 C 
ATOM      2  C   UNL     1      -0.167   3.777  -0.063  0.00  0.00    +0.067 A 
ATOM      3  C   UNL     1       1.017   3.106  -0.052  0.00  0.00    +0.116 A 
ATOM      4  N   UNL     1       1.015   1.731  -0.141  0.00  0.00    -0.284 N 
ATOM      5  C   UNL     1      -0.142   1.053  -0.231  0.00  0.00    +0.333 A 
ATOM      6  O   UNL     1      -0.122  -0.161  -0.309  0.00  0.00    -0.246 OA
ATOM      7  N   UNL     1      -1.322   1.699  -0.243  0.00  0.00    -0.264 N 
ATOM      8  C   UNL     1      -1.366   3.042  -0.156  0.00  0.00    +0.262 A 
ATOM      9  O   UNL     1      -2.439   3.620  -0.162  0.00  0.00    -0.267 OA
ATOM     10  C   UNL     1      -2.569   0.936  -0.345  0.00  0.00    +0.157 C 
ATOM     11  C   UNL     1       2.285   1.002  -0.135  0.00  0.00    +0.155 C 
ATOM     12  N   UNL     1       2.228   3.755   0.050  0.00  0.00    -0.299 N 
ATOM     13  C   UNL     1       2.236   5.075   0.441  0.00  0.00    +0.048 C 
ATOM     14  C   UNL     1       1.091   5.830   0.446  0.00  0.00    +0.034 C 
ATOM     15  C   UNL     1       1.386   7.138   0.892  0.00  0.00    +0.193 C 
ATOM     16  O   UNL     1       0.594   8.053   1.013  0.00  0.00    -0.287 OA
ATOM     17  C   UNL     1       2.835   7.191   1.185  0.00  0.00    +0.031 A 
ATOM     18  C   UNL     1       3.356   5.902   0.901  0.00  0.00    +0.007 A 
ATOM     19  C   UNL     1       4.702   5.624   1.075  0.00  0.00    +0.010 A 
ATOM     20  C   UNL     1       5.510   6.665   1.541  0.00  0.00    +0.001 A 
ATOM     21  C   UNL     1       5.002   7.913   1.815  0.00  0.00    +0.001 A 
ATOM     22  C   UNL     1       3.645   8.210   1.645  0.00  0.00    +0.012 A 
ATOM     23  H   UNL     1       3.057   3.292  -0.148  0.00  0.00    +0.154 HD
ENDROOT
BRANCH   1  28
ATOM     24  C   UNL     1      -2.109   7.100  -2.716  0.00  0.00    +0.132 A 
ATOM     25  C   UNL     1      -1.286   6.868  -3.809  0.00  0.00    +0.046 A 
ATOM     26  C   UNL     1      -0.133   6.123  -3.658  0.00  0.00    +0.004 A 
ATOM     27  C   UNL     1       0.205   5.614  -2.417  0.00  0.00    +0.005 A 
ATOM     28  C   UNL     1      -0.615   5.840  -1.328  0.00  0.00    -0.032 A 
ATOM     29  C   UNL     1      -1.770   6.584  -1.474  0.00  0.00    +0.051 A 
BRANCH  24  30
ATOM     30  O   UNL     1      -3.245   7.832  -2.863  0.00  0.00    -0.422 OA
BRANCH  30  31
ATOM     31  C   UNL     1      -3.270   9.046  -2.279  0.00  0.00    +0.344 C 
ATOM     32  O   UNL     1      -2.270   9.485  -1.746  0.00  0.00    -0.245 OA
BRANCH  31  37
ATOM     33  C   UNL     1      -8.112  12.154  -2.310  0.00  0.00    +0.044 C 
ATOM     34  C   UNL     1      -6.844  11.340  -2.301  0.00  0.00    -0.050 A 
ATOM     35  C   UNL     1      -5.707  11.842  -1.693  0.00  0.00    +0.004 A 
ATOM     36  C   UNL     1      -4.543  11.102  -1.683  0.00  0.00    +0.015 A 
ATOM     37  C   UNL     1      -4.513   9.844  -2.287  0.00  0.00    +0.059 A 
ATOM     38  C   UNL     1      -5.662   9.345  -2.903  0.00  0.00    +0.015 A 
ATOM     39  C   UNL     1      -6.822  10.093  -2.901  0.00  0.00    +0.004 A 
ENDBRANCH  31  37
ENDBRANCH  30  31
ENDBRANCH  24  30
ENDBRANCH   1  28
TORSDOF 4
