REMARK  Name = ZINC03314746
REMARK  7 active torsions:
REMARK  status: ('A' for Active; 'I' for Inactive)
REMARK    1  A    between atoms: C_1  and  C_2
REMARK    2  A    between atoms: C_15  and  C_17
REMARK    3  A    between atoms: C_17  and  O_18
REMARK    4  A    between atoms: O_18  and  C_19
REMARK    5  A    between atoms: C_19  and  C_21
REMARK    6  A    between atoms: N_26  and  S_27
REMARK    7  A    between atoms: S_27  and  C_30
REMARK                            x       y       z     vdW  Elec       q    Type
REMARK                         _______ _______ _______ _____ _____    ______ ____
ROOT
ATOM      1  O   UNL     1      -2.958   4.900   0.091  0.00  0.00    -0.456 OA
ENDROOT
BRANCH   1   2
ATOM      2  C   UNL     1      -4.166   5.413  -0.186  0.00  0.00    +0.327 C 
ATOM      3  O   UNL     1      -4.264   6.552  -0.579  0.00  0.00    -0.249 OA
BRANCH   2   4
ATOM      4  C   UNL     1      -5.402   4.570  -0.007  0.00  0.00    +0.188 C 
ATOM      5  C   UNL     1      -5.668   3.749  -1.287  0.00  0.00    +0.033 C 
ATOM      6  C   UNL     1      -7.214   3.787  -1.409  0.00  0.00    +0.019 C 
ATOM      7  C   UNL     1      -7.533   5.210  -0.887  0.00  0.00    +0.110 C 
ATOM      8  N   UNL     1      -6.572   5.435   0.207  0.00  0.00    -0.163 NA
BRANCH   8   9
ATOM      9  S   UNL     1      -6.775   6.487   1.469  0.00  0.00    +0.062 S 
ATOM     10  O   UNL     1      -5.487   6.703   2.030  0.00  0.00    -0.153 OA
ATOM     11  O   UNL     1      -7.582   7.551   0.985  0.00  0.00    -0.153 OA
BRANCH   9  12
ATOM     12  C   UNL     1      -7.725   5.652   2.696  0.00  0.00    +0.106 A 
ATOM     13  C   UNL     1      -9.106   5.667   2.629  0.00  0.00    +0.030 A 
ATOM     14  C   UNL     1      -9.852   5.007   3.587  0.00  0.00    +0.022 A 
ATOM     15  C   UNL     1      -9.216   4.342   4.621  0.00  0.00    +0.041 A 
ATOM     16  C   UNL     1      -7.835   4.333   4.691  0.00  0.00    +0.022 A 
ATOM     17  C   UNL     1      -7.090   4.988   3.728  0.00  0.00    +0.030 A 
ATOM     18 CL   UNL     1     -10.153   3.519   5.829  0.00  0.00    -0.084 Cl
ENDBRANCH   9  12
ENDBRANCH   8   9
ENDBRANCH   2   4
ENDBRANCH   1   2
BRANCH   1  19
ATOM     19  C   UNL     1      -1.811   5.770  -0.104  0.00  0.00    +0.306 C 
BRANCH  19  33
ATOM     20  C   UNL     1       5.911   0.027   2.584  0.00  0.00    +0.008 C 
ATOM     21  C   UNL     1       4.849   1.119   2.434  0.00  0.00    -0.009 C 
ATOM     22  C   UNL     1       5.220   2.040   1.268  0.00  0.00    +0.008 C 
ATOM     23  C   UNL     1       4.309   3.268   1.266  0.00  0.00    +0.037 C 
ATOM     24  C   UNL     1       2.856   2.802   1.300  0.00  0.00    -0.023 A 
ATOM     25  C   UNL     1       2.542   1.550   1.696  0.00  0.00    -0.004 A 
ATOM     26  S   UNL     1       0.776   1.460   1.575  0.00  0.00    -0.073 S 
ATOM     27  C   UNL     1       0.465   3.107   0.992  0.00  0.00    +0.116 A 
ATOM     28  C   UNL     1       1.747   3.672   0.911  0.00  0.00    +0.075 A 
ATOM     29  C   UNL     1       1.799   5.031   0.456  0.00  0.00    +0.260 A 
ATOM     30  O   UNL     1       2.866   5.609   0.352  0.00  0.00    -0.267 OA
ATOM     31  N   UNL     1       0.648   5.657   0.145  0.00  0.00    -0.308 N 
ATOM     32  H   UNL     1       0.677   6.604  -0.173  0.00  0.00    +0.170 HD
ATOM     33  C   UNL     1      -0.550   5.027   0.255  0.00  0.00    +0.149 A 
ATOM     34  N   UNL     1      -0.629   3.789   0.662  0.00  0.00    -0.223 NA
ATOM     35  C   UNL     1       3.487   0.476   2.141  0.00  0.00    +0.046 C 
ENDBRANCH  19  33
ENDBRANCH   1  19
TORSDOF 6
