REMARK  Name = ZINC40990703
REMARK  7 active torsions:
REMARK  status: ('A' for Active; 'I' for Inactive)
REMARK    1  A    between atoms: C_1  and  C_2
REMARK    2  A    between atoms: C_2  and  C_3
REMARK    3  A    between atoms: C_3  and  C_5
REMARK    4  A    between atoms: C_3  and  N_6
REMARK    5  A    between atoms: N_6  and  C_7
REMARK    6  A    between atoms: N_6  and  C_8
REMARK    7  A    between atoms: C_8  and  C_9
REMARK                            x       y       z     vdW  Elec       q    Type
REMARK                         _______ _______ _______ _____ _____    ______ ____
ROOT
ATOM      1  N   UNL     1      -2.053  -0.037  -1.093  0.00  0.00    +0.380 N 
ATOM      2  C   UNL     1      -1.881   1.417  -1.203  0.00  0.00    -0.096 C 
ATOM      3  H   UNL     1      -1.695  -0.482  -1.924  0.00  0.00    -0.082 HD
ENDROOT
BRANCH   1   4
ATOM      4  C   UNL     1      -1.320  -0.530   0.081  0.00  0.00    -0.072 C 
ATOM      5  C   UNL     1      -1.961   0.028   1.353  0.00  0.00    -0.013 C 
BRANCH   4   7
ATOM      6  C   UNL     1      -0.621  -2.619  -1.098  0.00  0.00    +0.002 C 
ATOM      7  C   UNL     1      -1.373  -2.059   0.111  0.00  0.00    -0.019 C 
ENDBRANCH   4   7
ENDBRANCH   1   4
BRANCH   1   8
ATOM      8  C   UNL     1      -3.481  -0.352  -0.946  0.00  0.00    -0.067 C 
BRANCH   8   9
ATOM      9  C   UNL     1      -4.225   0.049  -2.222  0.00  0.00    +0.061 C 
ATOM     10 BR   UNL     1      -6.135  -0.372  -2.025  0.00  0.00    -0.094 Br
ENDBRANCH   8   9
ENDBRANCH   1   8
TORSDOF 4
