REMARK  Name = ZINC02634224
REMARK  7 active torsions:
REMARK  status: ('A' for Active; 'I' for Inactive)
REMARK    1  A    between atoms: C_6  and  C_7
REMARK    2  A    between atoms: C_11  and  S_13
REMARK    3  A    between atoms: S_13  and  C_14
REMARK    4  A    between atoms: C_14  and  C_15
REMARK    5  A    between atoms: N_17  and  C_18
REMARK    6  A    between atoms: C_18  and  C_19
REMARK    7  A    between atoms: C_19  and  C_20
REMARK                            x       y       z     vdW  Elec       q    Type
REMARK                         _______ _______ _______ _____ _____    ______ ____
ROOT
ATOM      1  C   UNL     1      -0.997   1.758  -3.630  0.00  0.00    +0.173 C 
ENDROOT
BRANCH   1   2
ATOM      2  C   UNL     1      -0.268   1.258  -2.409  0.00  0.00    +0.223 C 
ATOM      3  O   UNL     1       0.726   0.575  -2.534  0.00  0.00    -0.275 OA
ATOM      4  N   UNL     1      -0.721   1.571  -1.179  0.00  0.00    -0.314 N 
ATOM      5  H   UNL     1      -1.623   2.191  -1.066  0.00  0.00    +0.149 HD
BRANCH   4   6
ATOM      6  C   UNL     1      -0.013   1.086   0.008  0.00  0.00    +0.109 C 
BRANCH   6   7
ATOM      7  C   UNL     1      -0.729   1.579   1.267  0.00  0.00    +0.055 C 
BRANCH   7   8
ATOM      8  C   UNL     1       0.000   1.080   2.488  0.00  0.00    -0.027 A 
ATOM      9  C   UNL     1       0.863   1.919   3.168  0.00  0.00    +0.006 A 
ATOM     10  C   UNL     1       1.532   1.462   4.288  0.00  0.00    +0.020 A 
ATOM     11  C   UNL     1       1.337   0.164   4.729  0.00  0.00    +0.042 A 
ATOM     12  C   UNL     1       0.474  -0.675   4.049  0.00  0.00    +0.040 A 
ATOM     13  C   UNL     1      -0.199  -0.215   2.930  0.00  0.00    +0.046 A 
ATOM     14 CL   UNL     1      -1.288  -1.266   2.080  0.00  0.00    -0.083 Cl
ATOM     15 CL   UNL     1       2.177  -0.410   6.136  0.00  0.00    -0.083 Cl
ENDBRANCH   7   8
ENDBRANCH   6   7
ENDBRANCH   4   6
ENDBRANCH   1   2
BRANCH   1  16
ATOM     16  S   UNL     1      -0.148   1.173  -5.122  0.00  0.00    -0.077 S 
BRANCH  16  21
ATOM     17  C   UNL     1      -1.772   2.284  -8.459  0.00  0.00    +0.182 A 
ATOM     18  N   UNL     1      -2.640   2.870  -7.605  0.00  0.00    -0.152 NA
ATOM     19  H   UNL     1      -2.737   2.942  -5.434  0.00  0.00    +0.191 HD
ATOM     20  N   UNL     1      -2.188   2.566  -6.311  0.00  0.00    -0.253 N 
ATOM     21  C   UNL     1      -1.108   1.831  -6.445  0.00  0.00    +0.185 A 
ATOM     22  N   UNL     1      -0.856   1.662  -7.744  0.00  0.00    -0.201 NA
BRANCH  17  28
ATOM     23  C   UNL     1      -2.866   3.034 -10.569  0.00  0.00    +0.013 A 
ATOM     24  C   UNL     1      -2.920   3.079 -11.947  0.00  0.00    +0.016 A 
ATOM     25  C   UNL     1      -1.964   2.420 -12.702  0.00  0.00    +0.018 A 
ATOM     26  C   UNL     1      -0.946   1.718 -12.080  0.00  0.00    +0.016 A 
ATOM     27  C   UNL     1      -0.879   1.670 -10.703  0.00  0.00    +0.013 A 
ATOM     28  C   UNL     1      -1.839   2.332  -9.937  0.00  0.00    +0.021 A 
ATOM     29 BR   UNL     1      -2.051   2.480 -14.590  0.00  0.00    -0.050 Br
ENDBRANCH  17  28
ENDBRANCH  16  21
ENDBRANCH   1  16
TORSDOF 7
