REMARK  Name = ZINC63399763
REMARK  14 active torsions:
REMARK  status: ('A' for Active; 'I' for Inactive)
REMARK    1  A    between atoms: C_1  and  C_2
REMARK    2  A    between atoms: C_3  and  C_32
REMARK    3  A    between atoms: C_4  and  C_31
REMARK    4  A    between atoms: C_7  and  C_8
REMARK    5  A    between atoms: C_8  and  C_10
REMARK    6  A    between atoms: C_10  and  C_12
REMARK    7  A    between atoms: C_10  and  O_13
REMARK    8  A    between atoms: O_13  and  C_14
REMARK    9  A    between atoms: C_14  and  C_16
REMARK   10  A    between atoms: C_21  and  O_22
REMARK   11  A    between atoms: O_22  and  C_23
REMARK   12  A    between atoms: C_23  and  C_24
REMARK   13  A    between atoms: C_26  and  C_30
REMARK   14  A    between atoms: C_32  and  C_34
REMARK                            x       y       z     vdW  Elec       q    Type
REMARK                         _______ _______ _______ _____ _____    ______ ____
ROOT
ATOM      1  C   UNL     1      -1.720  -2.568   5.335  0.00  0.00    +0.343 C 
ATOM      2  O   UNL     1      -1.731  -3.702   4.899  0.00  0.00    -0.245 OA
ENDROOT
BRANCH   1   3
ATOM      3  C   UNL     1      -2.426  -2.254   6.590  0.00  0.00    +0.101 A 
ATOM      4  C   UNL     1      -2.420  -0.950   7.093  0.00  0.00    +0.018 A 
ATOM      5  C   UNL     1      -3.083  -0.664   8.267  0.00  0.00    +0.001 A 
ATOM      6  C   UNL     1      -3.754  -1.663   8.952  0.00  0.00    +0.004 A 
ATOM      7  C   UNL     1      -3.768  -2.955   8.467  0.00  0.00    +0.046 A 
ATOM      8  C   UNL     1      -3.112  -3.261   7.284  0.00  0.00    +0.135 A 
BRANCH   8   9
ATOM      9  O   UNL     1      -3.130  -4.529   6.803  0.00  0.00    -0.484 OA
BRANCH   9  10
ATOM     10  C   UNL     1      -3.849  -5.502   7.564  0.00  0.00    +0.302 C 
BRANCH  10  11
ATOM     11  C   UNL     1      -3.758  -6.842   6.880  0.00  0.00    +0.141 C 
ATOM     12  N   UNL     1      -4.311  -7.917   7.323  0.00  0.00    -0.344 N 
ATOM     13  C   UNL     1      -4.008  -9.018   6.400  0.00  0.00    +0.240 C 
ATOM     14  O   UNL     1      -3.205  -8.432   5.364  0.00  0.00    -0.249 OA
ATOM     15  N   UNL     1      -3.085  -7.062   5.714  0.00  0.00    -0.248 N 
ATOM     16  C   UNL     1      -3.226 -10.117   7.123  0.00  0.00    +0.065 C 
ATOM     17  H   UNL     1      -2.600  -6.391   5.208  0.00  0.00    +0.196 HD
ATOM     18  H   UNL     1      -4.839  -7.988   8.133  0.00  0.00    +0.163 HD
ENDBRANCH  10  11
ENDBRANCH   9  10
ENDBRANCH   8   9
ENDBRANCH   1   3
BRANCH   1  19
ATOM     19  O   UNL     1      -1.061  -1.597   4.671  0.00  0.00    -0.450 OA
BRANCH  19  20
ATOM     20  C   UNL     1      -0.399  -1.972   3.462  0.00  0.00    +0.246 C 
ATOM     21  C   UNL     1       1.034  -2.406   3.779  0.00  0.00    +0.061 C 
BRANCH  20  22
ATOM     22  C   UNL     1      -0.371  -0.797   2.519  0.00  0.00    +0.219 C 
ATOM     23  O   UNL     1      -0.525   0.329   2.947  0.00  0.00    -0.287 OA
BRANCH  22  30
ATOM     24  C   UNL     1      -0.275   1.458   0.383  0.00  0.00    +0.047 C 
ATOM     25  C   UNL     1      -0.118  -0.026   0.167  0.00  0.00    -0.012 A 
ATOM     26  C   UNL     1       0.111  -0.678  -1.065  0.00  0.00    +0.041 A 
ATOM     27  C   UNL     1       0.189  -2.038  -0.799  0.00  0.00    +0.024 A 
ATOM     28  N   UNL     1       0.018  -2.227   0.517  0.00  0.00    -0.355 N 
ATOM     29  H   UNL     1       0.028  -3.086   0.966  0.00  0.00    +0.166 HD
ATOM     30  C   UNL     1      -0.166  -1.006   1.134  0.00  0.00    +0.090 A 
ATOM     31  C   UNL     1       0.424  -3.121  -1.819  0.00  0.00    +0.064 C 
BRANCH  26  32
ATOM     32  C   UNL     1       0.242  -0.039  -2.379  0.00  0.00    +0.162 C 
ATOM     33  O   UNL     1      -0.746   0.181  -3.047  0.00  0.00    -0.292 OA
ATOM     34  C   UNL     1       1.604   0.344  -2.898  0.00  0.00    +0.091 C 
ENDBRANCH  26  32
ENDBRANCH  22  30
ENDBRANCH  20  22
ENDBRANCH  19  20
ENDBRANCH   1  19
TORSDOF 9
