REMARK  Name = ZINC09227617
REMARK  9 active torsions:
REMARK  status: ('A' for Active; 'I' for Inactive)
REMARK    1  A    between atoms: C_1  and  C_2
REMARK    2  A    between atoms: C_2  and  C_3
REMARK    3  A    between atoms: C_2  and  C_4
REMARK    4  A    between atoms: C_4  and  N_5
REMARK    5  A    between atoms: C_7  and  N_16
REMARK    6  A    between atoms: N_19  and  C_20
REMARK    7  A    between atoms: C_20  and  C_21
REMARK    8  A    between atoms: C_24  and  C_26
REMARK    9  A    between atoms: C_26  and  N_67
REMARK                            x       y       z     vdW  Elec       q    Type
REMARK                         _______ _______ _______ _____ _____    ______ ____
ROOT
ATOM      1  N   UNL     1       2.705   6.344  -2.889  0.00  0.00    -0.268 N 
ATOM      2  C   UNL     1       2.638   5.866  -1.630  0.00  0.00    +0.304 C 
ATOM      3  O   UNL     1       3.238   6.428  -0.734  0.00  0.00    -0.252 OA
ATOM      4  N   UNL     1       1.907   4.766  -1.366  0.00  0.00    -0.292 N 
ATOM      5  H   UNL     1       2.289   5.856  -3.616  0.00  0.00    +0.156 HD
ATOM      6  H   UNL     1       1.428   4.318  -2.081  0.00  0.00    +0.151 HD
ENDROOT
BRANCH   1   9
ATOM      7  N   UNL     1       5.114   8.726  -4.270  0.00  0.00    -0.313 N 
ATOM      8  C   UNL     1       4.430   7.574  -3.990  0.00  0.00    +0.113 A 
ATOM      9  C   UNL     1       3.378   7.549  -3.147  0.00  0.00    +0.059 A 
ATOM     10  C   UNL     1       2.940   8.794  -2.506  0.00  0.00    +0.010 A 
ATOM     11  C   UNL     1       1.863   8.830  -1.620  0.00  0.00    +0.010 A 
ATOM     12  C   UNL     1       1.502  10.018  -1.047  0.00  0.00    +0.001 A 
ATOM     13  C   UNL     1       2.197  11.187  -1.331  0.00  0.00    +0.001 A 
ATOM     14  C   UNL     1       3.260  11.180  -2.192  0.00  0.00    +0.014 A 
ATOM     15  C   UNL     1       3.651   9.982  -2.791  0.00  0.00    +0.048 A 
ATOM     16  C   UNL     1       4.782   9.912  -3.721  0.00  0.00    +0.259 A 
ATOM     17  O   UNL     1       5.416  10.915  -3.996  0.00  0.00    -0.267 OA
BRANCH   7  18
ATOM     18  C   UNL     1       6.246   8.669  -5.198  0.00  0.00    +0.128 C 
BRANCH  18  20
ATOM     19  C   UNL     1       6.944   8.974  -7.577  0.00  0.00    +0.009 C 
ATOM     20  C   UNL     1       5.749   8.910  -6.625  0.00  0.00    +0.003 C 
ATOM     21  C   UNL     1       4.824   7.765  -7.043  0.00  0.00    +0.009 C 
ENDBRANCH  18  20
ENDBRANCH   7  18
ENDBRANCH   1   9
BRANCH   4  22
ATOM     22  C   UNL     1       1.834   4.246   0.002  0.00  0.00    +0.180 C 
BRANCH  22  23
ATOM     23  C   UNL     1       0.959   3.019   0.027  0.00  0.00    +0.122 A 
ATOM     24  C   UNL     1       1.375   1.752  -0.151  0.00  0.00    +0.046 A 
ATOM     25  C   UNL     1       0.232   0.927  -0.048  0.00  0.00    +0.043 A 
ATOM     26  C   UNL     1      -0.816   1.739   0.182  0.00  0.00    +0.089 A 
ATOM     27  O   UNL     1      -0.368   3.005   0.232  0.00  0.00    -0.465 OA
BRANCH  26  28
ATOM     28  C   UNL     1      -2.247   1.303   0.358  0.00  0.00    -0.003 C 
BRANCH  28  35
ATOM     29  C   UNL     1      -1.641  -0.050   2.284  0.00  0.00    -0.078 C 
ATOM     30  C   UNL     1      -2.052  -0.540   3.645  0.00  0.00    -0.019 C 
ATOM     31  C   UNL     1      -2.993  -1.750   3.466  0.00  0.00    -0.002 C 
ATOM     32  C   UNL     1      -4.350  -1.345   3.114  0.00  0.00    -0.002 C 
ATOM     33  C   UNL     1      -4.399  -0.574   1.778  0.00  0.00    -0.019 C 
ATOM     34  C   UNL     1      -3.953   0.841   2.027  0.00  0.00    -0.078 C 
ATOM     35  N   UNL     1      -2.489   1.089   1.794  0.00  0.00    +0.384 N 
ATOM     36  H   UNL     1      -2.220   1.938   2.306  0.00  0.00    -0.081 HD
ENDBRANCH  28  35
ENDBRANCH  26  28
ENDBRANCH  22  23
ENDBRANCH   4  22
TORSDOF 7
