REMARK  Name = ZINC09722766
REMARK  10 active torsions:
REMARK  status: ('A' for Active; 'I' for Inactive)
REMARK    1  A    between atoms: C_1  and  C_2
REMARK    2  A    between atoms: C_3  and  S_14
REMARK    3  A    between atoms: C_4  and  C_7
REMARK    4  A    between atoms: C_8  and  C_9
REMARK    5  A    between atoms: S_14  and  N_17
REMARK    6  A    between atoms: C_20  and  C_23
REMARK    7  A    between atoms: N_25  and  C_26
REMARK    8  A    between atoms: C_26  and  C_27
REMARK    9  A    between atoms: C_27  and  N_68
REMARK   10  A    between atoms: C_32  and  C_34
REMARK                            x       y       z     vdW  Elec       q    Type
REMARK                         _______ _______ _______ _____ _____    ______ ____
ROOT
ATOM      1  N   UNL     1       0.371   1.547   1.331  0.00  0.00    -0.176 NA
ATOM      2  C   UNL     1       1.688   2.120   1.015  0.00  0.00    +0.110 C 
ATOM      3  C   UNL     1       2.122   1.622  -0.367  0.00  0.00    +0.030 C 
ATOM      4  C   UNL     1       1.031   1.950  -1.390  0.00  0.00    +0.077 C 
ATOM      5  C   UNL     1      -0.265   1.233  -1.004  0.00  0.00    +0.030 C 
ATOM      6  C   UNL     1      -0.727   1.726   0.371  0.00  0.00    +0.110 C 
ENDROOT
BRANCH   4   7
ATOM      7  C   UNL     1       1.470   1.492  -2.757  0.00  0.00    +0.216 C 
ATOM      8  O   UNL     1       2.549   0.956  -2.899  0.00  0.00    -0.276 OA
ATOM      9  N   UNL     1       0.664   1.678  -3.821  0.00  0.00    -0.317 N 
ATOM     10  H   UNL     1      -0.199   2.106  -3.707  0.00  0.00    +0.149 HD
BRANCH   9  11
ATOM     11  C   UNL     1       1.091   1.233  -5.150  0.00  0.00    +0.085 C 
BRANCH  11  12
ATOM     12  C   UNL     1       0.001   1.560  -6.172  0.00  0.00    -0.059 C 
BRANCH  12  19
ATOM     13  C   UNL     1       0.490  -0.352  -7.574  0.00  0.00    -0.078 C 
ATOM     14  C   UNL     1       1.076  -0.776  -8.923  0.00  0.00    -0.019 C 
ATOM     15  C   UNL     1       0.197  -0.228 -10.051  0.00  0.00    -0.003 C 
ATOM     16  C   UNL     1       0.111   1.295  -9.927  0.00  0.00    -0.016 C 
ATOM     17  C   UNL     1      -0.448   1.659  -8.549  0.00  0.00    -0.072 C 
ATOM     18  C   UNL     1      -0.517   3.182  -8.413  0.00  0.00    -0.013 C 
ATOM     19  N   UNL     1       0.457   1.125  -7.508  0.00  0.00    +0.382 N 
ATOM     20  H   UNL     1       1.403   1.487  -7.672  0.00  0.00    -0.081 HD
ENDBRANCH  12  19
ENDBRANCH  11  12
ENDBRANCH   9  11
ENDBRANCH   4   7
BRANCH   1  21
ATOM     21  S   UNL     1       0.131   0.716   2.743  0.00  0.00    +0.066 S 
ATOM     22  O   UNL     1       1.117   1.174   3.657  0.00  0.00    -0.153 OA
ATOM     23  O   UNL     1      -1.261   0.786   3.023  0.00  0.00    -0.153 OA
BRANCH  21  26
ATOM     24  C   UNL     1       3.035  -1.034   2.984  0.00  0.00    +0.071 C 
ATOM     25  C   UNL     1       1.729  -1.641   2.540  0.00  0.00    +0.107 A 
ATOM     26  C   UNL     1       0.493  -0.978   2.418  0.00  0.00    +0.174 A 
ATOM     27  C   UNL     1      -0.371  -1.972   1.988  0.00  0.00    +0.187 A 
ATOM     28  O   UNL     1       0.375  -3.088   1.884  0.00  0.00    -0.353 OA
ATOM     29  N   UNL     1       1.524  -2.881   2.195  0.00  0.00    -0.081 NA
BRANCH  27  30
ATOM     30  C   UNL     1      -1.800  -1.835   1.704  0.00  0.00    +0.054 C 
ATOM     31  C   UNL     1      -2.512  -2.908   1.289  0.00  0.00    +0.050 C 
BRANCH  31  32
ATOM     32  C   UNL     1      -3.940  -2.772   1.005  0.00  0.00    +0.128 A 
ATOM     33  C   UNL     1      -4.772  -3.768   0.576  0.00  0.00    +0.049 A 
ATOM     34  C   UNL     1      -6.048  -3.196   0.436  0.00  0.00    +0.042 A 
ATOM     35  C   UNL     1      -5.939  -1.893   0.771  0.00  0.00    +0.195 A 
ATOM     36  O   UNL     1      -4.666  -1.641   1.114  0.00  0.00    -0.464 OA
ENDBRANCH  31  32
ENDBRANCH  27  30
ENDBRANCH  21  26
ENDBRANCH   1  21
TORSDOF 8
