REMARK  Name = ZINC67292471
REMARK  5 active torsions:
REMARK  status: ('A' for Active; 'I' for Inactive)
REMARK    1  A    between atoms: C_3  and  C_29
REMARK    2  A    between atoms: C_5  and  N_7
REMARK    3  A    between atoms: C_9  and  C_19
REMARK    4  A    between atoms: N_21  and  C_22
REMARK    5  A    between atoms: C_22  and  C_23
REMARK                            x       y       z     vdW  Elec       q    Type
REMARK                         _______ _______ _______ _____ _____    ______ ____
ROOT
ATOM      1  N   UNL     1       1.258  -2.052  -0.019  0.00  0.00    -0.325 N 
ATOM      2  C   UNL     1       0.471  -2.728   0.790  0.00  0.00    +0.212 A 
ATOM      3  C   UNL     1       0.402  -4.202   0.728  0.00  0.00    +0.097 A 
ATOM      4  C   UNL     1       0.045  -4.868   1.893  0.00  0.00    +0.030 A 
ATOM      5  C   UNL     1      -0.229  -4.052   3.078  0.00  0.00    +0.019 A 
ATOM      6  C   UNL     1      -0.331  -4.639   4.344  0.00  0.00    +0.026 A 
ATOM      7  C   UNL     1      -0.586  -3.849   5.443  0.00  0.00    +0.019 A 
ATOM      8  C   UNL     1      -0.741  -2.476   5.299  0.00  0.00    +0.019 A 
ATOM      9  C   UNL     1      -0.644  -1.883   4.057  0.00  0.00    +0.048 A 
ATOM     10  C   UNL     1      -0.390  -2.660   2.936  0.00  0.00    +0.137 A 
ATOM     11  O   UNL     1      -0.296  -2.093   1.712  0.00  0.00    -0.439 OA
ATOM     12 BR   UNL     1      -0.726  -4.636   7.156  0.00  0.00    -0.050 Br
ATOM     13  H   UNL     1       1.864  -2.523  -0.612  0.00  0.00    +0.169 HD
ENDROOT
BRANCH   1  18
ATOM     14  C   UNL     1      -0.037   1.362  -0.033  0.00  0.00    +0.003 A 
ATOM     15  C   UNL     1       1.144   2.083  -0.037  0.00  0.00    +0.012 A 
ATOM     16  C   UNL     1       2.363   1.428  -0.035  0.00  0.00    +0.057 A 
ATOM     17  C   UNL     1       2.408   0.050  -0.029  0.00  0.00    +0.038 A 
ATOM     18  C   UNL     1       1.220  -0.685  -0.025  0.00  0.00    +0.042 A 
ATOM     19  C   UNL     1      -0.007  -0.017  -0.027  0.00  0.00    +0.026 A 
BRANCH  16  20
ATOM     20  C   UNL     1       3.643   2.223  -0.041  0.00  0.00    +0.417 C 
ATOM     21  F   UNL     1       3.344   3.590  -0.047  0.00  0.00    -0.166 F 
ATOM     22  F   UNL     1       4.388   1.914   1.102  0.00  0.00    -0.166 F 
ATOM     23  F   UNL     1       4.386   1.903  -1.182  0.00  0.00    -0.166 F 
ENDBRANCH  16  20
ENDBRANCH   1  18
BRANCH   3  24
ATOM     24  C   UNL     1       0.696  -4.933  -0.516  0.00  0.00    +0.249 C 
ATOM     25  O   UNL     1       1.091  -4.330  -1.497  0.00  0.00    -0.270 OA
ATOM     26  N   UNL     1       0.530  -6.269  -0.568  0.00  0.00    -0.309 N 
ATOM     27  H   UNL     1       0.145  -6.740   0.188  0.00  0.00    +0.149 HD
BRANCH  26  28
ATOM     28  C   UNL     1       0.928  -7.011  -1.767  0.00  0.00    +0.136 C 
BRANCH  28  29
ATOM     29  C   UNL     1       0.634  -8.499  -1.567  0.00  0.00    +0.135 C 
ATOM     30  C   UNL     1       1.161  -9.304  -2.774  0.00  0.00    +0.035 C 
ATOM     31  C   UNL     1       0.044 -10.364  -2.977  0.00  0.00    +0.031 C 
ATOM     32  C   UNL     1      -1.211  -9.550  -2.574  0.00  0.00    +0.160 C 
ATOM     33  O   UNL     1      -0.780  -8.709  -1.489  0.00  0.00    -0.375 OA
ENDBRANCH  28  29
ENDBRANCH  26  28
ENDBRANCH   3  24
TORSDOF 5
