REMARK  Name = ZINC44880654
REMARK  10 active torsions:
REMARK  status: ('A' for Active; 'I' for Inactive)
REMARK    1  A    between atoms: C_1  and  C_2
REMARK    2  A    between atoms: C_5  and  C_35
REMARK    3  A    between atoms: C_6  and  N_8
REMARK    4  A    between atoms: N_8  and  S_9
REMARK    5  A    between atoms: S_9  and  C_12
REMARK    6  A    between atoms: C_14  and  C_19
REMARK    7  A    between atoms: N_21  and  C_22
REMARK    8  A    between atoms: C_22  and  C_23
REMARK    9  A    between atoms: C_28  and  N_29
REMARK   10  A    between atoms: C_33  and  C_34
REMARK                            x       y       z     vdW  Elec       q    Type
REMARK                         _______ _______ _______ _____ _____    ______ ____
ROOT
ATOM      1  C   UNL     1       0.070  -3.186   5.114  0.00  0.00    +0.129 A 
ATOM      2  C   UNL     1       1.156  -3.271   5.960  0.00  0.00    +0.043 A 
ATOM      3  C   UNL     1       1.172  -4.228   6.976  0.00  0.00    +0.039 A 
ATOM      4  C   UNL     1       0.087  -5.093   7.131  0.00  0.00    +0.014 A 
ATOM      5  C   UNL     1      -0.993  -4.998   6.279  0.00  0.00    +0.023 A 
ATOM      6  C   UNL     1      -1.006  -4.043   5.276  0.00  0.00    +0.068 A 
ATOM      7 CL   UNL     1      -2.373  -3.925   4.212  0.00  0.00    -0.082 Cl
ENDROOT
BRANCH   3   8
ATOM      8  C   UNL     1       2.333  -4.324   7.886  0.00  0.00    +0.244 C 
ATOM      9  O   UNL     1       3.277  -3.570   7.749  0.00  0.00    -0.270 OA
ATOM     10  N   UNL     1       2.346  -5.249   8.866  0.00  0.00    -0.307 N 
ATOM     11  H   UNL     1       1.593  -5.851   8.975  0.00  0.00    +0.149 HD
BRANCH  10  12
ATOM     12  C   UNL     1       3.497  -5.345   9.768  0.00  0.00    +0.142 C 
BRANCH  12  13
ATOM     13  C   UNL     1       3.263  -6.449  10.766  0.00  0.00    -0.006 A 
ATOM     14  C   UNL     1       2.825  -6.148  12.041  0.00  0.00    +0.007 A 
ATOM     15  C   UNL     1       2.611  -7.160  12.957  0.00  0.00    +0.000 A 
ATOM     16  C   UNL     1       2.833  -8.478  12.600  0.00  0.00    +0.002 A 
ATOM     17  C   UNL     1       3.270  -8.786  11.327  0.00  0.00    +0.026 A 
ATOM     18  C   UNL     1       3.481  -7.771  10.403  0.00  0.00    +0.052 A 
BRANCH  18  19
ATOM     19  N   UNL     1       3.920  -8.081   9.107  0.00  0.00    -0.305 N 
ATOM     20  C   UNL     1       3.223  -8.782   8.157  0.00  0.00    +0.110 A 
ATOM     21  C   UNL     1       4.010  -8.848   7.067  0.00  0.00    +0.102 A 
ATOM     22  N   UNL     1       5.157  -8.207   7.338  0.00  0.00    -0.350 N 
ATOM     23  C   UNL     1       5.112  -7.738   8.555  0.00  0.00    +0.088 A 
ATOM     24  C   UNL     1       6.202  -6.950   9.235  0.00  0.00    +0.084 C 
ATOM     25  H   UNL     1       5.901  -8.104   6.724  0.00  0.00    +0.166 HD
ENDBRANCH  18  19
ENDBRANCH  12  13
ENDBRANCH  10  12
ENDBRANCH   3   8
BRANCH   1  26
ATOM     26  S   UNL     1       0.048  -1.979   3.830  0.00  0.00    +0.093 S 
ATOM     27  O   UNL     1       1.284  -1.283   3.906  0.00  0.00    -0.148 OA
ATOM     28  O   UNL     1      -1.206  -1.316   3.918  0.00  0.00    -0.148 OA
BRANCH  26  29
ATOM     29  N   UNL     1       0.051  -2.796   2.390  0.00  0.00    -0.098 NA
BRANCH  29  35
ATOM     30  C   UNL     1      -0.018   1.503   0.010  0.00  0.00    +0.044 C 
ATOM     31  C   UNL     1       0.002  -0.004   0.002  0.00  0.00    -0.049 A 
ATOM     32  C   UNL     1       0.006  -0.688  -1.200  0.00  0.00    +0.004 A 
ATOM     33  C   UNL     1       0.024  -2.071  -1.212  0.00  0.00    +0.005 A 
ATOM     34  C   UNL     1       0.039  -2.773  -0.023  0.00  0.00    -0.026 A 
ATOM     35  C   UNL     1       0.036  -2.089   1.186  0.00  0.00    +0.077 A 
ATOM     36  C   UNL     1       0.023  -0.700   1.194  0.00  0.00    +0.030 A 
ATOM     37  C   UNL     1       0.059  -4.280  -0.037  0.00  0.00    +0.046 C 
ENDBRANCH  29  35
ENDBRANCH  26  29
ENDBRANCH   1  26
TORSDOF 7
