REMARK  Name = ZINC13733603
REMARK  6 active torsions:
REMARK  status: ('A' for Active; 'I' for Inactive)
REMARK    1  A    between atoms: C_1  and  O_2
REMARK    2  A    between atoms: O_2  and  C_3
REMARK    3  A    between atoms: C_3  and  C_5
REMARK    4  A    between atoms: C_8  and  O_11
REMARK    5  A    between atoms: O_11  and  C_12
REMARK    6  A    between atoms: N_24  and  C_27
REMARK                            x       y       z     vdW  Elec       q    Type
REMARK                         _______ _______ _______ _____ _____    ______ ____
ROOT
ATOM      1  C   UNL     1       1.415  -6.863   2.302  0.00  0.00    +0.210 A 
ATOM      2  C   UNL     1       1.915  -6.172   3.345  0.00  0.00    +0.245 A 
ATOM      3  O   UNL     1       2.486  -6.766   4.401  0.00  0.00    -0.459 OA
ATOM      4  C   UNL     1       2.606  -8.106   4.499  0.00  0.00    +0.147 A 
ATOM      5  C   UNL     1       2.117  -8.928   3.469  0.00  0.00    +0.068 A 
ATOM      6  C   UNL     1       1.480  -8.286   2.305  0.00  0.00    +0.235 A 
ATOM      7  O   UNL     1       1.033  -8.945   1.382  0.00  0.00    -0.283 OA
ATOM      8  C   UNL     1       2.234 -10.315   3.561  0.00  0.00    +0.019 A 
ATOM      9  C   UNL     1       2.827 -10.871   4.657  0.00  0.00    +0.047 A 
ATOM     10  C   UNL     1       3.317 -10.065   5.686  0.00  0.00    +0.130 A 
ATOM     11  C   UNL     1       3.209  -8.688   5.607  0.00  0.00    +0.051 A 
ATOM     12  C   UNL     1       3.743  -7.806   6.706  0.00  0.00    +0.130 C 
ATOM     13  N   UNL     1       3.950  -8.604   7.923  0.00  0.00    -0.263 NA
ATOM     14  C   UNL     1       4.705  -9.826   7.604  0.00  0.00    +0.319 C 
ATOM     15  O   UNL     1       3.899 -10.654   6.763  0.00  0.00    -0.476 OA
ENDROOT
BRANCH  13  16
ATOM     16  C   UNL     1       4.633  -7.818   8.959  0.00  0.00    +0.060 C 
ATOM     17  C   UNL     1       6.081  -7.515   8.523  0.00  0.00    +0.019 C 
ATOM     18  C   UNL     1       6.900  -7.609   9.835  0.00  0.00    +0.002 C 
ATOM     19  C   UNL     1       6.229  -8.794  10.572  0.00  0.00    +0.002 C 
ATOM     20  C   UNL     1       4.726  -8.631  10.262  0.00  0.00    +0.019 C 
ENDBRANCH  13  16
BRANCH   1  21
ATOM     21  O   UNL     1       0.845  -6.206   1.254  0.00  0.00    -0.449 OA
BRANCH  21  25
ATOM     22  C   UNL     1       2.746  -6.378  -2.405  0.00  0.00    +0.059 A 
ATOM     23  C   UNL     1       3.349  -6.938  -1.275  0.00  0.00    +0.018 A 
ATOM     24  C   UNL     1       2.712  -6.879  -0.057  0.00  0.00    +0.047 A 
ATOM     25  C   UNL     1       1.470  -6.263   0.052  0.00  0.00    +0.129 A 
ATOM     26  C   UNL     1       0.866  -5.705  -1.070  0.00  0.00    +0.047 A 
ATOM     27  C   UNL     1       1.500  -5.754  -2.291  0.00  0.00    +0.018 A 
BRANCH  22  28
ATOM     28  C   UNL     1       3.425  -6.439  -3.713  0.00  0.00    +0.339 C 
ATOM     29  O   UNL     1       2.902  -5.947  -4.693  0.00  0.00    -0.245 OA
BRANCH  28  31
ATOM     30  C   UNL     1       5.226  -7.063  -5.117  0.00  0.00    +0.280 C 
ATOM     31  O   UNL     1       4.626  -7.040  -3.821  0.00  0.00    -0.464 OA
ENDBRANCH  28  31
ENDBRANCH  22  28
ENDBRANCH  21  25
ENDBRANCH   1  21
TORSDOF 5
