REMARK  Name = ZINC51875941
REMARK  7 active torsions:
REMARK  status: ('A' for Active; 'I' for Inactive)
REMARK    1  A    between atoms: C_1  and  C_2
REMARK    2  A    between atoms: C_2  and  N_3
REMARK    3  A    between atoms: C_9  and  C_16
REMARK    4  A    between atoms: C_16  and  O_18
REMARK    5  A    between atoms: O_18  and  C_19
REMARK    6  A    between atoms: C_19  and  C_20
REMARK    7  A    between atoms: C_20  and  N_21
REMARK                            x       y       z     vdW  Elec       q    Type
REMARK                         _______ _______ _______ _____ _____    ______ ____
ROOT
ATOM      1  N   UNL     1       0.688  -0.476  -1.203  0.00  0.00    -0.261 N 
ATOM      2  C   UNL     1      -0.026  -0.696  -2.329  0.00  0.00    +0.264 A 
ATOM      3  O   UNL     1      -1.227  -0.506  -2.352  0.00  0.00    -0.267 OA
ATOM      4  C   UNL     1       0.689  -1.171  -3.530  0.00  0.00    +0.063 A 
ATOM      5  C   UNL     1       0.020  -1.418  -4.726  0.00  0.00    +0.016 A 
ATOM      6  C   UNL     1       0.725  -1.861  -5.824  0.00  0.00    +0.016 A 
ATOM      7  C   UNL     1       2.106  -2.062  -5.740  0.00  0.00    +0.061 A 
ATOM      8  C   UNL     1       2.781  -1.817  -4.547  0.00  0.00    +0.041 A 
ATOM      9  C   UNL     1       2.077  -1.371  -3.440  0.00  0.00    +0.056 A 
ATOM     10  N   UNL     1       2.712  -1.115  -2.232  0.00  0.00    -0.307 N 
ATOM     11  H   UNL     1       3.670  -1.248  -2.155  0.00  0.00    +0.170 HD
ATOM     12  C   UNL     1       2.014  -0.678  -1.170  0.00  0.00    +0.330 A 
ATOM     13  O   UNL     1       2.610  -0.461  -0.132  0.00  0.00    -0.246 OA
ENDROOT
BRANCH   1  15
ATOM     14  C   UNL     1      -0.019   1.526   0.010  0.00  0.00    +0.027 C 
ATOM     15  C   UNL     1       0.002  -0.004   0.002  0.00  0.00    +0.126 C 
ENDBRANCH   1  15
BRANCH   7  16
ATOM     16  C   UNL     1       2.854  -2.537  -6.925  0.00  0.00    +0.339 C 
ATOM     17  O   UNL     1       4.053  -2.713  -6.856  0.00  0.00    -0.245 OA
BRANCH  16  18
ATOM     18  O   UNL     1       2.204  -2.775  -8.081  0.00  0.00    -0.459 OA
BRANCH  18  19
ATOM     19  C   UNL     1       2.989  -3.233  -9.184  0.00  0.00    +0.254 C 
BRANCH  19  20
ATOM     20  C   UNL     1       2.084  -3.447 -10.399  0.00  0.00    +0.169 C 
BRANCH  20  21
ATOM     21  N   UNL     1       1.527  -2.161 -10.826  0.00  0.00    -0.271 N 
ATOM     22  C   UNL     1       0.336  -1.589 -10.380  0.00  0.00    +0.090 A 
ATOM     23  C   UNL     1      -0.633  -1.992  -9.475  0.00  0.00    +0.030 A 
ATOM     24  C   UNL     1      -1.730  -1.187  -9.238  0.00  0.00    +0.002 A 
ATOM     25  C   UNL     1      -1.863   0.020  -9.902  0.00  0.00    +0.004 A 
ATOM     26  C   UNL     1      -0.901   0.429 -10.805  0.00  0.00    +0.048 A 
ATOM     27  C   UNL     1       0.203  -0.372 -11.049  0.00  0.00    +0.157 A 
ATOM     28  O   UNL     1       1.281  -0.239 -11.860  0.00  0.00    -0.407 OA
ATOM     29  C   UNL     1       2.075  -1.312 -11.718  0.00  0.00    +0.421 A 
ATOM     30  O   UNL     1       3.125  -1.491 -12.305  0.00  0.00    -0.223 OA
ENDBRANCH  20  21
ENDBRANCH  19  20
ENDBRANCH  18  19
ENDBRANCH  16  18
ENDBRANCH   7  16
TORSDOF 6
