REMARK  Name = ZINC39676604
REMARK  11 active torsions:
REMARK  status: ('A' for Active; 'I' for Inactive)
REMARK    1  A    between atoms: C_1  and  C_2
REMARK    2  A    between atoms: C_4  and  C_8
REMARK    3  A    between atoms: N_6  and  C_7
REMARK    4  A    between atoms: C_12  and  C_21
REMARK    5  A    between atoms: N_23  and  C_24
REMARK    6  A    between atoms: C_24  and  C_25
REMARK    7  A    between atoms: C_24  and  C_33
REMARK    8  A    between atoms: C_28  and  O_31
REMARK    9  A    between atoms: O_31  and  C_32
REMARK   10  A    between atoms: C_36  and  O_39
REMARK   11  A    between atoms: O_39  and  C_40
REMARK                            x       y       z     vdW  Elec       q    Type
REMARK                         _______ _______ _______ _____ _____    ______ ____
ROOT
ATOM      1  C   UNL     1       0.078  -3.478  -1.513  0.00  0.00    +0.267 C 
ATOM      2  O   UNL     1       0.017  -3.447  -2.726  0.00  0.00    -0.268 OA
ATOM      3  N   UNL     1       0.063  -4.661  -0.867  0.00  0.00    -0.295 N 
ATOM      4  C   UNL     1       0.122  -4.898   0.595  0.00  0.00    +0.121 C 
ATOM      5  C   UNL     1      -0.860  -6.066   0.841  0.00  0.00    +0.100 C 
ATOM      6  C   UNL     1      -0.946  -6.797  -0.509  0.00  0.00    -0.004 C 
ATOM      7  C   UNL     1      -0.023  -6.018  -1.458  0.00  0.00    +0.115 C 
ATOM      8  C   UNL     1      -2.377  -6.770  -1.036  0.00  0.00    -0.010 C 
ATOM      9  C   UNL     1      -2.448  -7.553  -2.350  0.00  0.00    -0.082 C 
ATOM     10  N   UNL     1      -2.015  -8.937  -2.121  0.00  0.00    +0.379 N 
ATOM     11  C   UNL     1      -0.608  -8.959  -1.704  0.00  0.00    -0.082 C 
ATOM     12  C   UNL     1      -0.460  -8.236  -0.362  0.00  0.00    -0.010 C 
ATOM     13  H   UNL     1      -2.585  -9.351  -1.399  0.00  0.00    -0.086 HD
ATOM     14  H   UNL     1      -2.120  -9.466  -2.974  0.00  0.00    -0.086 HD
ENDROOT
BRANCH   1  18
ATOM     15  C   UNL     1       0.344   1.421  -0.242  0.00  0.00    +0.065 C 
ATOM     16  C   UNL     1       0.284  -0.084  -0.209  0.00  0.00    +0.037 A 
ATOM     17  C   UNL     1       0.196  -0.908  -1.279  0.00  0.00    +0.057 A 
ATOM     18  C   UNL     1       0.169  -2.219  -0.746  0.00  0.00    +0.147 A 
ATOM     19  N   UNL     1       0.241  -2.102   0.565  0.00  0.00    -0.167 NA
ATOM     20  N   UNL     1       0.313  -0.863   0.894  0.00  0.00    -0.271 N 
ATOM     21  C   UNL     1       0.410  -0.365   2.269  0.00  0.00    +0.172 C 
ENDBRANCH   1  18
BRANCH   5  22
ATOM     22  C   UNL     1      -0.325  -6.986   1.906  0.00  0.00    +0.219 C 
ATOM     23  O   UNL     1       0.873  -7.123   2.045  0.00  0.00    -0.275 OA
ATOM     24  N   UNL     1      -1.176  -7.659   2.706  0.00  0.00    -0.304 N 
ATOM     25  H   UNL     1      -2.134  -7.550   2.596  0.00  0.00    +0.150 HD
BRANCH  24  26
ATOM     26  C   UNL     1      -0.655  -8.554   3.742  0.00  0.00    +0.134 C 
BRANCH  26  27
ATOM     27  C   UNL     1      -0.345  -7.758   4.984  0.00  0.00    -0.023 A 
ATOM     28  C   UNL     1      -1.202  -6.752   5.391  0.00  0.00    +0.009 A 
ATOM     29  C   UNL     1      -0.919  -6.021   6.528  0.00  0.00    +0.046 A 
ATOM     30  C   UNL     1       0.224  -6.298   7.263  0.00  0.00    +0.120 A 
ATOM     31  C   UNL     1       1.082  -7.308   6.853  0.00  0.00    +0.046 A 
ATOM     32  C   UNL     1       0.792  -8.040   5.718  0.00  0.00    +0.009 A 
BRANCH  30  33
ATOM     33  O   UNL     1       0.504  -5.580   8.383  0.00  0.00    -0.495 OA
ATOM     34  C   UNL     1       1.699  -5.920   9.089  0.00  0.00    +0.277 C 
ENDBRANCH  30  33
ENDBRANCH  26  27
BRANCH  26  35
ATOM     35  C   UNL     1      -1.687  -9.604   4.063  0.00  0.00    -0.023 A 
ATOM     36  C   UNL     1      -3.025  -9.261   4.130  0.00  0.00    +0.009 A 
ATOM     37  C   UNL     1      -3.973 -10.222   4.424  0.00  0.00    +0.046 A 
ATOM     38  C   UNL     1      -3.581 -11.533   4.653  0.00  0.00    +0.120 A 
ATOM     39  C   UNL     1      -2.239 -11.875   4.586  0.00  0.00    +0.046 A 
ATOM     40  C   UNL     1      -1.295 -10.912   4.286  0.00  0.00    +0.009 A 
BRANCH  38  41
ATOM     41  O   UNL     1      -4.512 -12.480   4.944  0.00  0.00    -0.495 OA
ATOM     42  C   UNL     1      -4.037 -13.809   5.168  0.00  0.00    +0.277 C 
ENDBRANCH  38  41
ENDBRANCH  26  35
ENDBRANCH  24  26
ENDBRANCH   5  22
TORSDOF 7
