REMARK  Name = ZINC02387531
REMARK  5 active torsions:
REMARK  status: ('A' for Active; 'I' for Inactive)
REMARK    1  A    between atoms: C_9  and  O_27
REMARK    2  A    between atoms: C_10  and  C_11
REMARK    3  A    between atoms: N_12  and  N_13
REMARK    4  A    between atoms: C_14  and  C_16
REMARK    5  A    between atoms: N_18  and  C_19
REMARK                            x       y       z     vdW  Elec       q    Type
REMARK                         _______ _______ _______ _____ _____    ______ ____
ROOT
ATOM      1  N   UNL     1       7.322   0.145  -0.062  0.00  0.00    -0.199 N 
ATOM      2  C   UNL     1       8.490  -0.526  -0.074  0.00  0.00    +0.318 C 
ATOM      3  O   UNL     1       8.493  -1.741  -0.071  0.00  0.00    -0.263 OA
ATOM      4  H   UNL     1       7.319   1.115  -0.065  0.00  0.00    +0.178 HD
ENDROOT
BRANCH   2   5
ATOM      5  C   UNL     1       9.779   0.222  -0.092  0.00  0.00    +0.305 C 
ATOM      6  O   UNL     1       9.776   1.436  -0.095  0.00  0.00    -0.265 OA
ATOM      7  N   UNL     1      10.948  -0.450  -0.104  0.00  0.00    -0.278 N 
ATOM      8  H   UNL     1      10.952  -1.417  -0.034  0.00  0.00    +0.155 HD
BRANCH   7   9
ATOM      9  C   UNL     1      12.153   0.248  -0.218  0.00  0.00    +0.035 A 
ATOM     10  C   UNL     1      13.211  -0.301  -0.932  0.00  0.00    +0.025 A 
ATOM     11  C   UNL     1      14.401   0.390  -1.043  0.00  0.00    +0.023 A 
ATOM     12  C   UNL     1      14.542   1.629  -0.444  0.00  0.00    +0.059 A 
ATOM     13  C   UNL     1      13.490   2.180   0.269  0.00  0.00    +0.061 A 
ATOM     14  C   UNL     1      12.294   1.495   0.378  0.00  0.00    +0.044 A 
ATOM     15 CL   UNL     1      13.671   3.734   1.020  0.00  0.00    -0.082 Cl
ATOM     16 CL   UNL     1      16.040   2.495  -0.586  0.00  0.00    -0.082 Cl
ENDBRANCH   7   9
ENDBRANCH   2   5
BRANCH   1  18
ATOM     17  C   UNL     1       4.981   0.090  -0.034  0.00  0.00    +0.142 C 
ATOM     18  N   UNL     1       6.110  -0.558  -0.046  0.00  0.00    -0.187 NA
BRANCH  17  28
ATOM     19  C   UNL     1      -0.017   1.356   0.023  0.00  0.00    +0.001 A 
ATOM     20  C   UNL     1       1.167   2.090   0.008  0.00  0.00    +0.001 A 
ATOM     21  C   UNL     1       2.378   1.464  -0.006  0.00  0.00    +0.009 A 
ATOM     22  C   UNL     1       2.435   0.065  -0.004  0.00  0.00    -0.006 A 
ATOM     23  C   UNL     1       1.233  -0.684   0.012  0.00  0.00    -0.017 A 
ATOM     24  C   UNL     1       0.002  -0.005   0.026  0.00  0.00    +0.008 A 
ATOM     25  C   UNL     1       1.292  -2.088   0.015  0.00  0.00    +0.012 A 
ATOM     26  C   UNL     1       2.487  -2.735   0.003  0.00  0.00    +0.046 A 
ATOM     27  C   UNL     1       3.697  -2.042  -0.012  0.00  0.00    +0.126 A 
ATOM     28  C   UNL     1       3.712  -0.647  -0.017  0.00  0.00    +0.044 A 
BRANCH  27  29
ATOM     29  O   UNL     1       4.867  -2.729  -0.023  0.00  0.00    -0.506 OA
ATOM     30  H   UNL     1       5.197  -2.931  -0.909  0.00  0.00    +0.292 HD
ENDBRANCH  27  29
ENDBRANCH  17  28
ENDBRANCH   1  18
TORSDOF 5
