REMARK  Name = ZINC19431429
REMARK  8 active torsions:
REMARK  status: ('A' for Active; 'I' for Inactive)
REMARK    1  A    between atoms: C_6  and  N_7
REMARK    2  A    between atoms: N_13  and  C_14
REMARK    3  A    between atoms: C_14  and  C_15
REMARK    4  A    between atoms: C_15  and  C_16
REMARK    5  A    between atoms: C_16  and  C_17
REMARK    6  A    between atoms: C_17  and  O_19
REMARK    7  A    between atoms: O_19  and  C_20
REMARK    8  A    between atoms: C_20  and  C_21
REMARK                            x       y       z     vdW  Elec       q    Type
REMARK                         _______ _______ _______ _____ _____    ______ ____
ROOT
ATOM      1  C   UNL     1      -3.793   6.833  -1.369  0.00  0.00    +0.122 C 
ENDROOT
BRANCH   1   2
ATOM      2  C   UNL     1      -3.980   7.312  -2.785  0.00  0.00    +0.307 C 
ATOM      3  O   UNL     1      -3.720   6.579  -3.710  0.00  0.00    -0.251 OA
BRANCH   2   4
ATOM      4  O   UNL     1      -4.437   8.552  -3.020  0.00  0.00    -0.460 OA
BRANCH   4   5
ATOM      5  C   UNL     1      -4.593   8.945  -4.409  0.00  0.00    +0.268 C 
BRANCH   5   6
ATOM      6  C   UNL     1      -5.111  10.358  -4.476  0.00  0.00    +0.007 A 
ATOM      7  C   UNL     1      -5.358  11.059  -3.310  0.00  0.00    +0.057 A 
ATOM      8  C   UNL     1      -5.834  12.360  -3.369  0.00  0.00    +0.163 A 
ATOM      9  C   UNL     1      -6.061  12.958  -4.603  0.00  0.00    +0.163 A 
ATOM     10  C   UNL     1      -5.814  12.250  -5.769  0.00  0.00    +0.065 A 
ATOM     11  C   UNL     1      -5.334  10.955  -5.704  0.00  0.00    +0.028 A 
ATOM     12 BR   UNL     1      -4.990   9.995  -7.296  0.00  0.00    -0.050 Br
ATOM     13  O   UNL     1      -6.524  14.236  -4.682  0.00  0.00    -0.485 OA
ATOM     14  C   UNL     1      -7.115  14.781  -3.498  0.00  0.00    +0.270 C 
ATOM     15  C   UNL     1      -6.197  14.459  -2.311  0.00  0.00    +0.270 C 
ATOM     16  O   UNL     1      -6.075  13.035  -2.212  0.00  0.00    -0.485 OA
ENDBRANCH   5   6
ENDBRANCH   4   5
ENDBRANCH   2   4
ENDBRANCH   1   2
BRANCH   1  17
ATOM     17  C   UNL     1      -3.267   5.397  -1.381  0.00  0.00    +0.033 C 
BRANCH  17  18
ATOM     18  C   UNL     1      -3.076   4.911   0.058  0.00  0.00    +0.129 C 
BRANCH  18  28
ATOM     19  C   UNL     1       1.162   3.167   0.007  0.00  0.00    +0.035 A 
ATOM     20  C   UNL     1      -0.039   3.851   0.022  0.00  0.00    +0.032 A 
ATOM     21  C   UNL     1      -1.233   3.148   0.030  0.00  0.00    +0.090 A 
ATOM     22  C   UNL     1      -1.221   1.753   0.017  0.00  0.00    +0.159 A 
ATOM     23  C   UNL     1      -0.013   1.076   0.008  0.00  0.00    +0.081 A 
ATOM     24  C   UNL     1       1.174   1.784   0.000  0.00  0.00    +0.130 A 
ATOM     25  O   UNL     1      -2.513   1.340   0.034  0.00  0.00    -0.407 OA
ATOM     26  C   UNL     1      -3.319   2.413   0.048  0.00  0.00    +0.421 A 
ATOM     27  O   UNL     1      -4.534   2.378   0.060  0.00  0.00    -0.223 OA
ATOM     28  N   UNL     1      -2.572   3.536   0.046  0.00  0.00    -0.274 N 
BRANCH  24  29
ATOM     29  N   UNL     1       2.464   1.059  -0.015  0.00  0.00    +0.057 N 
ATOM     30  O   UNL     1       2.478  -0.159  -0.021  0.00  0.00    -0.126 OA
ATOM     31  O   UNL     1       3.512   1.680  -0.022  0.00  0.00    -0.126 OA
ENDBRANCH  24  29
ENDBRANCH  18  28
ENDBRANCH  17  18
ENDBRANCH   1  17
TORSDOF 8
