REMARK  Name = ZINC20268332
REMARK  4 active torsions:
REMARK  status: ('A' for Active; 'I' for Inactive)
REMARK    1  A    between atoms: C_1  and  C_2
REMARK    2  A    between atoms: C_2  and  C_3
REMARK    3  A    between atoms: C_8  and  C_25
REMARK    4  A    between atoms: C_9  and  N_19
REMARK                            x       y       z     vdW  Elec       q    Type
REMARK                         _______ _______ _______ _____ _____    ______ ____
ROOT
ATOM      1  C   UNL     1       1.426  -0.329  -1.463  0.00  0.00    +0.179 C 
ATOM      2  C   UNL     1       1.585  -1.868  -1.448  0.00  0.00    +0.085 C 
ATOM      3  C   UNL     1       1.323  -2.221  -2.898  0.00  0.00    +0.027 A 
ATOM      4  C   UNL     1       1.561  -3.366  -3.651  0.00  0.00    +0.018 A 
ATOM      5  C   UNL     1       2.175  -4.576  -3.105  0.00  0.00    +0.100 A 
ATOM      6  C   UNL     1       2.357  -5.663  -3.974  0.00  0.00    +0.142 A 
ATOM      7  N   UNL     1       1.984  -5.595  -5.246  0.00  0.00    -0.216 NA
ATOM      8  C   UNL     1       1.427  -4.527  -5.787  0.00  0.00    +0.129 A 
ATOM      9  C   UNL     1       1.191  -3.369  -5.022  0.00  0.00    +0.063 A 
ATOM     10  C   UNL     1       0.604  -2.207  -5.555  0.00  0.00    +0.131 A 
ATOM     11  N   UNL     1       0.403  -1.153  -4.787  0.00  0.00    -0.197 NA
ATOM     12  C   UNL     1       0.733  -1.119  -3.491  0.00  0.00    +0.221 A 
ATOM     13  O   UNL     1       0.562  -0.109  -2.591  0.00  0.00    -0.473 OA
ATOM     14  N   UNL     1       0.237  -2.169  -6.887  0.00  0.00    -0.342 N 
ATOM     15  N   UNL     1       1.071  -4.546  -7.119  0.00  0.00    -0.343 N 
ATOM     16  H   UNL     1      -0.580  -1.719  -7.153  0.00  0.00    +0.144 HD
ATOM     17  H   UNL     1       0.797  -2.593  -7.557  0.00  0.00    +0.144 HD
ATOM     18  H   UNL     1       0.259  -4.103  -7.410  0.00  0.00    +0.144 HD
ATOM     19  H   UNL     1       1.633  -5.002  -7.765  0.00  0.00    +0.144 HD
ENDROOT
BRANCH   6  20
ATOM     20  N   UNL     1       2.934  -6.824  -3.497  0.00  0.00    -0.310 N 
ATOM     21  C   UNL     1       2.109  -7.904  -2.933  0.00  0.00    +0.134 C 
ATOM     22  C   UNL     1       2.509  -9.221  -3.607  0.00  0.00    +0.178 C 
ATOM     23  O   UNL     1       3.926  -9.388  -3.511  0.00  0.00    -0.377 OA
ATOM     24  C   UNL     1       4.681  -8.378  -4.184  0.00  0.00    +0.178 C 
ATOM     25  C   UNL     1       4.392  -7.020  -3.544  0.00  0.00    +0.134 C 
ENDBRANCH   6  20
BRANCH   1  27
ATOM     26  C   UNL     1       0.681   1.689  -0.193  0.00  0.00    +0.007 C 
ATOM     27  C   UNL     1       0.769   0.162  -0.172  0.00  0.00    +0.041 C 
ENDBRANCH   1  27
BRANCH   5  28
ATOM     28  C   UNL     1       2.578  -4.648  -1.733  0.00  0.00    +0.103 C 
ATOM     29  N   UNL     1       2.897  -4.706  -0.644  0.00  0.00    -0.191 NA
ENDBRANCH   5  28
TORSDOF 3
