REMARK  Name = ZINC06882331
REMARK  10 active torsions:
REMARK  status: ('A' for Active; 'I' for Inactive)
REMARK    1  A    between atoms: C_1  and  C_2
REMARK    2  A    between atoms: C_3  and  C_11
REMARK    3  A    between atoms: C_4  and  N_10
REMARK    4  A    between atoms: N_5  and  C_7
REMARK    5  A    between atoms: C_7  and  C_8
REMARK    6  A    between atoms: C_8  and  O_9
REMARK    7  A    between atoms: C_11  and  O_24
REMARK    8  A    between atoms: C_14  and  C_21
REMARK    9  A    between atoms: C_21  and  C_22
REMARK   10  A    between atoms: C_21  and  C_23
REMARK                            x       y       z     vdW  Elec       q    Type
REMARK                         _______ _______ _______ _____ _____    ______ ____
ROOT
ATOM      1  C   UNL     1       1.745   3.203   0.003  0.00  0.00    +0.199 C 
ATOM      2  C   UNL     1       0.748   4.059   0.749  0.00  0.00    +0.019 A 
ATOM      3  C   UNL     1       0.305   4.061   2.052  0.00  0.00    +0.013 A 
ATOM      4  C   UNL     1      -0.638   4.988   2.459  0.00  0.00    -0.044 A 
ATOM      5  C   UNL     1      -1.132   5.910   1.554  0.00  0.00    +0.006 A 
ATOM      6  C   UNL     1      -0.690   5.910   0.248  0.00  0.00    +0.024 A 
ATOM      7  C   UNL     1       0.260   4.980  -0.170  0.00  0.00    +0.040 A 
ATOM      8  N   UNL     1       0.855   4.781  -1.416  0.00  0.00    -0.282 N 
ATOM      9  C   UNL     1       1.734   3.764  -1.403  0.00  0.00    +0.258 C 
ATOM     10  O   UNL     1       2.394   3.371  -2.342  0.00  0.00    -0.272 OA
ATOM     11  H   UNL     1       0.657   5.315  -2.201  0.00  0.00    +0.155 HD
ENDROOT
BRANCH   1  14
ATOM     12  C   UNL     1      -1.249   2.170   0.020  0.00  0.00    +0.068 C 
ATOM     13  C   UNL     1      -0.016   1.304   0.009  0.00  0.00    +0.069 A 
ATOM     14  C   UNL     1       1.305   1.762  -0.001  0.00  0.00    +0.059 A 
ATOM     15  C   UNL     1       2.123   0.673  -0.015  0.00  0.00    +0.122 A 
ATOM     16  N   UNL     1       1.337  -0.428  -0.013  0.00  0.00    -0.248 N 
ATOM     17  N   UNL     1       0.002  -0.004   0.002  0.00  0.00    -0.174 NA
BRANCH  15  18
ATOM     18  N   UNL     1       3.515   0.690  -0.028  0.00  0.00    -0.343 N 
ATOM     19  H   UNL     1       4.010  -0.144  -0.037  0.00  0.00    +0.144 HD
ATOM     20  H   UNL     1       3.990   1.536  -0.027  0.00  0.00    +0.144 HD
ENDBRANCH  15  18
BRANCH  16  21
ATOM     21  C   UNL     1       1.800  -1.818  -0.025  0.00  0.00    +0.173 C 
BRANCH  21  22
ATOM     22  C   UNL     1       1.947  -2.294  -1.471  0.00  0.00    +0.179 C 
BRANCH  22  23
ATOM     23  O   UNL     1       2.399  -3.650  -1.483  0.00  0.00    -0.393 OA
ATOM     24  H   UNL     1       2.514  -4.018  -2.370  0.00  0.00    +0.209 HD
ENDBRANCH  22  23
ENDBRANCH  21  22
ENDBRANCH  16  21
ENDBRANCH   1  14
BRANCH   4  25
ATOM     25  C   UNL     1      -1.125   4.993   3.885  0.00  0.00    +0.013 C 
ATOM     26  C   UNL     1      -0.810   6.346   4.527  0.00  0.00    +0.012 C 
ATOM     27  C   UNL     1      -2.637   4.758   3.909  0.00  0.00    +0.012 C 
ENDBRANCH   4  25
BRANCH   1  28
ATOM     28  O   UNL     1       3.047   3.326   0.580  0.00  0.00    -0.371 OA
ATOM     29  H   UNL     1       3.380   4.233   0.608  0.00  0.00    +0.212 HD
ENDBRANCH   1  28
TORSDOF 7
