REMARK  Name = ZINC09844240
REMARK  5 active torsions:
REMARK  status: ('A' for Active; 'I' for Inactive)
REMARK    1  A    between atoms: C_6  and  C_7
REMARK    2  A    between atoms: N_12  and  C_14
REMARK    3  A    between atoms: C_14  and  C_15
REMARK    4  A    between atoms: C_15  and  N_16
REMARK    5  A    between atoms: C_17  and  C_19
REMARK                            x       y       z     vdW  Elec       q    Type
REMARK                         _______ _______ _______ _____ _____    ______ ____
ROOT
ATOM      1  C   UNL     1      -2.474  -2.881   0.009  0.00  0.00    +0.128 C 
ENDROOT
BRANCH   1   2
ATOM      2  N   UNL     1      -1.223  -2.118   0.002  0.00  0.00    -0.309 N 
ATOM      3  C   UNL     1      -1.255  -0.771   0.009  0.00  0.00    +0.251 C 
ATOM      4  O   UNL     1      -2.323  -0.188   0.022  0.00  0.00    -0.270 OA
ATOM      5  H   UNL     1      -0.372  -2.583  -0.008  0.00  0.00    +0.149 HD
BRANCH   3   6
ATOM      6  C   UNL     1       0.002  -0.004   0.002  0.00  0.00    +0.122 A 
ATOM      7  C   UNL     1       1.224  -0.654  -0.013  0.00  0.00    +0.031 A 
ATOM      8  C   UNL     1       2.409   0.123  -0.020  0.00  0.00    +0.019 A 
ATOM      9  C   UNL     1       3.665  -0.504  -0.035  0.00  0.00    +0.026 A 
ATOM     10  C   UNL     1       4.802   0.252  -0.042  0.00  0.00    +0.019 A 
ATOM     11  C   UNL     1       4.726   1.639  -0.033  0.00  0.00    +0.019 A 
ATOM     12  C   UNL     1       3.503   2.275  -0.018  0.00  0.00    +0.048 A 
ATOM     13  C   UNL     1       2.331   1.527  -0.012  0.00  0.00    +0.139 A 
ATOM     14  O   UNL     1       1.134   2.154   0.003  0.00  0.00    -0.422 OA
ATOM     15  C   UNL     1      -0.018   1.463   0.010  0.00  0.00    +0.350 A 
ATOM     16  O   UNL     1      -1.081   2.056   0.018  0.00  0.00    -0.244 OA
ATOM     17 BR   UNL     1       6.492  -0.596  -0.062  0.00  0.00    -0.050 Br
ENDBRANCH   3   6
ENDBRANCH   1   2
BRANCH   1  18
ATOM     18  C   UNL     1      -2.158  -4.378  -0.002  0.00  0.00    +0.166 C 
BRANCH  18  24
ATOM     19  C   UNL     1      -5.050  -6.154   1.210  0.00  0.00    +0.092 A 
ATOM     20  C   UNL     1      -5.726  -6.554   0.034  0.00  0.00    +0.035 A 
ATOM     21  C   UNL     1      -5.185  -6.211  -1.170  0.00  0.00    +0.074 A 
ATOM     22  C   UNL     1      -3.982  -5.471  -1.167  0.00  0.00    +0.267 A 
ATOM     23  O   UNL     1      -3.463  -5.137  -2.220  0.00  0.00    -0.266 OA
ATOM     24  N   UNL     1      -3.409  -5.141   0.006  0.00  0.00    -0.227 N 
ATOM     25  N   UNL     1      -3.932  -5.472   1.131  0.00  0.00    -0.168 NA
BRANCH  19  31
ATOM     26  C   UNL     1      -6.796  -7.228   2.629  0.00  0.00    +0.011 A 
ATOM     27  C   UNL     1      -7.308  -7.559   3.868  0.00  0.00    +0.020 A 
ATOM     28  C   UNL     1      -6.646  -7.169   5.019  0.00  0.00    +0.041 A 
ATOM     29  C   UNL     1      -5.466  -6.449   4.935  0.00  0.00    +0.020 A 
ATOM     30  C   UNL     1      -4.944  -6.117   3.701  0.00  0.00    +0.011 A 
ATOM     31  C   UNL     1      -5.606  -6.508   2.539  0.00  0.00    +0.002 A 
ATOM     32 CL   UNL     1      -7.297  -7.582   6.574  0.00  0.00    -0.084 Cl
ENDBRANCH  19  31
ENDBRANCH  18  24
ENDBRANCH   1  18
TORSDOF 5
