REMARK  Name = ZINC09034086
REMARK  11 active torsions:
REMARK  status: ('A' for Active; 'I' for Inactive)
REMARK    1  A    between atoms: C_1  and  C_2
REMARK    2  A    between atoms: C_8  and  C_9
REMARK    3  A    between atoms: C_8  and  N_74
REMARK    4  A    between atoms: C_10  and  O_37
REMARK    5  A    between atoms: C_11  and  C_29
REMARK    6  A    between atoms: C_14  and  O_15
REMARK    7  A    between atoms: C_18  and  C_21
REMARK    8  A    between atoms: C_24  and  O_27
REMARK    9  A    between atoms: O_27  and  C_28
REMARK   10  A    between atoms: C_29  and  N_76
REMARK   11  A    between atoms: C_33  and  C_36
REMARK                            x       y       z     vdW  Elec       q    Type
REMARK                         _______ _______ _______ _____ _____    ______ ____
ROOT
ATOM      1  C   UNL     1       1.208  -0.698  -0.013  0.00  0.00    +0.020 A 
ATOM      2  C   UNL     1       0.002  -0.004   0.002  0.00  0.00    +0.127 A 
ATOM      3  C   UNL     1      -0.017   1.381   0.010  0.00  0.00    +0.021 A 
ATOM      4  C   UNL     1       1.174   2.094   0.002  0.00  0.00    +0.147 A 
ATOM      5  C   UNL     1       2.393   1.393  -0.014  0.00  0.00    +0.106 A 
ATOM      6  C   UNL     1       2.405  -0.008  -0.021  0.00  0.00    +0.136 A 
ATOM      7  C   UNL     1       3.645   2.167  -0.022  0.00  0.00    +0.204 A 
ATOM      8  O   UNL     1       4.734   1.619  -0.036  0.00  0.00    -0.286 OA
ATOM      9  C   UNL     1       3.519   3.635  -0.013  0.00  0.00    +0.064 A 
ATOM     10  C   UNL     1       2.277   4.183   0.002  0.00  0.00    +0.208 A 
ATOM     11  O   UNL     1       1.165   3.442   0.009  0.00  0.00    -0.462 OA
ENDROOT
BRANCH   9  12
ATOM     12  C   UNL     1       4.725   4.498  -0.019  0.00  0.00    -0.011 A 
ATOM     13  C   UNL     1       5.750   4.272   0.898  0.00  0.00    +0.012 A 
ATOM     14  C   UNL     1       6.873   5.073   0.887  0.00  0.00    +0.046 A 
ATOM     15  C   UNL     1       6.978   6.110  -0.030  0.00  0.00    +0.120 A 
ATOM     16  C   UNL     1       5.957   6.341  -0.942  0.00  0.00    +0.046 A 
ATOM     17  C   UNL     1       4.834   5.540  -0.939  0.00  0.00    +0.012 A 
BRANCH  15  18
ATOM     18  O   UNL     1       8.084   6.901  -0.036  0.00  0.00    -0.495 OA
ATOM     19  C   UNL     1       9.096   6.607   0.929  0.00  0.00    +0.277 C 
ENDBRANCH  15  18
ENDBRANCH   9  12
BRANCH   6  20
ATOM     20  O   UNL     1       3.583  -0.682  -0.036  0.00  0.00    -0.506 OA
ATOM     21  H   UNL     1       3.915  -0.872  -0.924  0.00  0.00    +0.292 HD
ENDBRANCH   6  20
BRANCH   2  22
ATOM     22  O   UNL     1      -1.168  -0.692   0.009  0.00  0.00    -0.506 OA
ATOM     23  H   UNL     1      -1.516  -0.886  -0.872  0.00  0.00    +0.292 HD
ENDBRANCH   2  22
BRANCH   1  24
ATOM     24  C   UNL     1       1.208  -2.205  -0.020  0.00  0.00    -0.036 C 
BRANCH  24  31
ATOM     25  C   UNL     1      -1.244  -2.268  -4.284  0.00  0.00    +0.005 C 
ATOM     26  C   UNL     1      -0.035  -2.814  -3.522  0.00  0.00    -0.031 C 
ATOM     27  C   UNL     1       1.247  -2.477  -4.287  0.00  0.00    -0.001 C 
ATOM     28  C   UNL     1       2.455  -2.976  -3.489  0.00  0.00    -0.018 C 
ATOM     29  C   UNL     1       2.442  -2.334  -2.099  0.00  0.00    -0.078 C 
ATOM     30  C   UNL     1       0.024  -2.178  -2.131  0.00  0.00    -0.075 C 
ATOM     31  N   UNL     1       1.193  -2.718  -1.406  0.00  0.00    +0.383 N 
ATOM     32  H   UNL     1       1.127  -3.742  -1.382  0.00  0.00    -0.081 HD
ENDBRANCH  24  31
ENDBRANCH   1  24
BRANCH   3  33
ATOM     33  C   UNL     1      -1.333   2.116   0.020  0.00  0.00    -0.036 C 
BRANCH  33  40
ATOM     34  C   UNL     1      -2.050   1.079   2.086  0.00  0.00    -0.078 C 
ATOM     35  C   UNL     1      -2.343   1.345   3.564  0.00  0.00    -0.018 C 
ATOM     36  C   UNL     1      -3.536   2.298   3.680  0.00  0.00    -0.001 C 
ATOM     37  C   UNL     1      -3.220   3.592   2.924  0.00  0.00    -0.031 C 
ATOM     38  C   UNL     1      -2.902   3.260   1.465  0.00  0.00    -0.075 C 
ATOM     39  C   UNL     1      -4.431   4.526   2.984  0.00  0.00    +0.005 C 
ATOM     40  N   UNL     1      -1.730   2.360   1.422  0.00  0.00    +0.383 N 
ATOM     41  H   UNL     1      -0.949   2.806   1.917  0.00  0.00    -0.081 HD
ENDBRANCH  33  40
ENDBRANCH   3  33
TORSDOF 8
