REMARK  Name = ZINC08766969
REMARK  9 active torsions:
REMARK  status: ('A' for Active; 'I' for Inactive)
REMARK    1  A    between atoms: C_1  and  C_2
REMARK    2  A    between atoms: C_9  and  C_17
REMARK    3  A    between atoms: C_11  and  C_15
REMARK    4  A    between atoms: C_12  and  N_14
REMARK    5  A    between atoms: C_20  and  O_32
REMARK    6  A    between atoms: C_21  and  C_23
REMARK    7  A    between atoms: C_23  and  O_24
REMARK    8  A    between atoms: O_24  and  C_25
REMARK    9  A    between atoms: O_32  and  C_33
REMARK                            x       y       z     vdW  Elec       q    Type
REMARK                         _______ _______ _______ _____ _____    ______ ____
ROOT
ATOM      1  C   UNL     1      -0.967   5.632   1.643  0.00  0.00    -0.038 A 
ATOM      2  C   UNL     1      -0.047   5.115   0.749  0.00  0.00    +0.008 A 
ATOM      3  C   UNL     1       0.061   3.749   0.579  0.00  0.00    +0.046 A 
ATOM      4  C   UNL     1      -0.755   2.894   1.307  0.00  0.00    +0.126 A 
ATOM      5  C   UNL     1      -1.681   3.415   2.199  0.00  0.00    +0.032 A 
ATOM      6  C   UNL     1      -1.781   4.783   2.369  0.00  0.00    +0.014 A 
ENDROOT
BRANCH   1  13
ATOM      7  C   UNL     1      -2.771   5.384  -0.171  0.00  0.00    +0.063 C 
ATOM      8  C   UNL     1      -2.757   6.888  -0.070  0.00  0.00    +0.043 C 
ATOM      9  N   UNL     1      -3.649   7.681  -0.535  0.00  0.00    -0.193 NA
ATOM     10  N   UNL     1      -3.352   9.036  -0.324  0.00  0.00    -0.230 N 
ATOM     11  C   UNL     1      -2.381   9.076   0.813  0.00  0.00    +0.286 C 
ATOM     12  C   UNL     1      -1.696   7.718   0.591  0.00  0.00    +0.108 C 
ATOM     13  C   UNL     1      -1.082   7.123   1.825  0.00  0.00    +0.078 C 
ATOM     14  C   UNL     1      -1.891   7.400   3.059  0.00  0.00    +0.094 C 
ATOM     15  C   UNL     1      -2.850   8.352   3.067  0.00  0.00    +0.194 C 
ATOM     16  O   UNL     1      -3.195   9.052   1.986  0.00  0.00    -0.455 OA
ATOM     17  H   UNL     1      -3.705   9.794  -0.817  0.00  0.00    +0.172 HD
BRANCH  15  18
ATOM     18  N   UNL     1      -3.501   8.611   4.247  0.00  0.00    -0.329 N 
ATOM     19  H   UNL     1      -3.268   8.115   5.048  0.00  0.00    +0.145 HD
ATOM     20  H   UNL     1      -4.193   9.289   4.280  0.00  0.00    +0.145 HD
ENDBRANCH  15  18
BRANCH  14  21
ATOM     21  C   UNL     1      -1.642   6.643   4.248  0.00  0.00    +0.100 C 
ATOM     22  N   UNL     1      -1.444   6.042   5.192  0.00  0.00    -0.191 NA
ENDBRANCH  14  21
ENDBRANCH   1  13
BRANCH   4  23
ATOM     23  O   UNL     1      -0.651   1.549   1.143  0.00  0.00    -0.495 OA
ATOM     24  C   UNL     1       0.320   1.084   0.203  0.00  0.00    +0.277 C 
ENDBRANCH   4  23
BRANCH   5  25
ATOM     25  C   UNL     1      -2.573   2.490   2.986  0.00  0.00    +0.268 C 
BRANCH  25  26
ATOM     26  O   UNL     1      -3.433   3.260   3.828  0.00  0.00    -0.487 OA
BRANCH  26  27
ATOM     27  C   UNL     1      -4.307   2.574   4.611  0.00  0.00    +0.122 A 
ATOM     28  C   UNL     1      -4.340   1.187   4.564  0.00  0.00    +0.046 A 
ATOM     29  C   UNL     1      -5.224   0.491   5.364  0.00  0.00    +0.005 A 
ATOM     30  C   UNL     1      -6.085   1.174   6.203  0.00  0.00    +0.020 A 
ATOM     31  C   UNL     1      -6.059   2.557   6.248  0.00  0.00    +0.044 A 
ATOM     32  C   UNL     1      -5.171   3.258   5.452  0.00  0.00    +0.065 A 
ATOM     33 CL   UNL     1      -7.142   3.412   7.301  0.00  0.00    -0.083 Cl
ENDBRANCH  26  27
ENDBRANCH  25  26
ENDBRANCH   5  25
TORSDOF 7
