REMARK  Name = ZINC19354212
REMARK  11 active torsions:
REMARK  status: ('A' for Active; 'I' for Inactive)
REMARK    1  A    between atoms: C_1  and  C_2
REMARK    2  A    between atoms: C_3  and  C_29
REMARK    3  A    between atoms: C_4  and  C_26
REMARK    4  A    between atoms: C_5  and  S_9
REMARK    5  A    between atoms: C_7  and  C_8
REMARK    6  A    between atoms: S_9  and  C_10
REMARK    7  A    between atoms: C_10  and  C_11
REMARK    8  A    between atoms: C_11  and  O_13
REMARK    9  A    between atoms: O_13  and  C_14
REMARK   10  A    between atoms: C_14  and  C_15
REMARK   11  A    between atoms: C_18  and  C_20
REMARK                            x       y       z     vdW  Elec       q    Type
REMARK                         _______ _______ _______ _____ _____    ______ ____
ROOT
ATOM      1  C   UNL     1       2.020   2.042   4.257  0.00  0.00    +0.196 C 
ENDROOT
BRANCH   1   2
ATOM      2  C   UNL     1       3.050   2.205   5.345  0.00  0.00    +0.318 C 
ATOM      3  O   UNL     1       2.716   2.589   6.441  0.00  0.00    -0.250 OA
BRANCH   2   4
ATOM      4  O   UNL     1       4.339   1.925   5.096  0.00  0.00    -0.454 OA
BRANCH   4   5
ATOM      5  C   UNL     1       5.276   2.105   6.190  0.00  0.00    +0.329 C 
BRANCH   5   6
ATOM      6  C   UNL     1       6.664   1.744   5.728  0.00  0.00    +0.255 A 
ATOM      7  N   UNL     1       7.529   2.554   5.186  0.00  0.00    -0.108 NA
ATOM      8  N   UNL     1       8.612   1.913   4.918  0.00  0.00    -0.107 NA
ATOM      9  C   UNL     1       8.470   0.654   5.274  0.00  0.00    +0.255 A 
ATOM     10  O   UNL     1       7.231   0.525   5.794  0.00  0.00    -0.416 OA
BRANCH   9  11
ATOM     11  C   UNL     1       9.472  -0.411   5.132  0.00  0.00    +0.077 A 
ATOM     12  C   UNL     1      10.750  -0.342   4.610  0.00  0.00    +0.022 A 
ATOM     13  C   UNL     1      11.511  -1.488   4.584  0.00  0.00    +0.024 A 
ATOM     14  C   UNL     1      10.986  -2.645   5.069  0.00  0.00    +0.056 A 
ATOM     15  S   UNL     1       9.359  -2.132   5.596  0.00  0.00    -0.077 S 
ATOM     16 BR   UNL     1      11.779  -4.359   5.166  0.00  0.00    -0.043 Br
ENDBRANCH   9  11
ENDBRANCH   5   6
ENDBRANCH   4   5
ENDBRANCH   2   4
ENDBRANCH   1   2
BRANCH   1  17
ATOM     17  S   UNL     1       0.389   2.495   4.898  0.00  0.00    -0.094 S 
BRANCH  17  22
ATOM     18  C   UNL     1      -2.859   1.534  -0.056  0.00  0.00    +0.046 C 
ATOM     19  C   UNL     1      -2.085   1.785   1.212  0.00  0.00    -0.026 A 
ATOM     20  C   UNL     1      -2.736   2.227   2.350  0.00  0.00    -0.031 A 
ATOM     21  C   UNL     1      -1.978   2.454   3.504  0.00  0.00    +0.071 A 
ATOM     22  C   UNL     1      -0.592   2.219   3.461  0.00  0.00    +0.110 A 
ATOM     23  N   UNL     1      -0.021   1.791   2.345  0.00  0.00    -0.245 NA
ATOM     24  C   UNL     1      -0.718   1.572   1.248  0.00  0.00    +0.043 A 
ATOM     25  C   UNL     1      -0.013   1.086   0.008  0.00  0.00    +0.066 C 
ATOM     26  C   UNL     1      -4.224   2.463   2.345  0.00  0.00    +0.045 C 
BRANCH  21  27
ATOM     27  C   UNL     1      -2.620   2.930   4.742  0.00  0.00    +0.244 C 
ATOM     28  O   UNL     1      -2.726   4.123   4.952  0.00  0.00    -0.270 OA
ATOM     29  N   UNL     1      -3.091   2.043   5.642  0.00  0.00    -0.325 N 
ATOM     30  H   UNL     1      -3.570   2.399   6.566  0.00  0.00    +0.145 HD
ATOM     31  H   UNL     1      -2.995   0.964   5.452  0.00  0.00    +0.145 HD
ENDBRANCH  21  27
ENDBRANCH  17  22
ENDBRANCH   1  17
TORSDOF 8
