REMARK  Name = ZINC09234936
REMARK  8 active torsions:
REMARK  status: ('A' for Active; 'I' for Inactive)
REMARK    1  A    between atoms: C_1  and  C_2
REMARK    2  A    between atoms: C_4  and  N_36
REMARK    3  A    between atoms: C_5  and  O_34
REMARK    4  A    between atoms: C_7  and  N_8
REMARK    5  A    between atoms: C_13  and  C_29
REMARK    6  A    between atoms: C_29  and  C_30
REMARK    7  A    between atoms: C_30  and  C_31
REMARK    8  A    between atoms: O_34  and  C_35
REMARK                            x       y       z     vdW  Elec       q    Type
REMARK                         _______ _______ _______ _____ _____    ______ ____
ROOT
ATOM      1  N   UNL     1       4.981   5.500  -1.344  0.00  0.00    -0.210 N 
ATOM      2  C   UNL     1       4.208   6.466  -0.835  0.00  0.00    +0.228 C 
ATOM      3  O   UNL     1       4.588   7.575  -0.523  0.00  0.00    -0.275 OA
ATOM      4  C   UNL     1       2.789   5.961  -0.708  0.00  0.00    +0.073 C 
ATOM      5  C   UNL     1       2.411   5.825   0.782  0.00  0.00    -0.057 C 
ATOM      6  C   UNL     1       2.576   3.631  -0.006  0.00  0.00    +0.050 C 
ATOM      7  C   UNL     1       2.880   4.501  -1.233  0.00  0.00    +0.088 C 
ATOM      8  C   UNL     1       4.338   4.356  -1.607  0.00  0.00    +0.229 C 
ATOM      9  O   UNL     1       4.846   3.359  -2.074  0.00  0.00    -0.275 OA
ATOM     10  C   UNL     1       1.144   3.178   0.006  0.00  0.00    -0.028 A 
ATOM     11  C   UNL     1      -0.061   3.843   0.021  0.00  0.00    +0.004 A 
ATOM     12  C   UNL     1      -1.247   3.130   0.029  0.00  0.00    +0.000 A 
ATOM     13  C   UNL     1      -1.218   1.747   0.017  0.00  0.00    +0.002 A 
ATOM     14  C   UNL     1      -0.013   1.076   0.008  0.00  0.00    +0.023 A 
ATOM     15  C   UNL     1       1.185   1.786   0.000  0.00  0.00    +0.036 A 
ATOM     16  N   UNL     1       2.510   1.343  -0.013  0.00  0.00    -0.286 N 
ATOM     17  C   UNL     1       3.388   2.365  -0.017  0.00  0.00    +0.211 C 
ATOM     18  O   UNL     1       4.597   2.280  -0.026  0.00  0.00    -0.277 OA
ATOM     19  H   UNL     1       2.767   0.408  -0.020  0.00  0.00    +0.155 HD
ATOM     20  N   UNL     1       2.874   4.476   1.135  0.00  0.00    +0.394 N 
ATOM     21  H   UNL     1       2.378   4.136   1.968  0.00  0.00    -0.083 HD
ATOM     22  H   UNL     1       3.885   4.483   1.318  0.00  0.00    -0.083 HD
ENDROOT
BRANCH   1  29
ATOM     23  C   UNL     1       5.790   6.481  -3.889  0.00  0.00    +0.046 C 
ATOM     24  C   UNL     1       6.790   6.148  -2.810  0.00  0.00    -0.026 A 
ATOM     25  C   UNL     1       8.141   6.317  -3.045  0.00  0.00    +0.041 A 
ATOM     26  C   UNL     1       9.059   6.013  -2.059  0.00  0.00    +0.168 A 
ATOM     27  C   UNL     1       8.627   5.536  -0.829  0.00  0.00    +0.152 A 
ATOM     28  C   UNL     1       7.272   5.371  -0.588  0.00  0.00    +0.072 A 
ATOM     29  C   UNL     1       6.352   5.672  -1.582  0.00  0.00    +0.050 A 
BRANCH  26  30
ATOM     30  N   UNL     1      10.506   6.195  -2.314  0.00  0.00    +0.060 N 
ATOM     31  O   UNL     1      10.886   6.613  -3.393  0.00  0.00    -0.126 OA
ATOM     32  O   UNL     1      11.316   5.927  -1.445  0.00  0.00    -0.126 OA
ENDBRANCH  26  30
BRANCH  27  33
ATOM     33  O   UNL     1       9.531   5.237   0.140  0.00  0.00    -0.493 OA
ATOM     34  C   UNL     1       9.016   4.751   1.381  0.00  0.00    +0.277 C 
ENDBRANCH  27  33
ENDBRANCH   1  29
BRANCH   5  35
ATOM     35  C   UNL     1       3.136   6.885   1.614  0.00  0.00    -0.006 C 
BRANCH  35  36
ATOM     36  C   UNL     1       2.653   6.812   3.064  0.00  0.00    +0.094 C 
BRANCH  36  37
ATOM     37  C   UNL     1       3.367   7.856   3.883  0.00  0.00    +0.210 C 
ATOM     38  O   UNL     1       4.181   8.586   3.359  0.00  0.00    -0.276 OA
ATOM     39  N   UNL     1       3.100   7.979   5.199  0.00  0.00    -0.329 N 
ATOM     40  H   UNL     1       2.448   7.395   5.618  0.00  0.00    +0.145 HD
ATOM     41  H   UNL     1       3.559   8.651   5.726  0.00  0.00    +0.145 HD
ENDBRANCH  36  37
ENDBRANCH  35  36
ENDBRANCH   5  35
TORSDOF 6
