REMARK  Name = ZINC39600373
REMARK  7 active torsions:
REMARK  status: ('A' for Active; 'I' for Inactive)
REMARK    1  A    between atoms: C_1  and  C_2
REMARK    2  A    between atoms: C_2  and  O_3
REMARK    3  A    between atoms: O_3  and  C_4
REMARK    4  A    between atoms: C_4  and  C_6
REMARK    5  A    between atoms: C_7  and  C_25
REMARK    6  A    between atoms: C_11  and  C_24
REMARK    7  A    between atoms: C_17  and  C_19
REMARK                            x       y       z     vdW  Elec       q    Type
REMARK                         _______ _______ _______ _____ _____    ______ ____
ROOT
ATOM      1  C   UNL     1       1.248  -2.361  -2.582  0.00  0.00    +0.086 C 
ATOM      2  C   UNL     1       1.600  -3.648  -2.562  0.00  0.00    +0.115 C 
ATOM      3  O   UNL     1       2.377  -4.211  -3.509  0.00  0.00    -0.445 OA
ATOM      4  C   UNL     1       2.971  -3.374  -4.385  0.00  0.00    +0.210 C 
ATOM      5  N   UNL     1       4.196  -3.567  -4.776  0.00  0.00    -0.204 NA
ATOM      6  C   UNL     1       4.817  -2.741  -5.614  0.00  0.00    +0.123 C 
ATOM      7  N   UNL     1       4.240  -1.663  -6.089  0.00  0.00    -0.165 NA
ATOM      8  C   UNL     1       2.988  -1.336  -5.778  0.00  0.00    +0.251 C 
ATOM      9  O   UNL     1       2.512  -0.313  -6.226  0.00  0.00    -0.273 OA
ATOM     10  C   UNL     1       2.152  -2.206  -4.884  0.00  0.00    +0.178 C 
ATOM     11  C   UNL     1       1.691  -1.408  -3.660  0.00  0.00    +0.116 C 
ATOM     12  C   UNL     1       6.231  -3.053  -6.029  0.00  0.00    +0.085 C 
ATOM     13  C   UNL     1       1.106  -4.510  -1.429  0.00  0.00    +0.087 C 
ENDROOT
BRANCH  11  14
ATOM     14  C   UNL     1       2.835  -0.569  -3.152  0.00  0.00    +0.114 A 
ATOM     15  C   UNL     1       2.840   0.772  -3.043  0.00  0.00    +0.045 A 
ATOM     16  C   UNL     1       4.104   1.136  -2.526  0.00  0.00    +0.041 A 
ATOM     17  C   UNL     1       4.796  -0.004  -2.350  0.00  0.00    +0.195 A 
ATOM     18  O   UNL     1       4.020  -1.034  -2.725  0.00  0.00    -0.467 OA
ENDBRANCH  11  14
BRANCH   1  19
ATOM     19  C   UNL     1       0.416  -1.870  -1.545  0.00  0.00    +0.339 C 
ATOM     20  O   UNL     1       0.893  -1.206  -0.644  0.00  0.00    -0.245 OA
BRANCH  19  21
ATOM     21  O   UNL     1      -0.906  -2.139  -1.557  0.00  0.00    -0.462 OA
BRANCH  21  23
ATOM     22  C   UNL     1      -3.149  -2.018  -0.663  0.00  0.00    +0.048 C 
ATOM     23  C   UNL     1      -1.685  -1.613  -0.480  0.00  0.00    +0.229 C 
ENDBRANCH  21  23
ENDBRANCH  19  21
ENDBRANCH   1  19
TORSDOF 4
