REMARK  Name = ZINC52892414
REMARK  9 active torsions:
REMARK  status: ('A' for Active; 'I' for Inactive)
REMARK    1  A    between atoms: C_1  and  C_2
REMARK    2  A    between atoms: C_3  and  C_22
REMARK    3  A    between atoms: C_7  and  S_12
REMARK    4  A    between atoms: C_10  and  C_11
REMARK    5  A    between atoms: S_12  and  C_13
REMARK    6  A    between atoms: C_13  and  C_14
REMARK    7  A    between atoms: C_16  and  C_19
REMARK    8  A    between atoms: C_19  and  C_20
REMARK    9  A    between atoms: C_19  and  C_21
REMARK                            x       y       z     vdW  Elec       q    Type
REMARK                         _______ _______ _______ _____ _____    ______ ____
ROOT
ATOM      1  C   UNL     1      -0.018   1.503   0.010  0.00  0.00    +0.047 C 
ATOM      2  C   UNL     1       0.002  -0.004   0.002  0.00  0.00    -0.008 A 
ATOM      3  C   UNL     1       0.006  -0.705  -1.209  0.00  0.00    +0.047 A 
ATOM      4  N   UNL     1       0.024  -2.019  -1.214  0.00  0.00    -0.216 NA
ATOM      5  C   UNL     1       0.038  -2.710  -0.068  0.00  0.00    +0.254 A 
ATOM      6  N   UNL     1       0.057  -4.013   0.191  0.00  0.00    -0.183 NA
ATOM      7  C   UNL     1       0.066  -4.209   1.508  0.00  0.00    +0.211 A 
ATOM      8  N   UNL     1       0.053  -3.044   2.124  0.00  0.00    -0.137 NA
ATOM      9  N   UNL     1       0.035  -2.055   1.131  0.00  0.00    -0.200 N 
ATOM     10  C   UNL     1       0.023  -0.698   1.170  0.00  0.00    +0.048 A 
ATOM     11  C   UNL     1       0.025   0.029   2.490  0.00  0.00    +0.066 C 
ATOM     12  C   UNL     1      -0.011   0.050  -2.513  0.00  0.00    +0.066 C 
ENDROOT
BRANCH   7  13
ATOM     13  S   UNL     1       0.090  -5.781   2.304  0.00  0.00    -0.076 S 
BRANCH  13  14
ATOM     14  C   UNL     1       0.100  -6.967   0.931  0.00  0.00    +0.157 C 
BRANCH  14  15
ATOM     15  C   UNL     1       0.121  -8.370   1.480  0.00  0.00    +0.182 A 
ATOM     16  N   UNL     1       1.220  -9.078   1.764  0.00  0.00    -0.195 NA
ATOM     17  C   UNL     1       0.889 -10.254   2.222  0.00  0.00    +0.230 A 
ATOM     18  O   UNL     1      -0.447 -10.334   2.245  0.00  0.00    -0.338 OA
ATOM     19  N   UNL     1      -0.928  -9.089   1.761  0.00  0.00    -0.060 NA
BRANCH  17  20
ATOM     20  C   UNL     1       1.847 -11.336   2.651  0.00  0.00    +0.072 C 
ATOM     21  C   UNL     1       1.607 -11.674   4.123  0.00  0.00    +0.017 C 
ATOM     22  C   UNL     1       1.621 -12.585   1.797  0.00  0.00    +0.017 C 
ENDBRANCH  17  20
ENDBRANCH  14  15
ENDBRANCH  13  14
ENDBRANCH   7  13
TORSDOF 4
