REMARK  Name = ZINC03640574
REMARK  12 active torsions:
REMARK  status: ('A' for Active; 'I' for Inactive)
REMARK    1  A    between atoms: C_1  and  C_2
REMARK    2  A    between atoms: C_2  and  C_3
REMARK    3  A    between atoms: C_3  and  N_4
REMARK    4  A    between atoms: N_4  and  C_5
REMARK    5  A    between atoms: N_4  and  C_8
REMARK    6  A    between atoms: C_5  and  C_6
REMARK    7  A    between atoms: C_6  and  C_7
REMARK    8  A    between atoms: C_8  and  C_9
REMARK    9  A    between atoms: C_10  and  C_20
REMARK   10  A    between atoms: N_22  and  N_23
REMARK   11  A    between atoms: C_24  and  C_25
REMARK   12  A    between atoms: C_28  and  C_31
REMARK                            x       y       z     vdW  Elec       q    Type
REMARK                         _______ _______ _______ _____ _____    ______ ____
ROOT
ATOM      1  C   UNL     1      -0.668   5.688  -0.280  0.00  0.00    +0.063 A 
ATOM      2  C   UNL     1       0.504   6.290  -0.639  0.00  0.00    +0.170 A 
ATOM      3  N   UNL     1       1.438   5.338  -0.806  0.00  0.00    -0.124 NA
ATOM      4  N   UNL     1       0.924   4.181  -0.569  0.00  0.00    -0.058 NA
ATOM      5  N   UNL     1      -0.424   4.359  -0.225  0.00  0.00    -0.194 N 
ATOM      6  C   UNL     1      -1.341   3.355   0.106  0.00  0.00    +0.240 A 
ATOM      7  C   UNL     1      -1.058   1.918   0.156  0.00  0.00    +0.206 A 
ATOM      8  N   UNL     1      -2.150   1.297   0.506  0.00  0.00    -0.032 NA
ATOM      9  O   UNL     1      -3.163   2.270   0.690  0.00  0.00    -0.239 OA
ATOM     10  N   UNL     1      -2.592   3.538   0.420  0.00  0.00    -0.027 NA
ATOM     11  N   UNL     1       0.167   1.319  -0.119  0.00  0.00    -0.337 N 
ATOM     12  H   UNL     1       0.272   0.227  -0.052  0.00  0.00    +0.144 HD
ATOM     13  H   UNL     1       1.031   1.939  -0.402  0.00  0.00    +0.144 HD
ENDROOT
BRANCH   2  14
ATOM     14  C   UNL     1       0.709   7.739  -0.819  0.00  0.00    +0.285 C 
ATOM     15  O   UNL     1      -0.214   8.511  -0.640  0.00  0.00    -0.267 OA
ATOM     16  N   UNL     1       1.919   8.209  -1.182  0.00  0.00    -0.202 N 
ATOM     17  H   UNL     1       2.754   7.511  -1.344  0.00  0.00    +0.178 HD
BRANCH  16  18
ATOM     18  N   UNL     1       2.114   9.586  -1.353  0.00  0.00    -0.187 NA
ATOM     19  C   UNL     1       3.279  10.038  -1.703  0.00  0.00    +0.138 C 
BRANCH  19  20
ATOM     20  C   UNL     1       3.483  11.487  -1.883  0.00  0.00    -0.005 A 
ATOM     21  C   UNL     1       2.424  12.376  -1.684  0.00  0.00    +0.010 A 
ATOM     22  C   UNL     1       2.624  13.730  -1.850  0.00  0.00    +0.013 A 
ATOM     23  C   UNL     1       3.868  14.209  -2.223  0.00  0.00    +0.055 A 
ATOM     24  C   UNL     1       4.920  13.334  -2.427  0.00  0.00    +0.013 A 
ATOM     25  C   UNL     1       4.736  11.977  -2.260  0.00  0.00    +0.010 A 
BRANCH  23  26
ATOM     26  C   UNL     1       4.077  15.690  -2.407  0.00  0.00    +0.417 C 
ATOM     27  F   UNL     1       3.803  16.037  -3.735  0.00  0.00    -0.166 F 
ATOM     28  F   UNL     1       3.218  16.392  -1.555  0.00  0.00    -0.166 F 
ATOM     29  F   UNL     1       5.403  16.015  -2.104  0.00  0.00    -0.166 F 
ENDBRANCH  23  26
ENDBRANCH  19  20
ENDBRANCH  16  18
ENDBRANCH   2  14
BRANCH   1  30
ATOM     30  C   UNL     1      -1.981   6.372   0.002  0.00  0.00    -0.020 C 
BRANCH  30  31
ATOM     31  N   UNL     1      -2.273   6.297   1.440  0.00  0.00    +0.383 N 
ATOM     32  H   UNL     1      -1.986   5.295   1.791  0.00  0.00    -0.081 HD
BRANCH  31  33
ATOM     33  C   UNL     1      -1.481   7.281   2.190  0.00  0.00    -0.079 C 
BRANCH  33  35
ATOM     34  C   UNL     1       0.728   7.713   3.275  0.00  0.00    +0.002 C 
ATOM     35  C   UNL     1      -0.057   6.755   2.376  0.00  0.00    -0.022 C 
ENDBRANCH  33  35
ENDBRANCH  31  33
BRANCH  31  36
ATOM     36  C   UNL     1      -3.709   6.472   1.695  0.00  0.00    -0.079 C 
BRANCH  36  37
ATOM     37  C   UNL     1      -4.034   6.008   3.116  0.00  0.00    -0.022 C 
ATOM     38  C   UNL     1      -5.547   6.069   3.339  0.00  0.00    +0.002 C 
ENDBRANCH  36  37
ENDBRANCH  31  36
ENDBRANCH  30  31
ENDBRANCH   1  30
TORSDOF 10
