REMARK  Name = ZINC45442762
REMARK  9 active torsions:
REMARK  status: ('A' for Active; 'I' for Inactive)
REMARK    1  A    between atoms: C_1  and  C_2
REMARK    2  A    between atoms: C_11  and  N_33
REMARK    3  A    between atoms: C_13  and  S_15
REMARK    4  A    between atoms: S_15  and  C_16
REMARK    5  A    between atoms: C_16  and  C_17
REMARK    6  A    between atoms: C_24  and  O_31
REMARK    7  A    between atoms: C_25  and  O_29
REMARK    8  A    between atoms: O_29  and  C_30
REMARK    9  A    between atoms: O_31  and  C_32
REMARK                            x       y       z     vdW  Elec       q    Type
REMARK                         _______ _______ _______ _____ _____    ______ ____
ROOT
ATOM      1  S   UNL     1      -0.503  -8.313   2.590  0.00  0.00    -0.077 S 
ENDROOT
BRANCH   1  13
ATOM      2  C   UNL     1       0.559   1.283  -0.694  0.00  0.00    +0.008 C 
ATOM      3  C   UNL     1       0.440  -0.235  -0.549  0.00  0.00    -0.009 C 
ATOM      4  C   UNL     1      -1.037  -0.626  -0.433  0.00  0.00    +0.008 C 
ATOM      5  C   UNL     1      -1.180  -2.144  -0.537  0.00  0.00    +0.037 C 
ATOM      6  C   UNL     1      -0.249  -2.800   0.478  0.00  0.00    -0.025 A 
ATOM      7  C   UNL     1       0.784  -2.109   1.010  0.00  0.00    -0.004 A 
ATOM      8  S   UNL     1       1.583  -3.241   2.119  0.00  0.00    -0.073 S 
ATOM      9  C   UNL     1       0.535  -4.638   1.872  0.00  0.00    +0.115 A 
ATOM     10  C   UNL     1      -0.412  -4.175   0.924  0.00  0.00    +0.051 A 
ATOM     11  C   UNL     1      -1.418  -5.097   0.513  0.00  0.00    +0.129 A 
ATOM     12  N   UNL     1      -1.361  -6.306   1.065  0.00  0.00    -0.207 NA
ATOM     13  C   UNL     1      -0.444  -6.673   1.948  0.00  0.00    +0.191 A 
ATOM     14  N   UNL     1       0.523  -5.857   2.374  0.00  0.00    -0.214 NA
ATOM     15  C   UNL     1       1.173  -0.691   0.721  0.00  0.00    +0.046 C 
BRANCH  11  16
ATOM     16  N   UNL     1      -2.394  -4.756  -0.406  0.00  0.00    -0.343 N 
ATOM     17  H   UNL     1      -2.277  -3.975  -0.970  0.00  0.00    +0.144 HD
ATOM     18  H   UNL     1      -3.195  -5.297  -0.486  0.00  0.00    +0.144 HD
ENDBRANCH  11  16
ENDBRANCH   1  13
BRANCH   1  19
ATOM     19  C   UNL     1      -1.936  -9.056   1.763  0.00  0.00    +0.173 C 
BRANCH  19  20
ATOM     20  C   UNL     1      -2.102 -10.479   2.229  0.00  0.00    +0.226 C 
ATOM     21  O   UNL     1      -1.329 -10.947   3.039  0.00  0.00    -0.275 OA
ATOM     22  N   UNL     1      -3.109 -11.234   1.745  0.00  0.00    -0.296 N 
ATOM     23  C   UNL     1      -3.302 -12.626   2.184  0.00  0.00    +0.113 C 
ATOM     24  C   UNL     1      -4.642 -12.705   2.916  0.00  0.00    +0.054 C 
ATOM     25  C   UNL     1      -5.726 -12.022   2.124  0.00  0.00    -0.038 A 
ATOM     26  C   UNL     1      -7.043 -12.361   2.414  0.00  0.00    +0.053 A 
ATOM     27  C   UNL     1      -8.089 -11.767   1.733  0.00  0.00    +0.162 A 
ATOM     28  C   UNL     1      -7.821 -10.818   0.750  0.00  0.00    +0.162 A 
ATOM     29  C   UNL     1      -6.510 -10.486   0.463  0.00  0.00    +0.054 A 
ATOM     30  C   UNL     1      -5.462 -11.091   1.145  0.00  0.00    -0.023 A 
ATOM     31  C   UNL     1      -4.060 -10.699   0.765  0.00  0.00    +0.143 C 
BRANCH  28  32
ATOM     32  O   UNL     1      -8.841 -10.223   0.077  0.00  0.00    -0.491 OA
ATOM     33  C   UNL     1      -8.488  -9.260  -0.918  0.00  0.00    +0.277 C 
ENDBRANCH  28  32
BRANCH  27  34
ATOM     34  O   UNL     1      -9.373 -12.106   2.023  0.00  0.00    -0.491 OA
ATOM     35  C   UNL     1      -9.571 -13.087   3.043  0.00  0.00    +0.277 C 
ENDBRANCH  27  34
ENDBRANCH  19  20
ENDBRANCH   1  19
TORSDOF 6
