REMARK  Name = ZINC04667952
REMARK  4 active torsions:
REMARK  status: ('A' for Active; 'I' for Inactive)
REMARK    1  A    between atoms: C_11  and  C_12
REMARK    2  A    between atoms: C_15  and  C_18
REMARK    3  A    between atoms: N_20  and  C_21
REMARK    4  A    between atoms: C_21  and  C_22
REMARK                            x       y       z     vdW  Elec       q    Type
REMARK                         _______ _______ _______ _____ _____    ______ ____
ROOT
ATOM      1  C   UNL     1       2.344  -0.106  -0.277  0.00  0.00    -0.021 A 
ATOM      2  C   UNL     1       1.269  -0.950  -0.577  0.00  0.00    +0.009 A 
ATOM      3  C   UNL     1       0.029  -0.423  -0.800  0.00  0.00    +0.013 A 
ATOM      4  C   UNL     1      -0.167   0.959  -0.729  0.00  0.00    +0.037 A 
ATOM      5  C   UNL     1       0.906   1.803  -0.429  0.00  0.00    +0.013 A 
ATOM      6  C   UNL     1       2.147   1.278  -0.206  0.00  0.00    +0.009 A 
ENDROOT
BRANCH   1  17
ATOM      7  C   UNL     1       4.889  -6.605   0.440  0.00  0.00    +0.002 A 
ATOM      8  C   UNL     1       6.032  -5.920   0.070  0.00  0.00    +0.004 A 
ATOM      9  C   UNL     1       6.077  -4.541   0.162  0.00  0.00    +0.048 A 
ATOM     10  C   UNL     1       4.973  -3.843   0.623  0.00  0.00    +0.150 A 
ATOM     11  C   UNL     1       3.819  -4.532   0.994  0.00  0.00    +0.077 A 
ATOM     12  C   UNL     1       3.783  -5.916   0.901  0.00  0.00    +0.027 A 
ATOM     13  N   UNL     1       2.700  -3.831   1.459  0.00  0.00    -0.276 N 
ATOM     14  C   UNL     1       2.654  -2.485   1.293  0.00  0.00    +0.284 C 
ATOM     15  O   UNL     1       1.700  -1.831   1.673  0.00  0.00    -0.266 OA
ATOM     16  C   UNL     1       3.809  -1.843   0.625  0.00  0.00    +0.191 C 
ATOM     17  C   UNL     1       3.680  -0.672  -0.038  0.00  0.00    +0.059 C 
ATOM     18  O   UNL     1       5.013  -2.484   0.714  0.00  0.00    -0.449 OA
ATOM     19  H   UNL     1       1.947  -4.315   1.906  0.00  0.00    +0.155 HD
ENDBRANCH   1  17
BRANCH   4  20
ATOM     20  C   UNL     1      -1.507   1.528  -0.976  0.00  0.00    +0.244 C 
ATOM     21  O   UNL     1      -2.440   0.795  -1.241  0.00  0.00    -0.270 OA
ATOM     22  N   UNL     1      -1.696   2.861  -0.907  0.00  0.00    -0.307 N 
ATOM     23  H   UNL     1      -0.952   3.446  -0.695  0.00  0.00    +0.149 HD
BRANCH  22  24
ATOM     24  C   UNL     1      -3.026   3.426  -1.152  0.00  0.00    +0.140 C 
BRANCH  24  25
ATOM     25  C   UNL     1      -2.967   4.925  -1.016  0.00  0.00    -0.027 A 
ATOM     26  C   UNL     1      -3.202   5.516   0.212  0.00  0.00    +0.009 A 
ATOM     27  C   UNL     1      -3.145   6.891   0.344  0.00  0.00    +0.050 A 
ATOM     28  C   UNL     1      -2.862   7.681  -0.758  0.00  0.00    +0.166 A 
ATOM     29  C   UNL     1      -2.631   7.087  -1.996  0.00  0.00    +0.167 A 
ATOM     30  C   UNL     1      -2.684   5.708  -2.119  0.00  0.00    +0.054 A 
ATOM     31  O   UNL     1      -2.378   8.068  -2.911  0.00  0.00    -0.453 OA
ATOM     32  C   UNL     1      -2.858   9.286  -2.311  0.00  0.00    +0.466 C 
ATOM     33  O   UNL     1      -2.754   9.035  -0.897  0.00  0.00    -0.453 OA
ENDBRANCH  24  25
ENDBRANCH  22  24
ENDBRANCH   4  20
TORSDOF 4
