REMARK  Name = ZINC15974317
REMARK  10 active torsions:
REMARK  status: ('A' for Active; 'I' for Inactive)
REMARK    1  A    between atoms: C_1  and  C_2
REMARK    2  A    between atoms: C_3  and  N_16
REMARK    3  A    between atoms: C_4  and  C_15
REMARK    4  A    between atoms: N_5  and  C_7
REMARK    5  A    between atoms: C_7  and  C_8
REMARK    6  A    between atoms: C_17  and  C_19
REMARK    7  A    between atoms: C_19  and  S_20
REMARK    8  A    between atoms: S_20  and  C_21
REMARK    9  A    between atoms: C_22  and  N_28
REMARK   10  A    between atoms: C_23  and  C_27
REMARK                            x       y       z     vdW  Elec       q    Type
REMARK                         _______ _______ _______ _____ _____    ______ ____
ROOT
ATOM      1  N   UNL     1      -0.220  -0.378  -2.465  0.00  0.00    -0.282 N 
ATOM      2  C   UNL     1       0.132   0.881  -2.793  0.00  0.00    +0.228 C 
ATOM      3  O   UNL     1       0.645   1.603  -1.964  0.00  0.00    -0.275 OA
ATOM      4  H   UNL     1      -0.571  -0.976  -3.143  0.00  0.00    +0.155 HD
ENDROOT
BRANCH   1   7
ATOM      5  C   UNL     1      -2.006   0.553  -0.089  0.00  0.00    +0.069 C 
ATOM      6  C   UNL     1      -0.863  -0.428  -0.044  0.00  0.00    +0.081 A 
ATOM      7  C   UNL     1      -0.079  -0.824  -1.137  0.00  0.00    +0.077 A 
ATOM      8  C   UNL     1       0.841  -1.715  -0.688  0.00  0.00    +0.058 A 
ATOM      9  N   UNL     1       0.640  -1.874   0.646  0.00  0.00    -0.262 N 
ATOM     10  N   UNL     1      -0.430  -1.051   1.021  0.00  0.00    -0.174 NA
ATOM     11  C   UNL     1       1.894  -2.404  -1.517  0.00  0.00    +0.067 C 
BRANCH   9  12
ATOM     12  C   UNL     1       1.410  -2.746   1.537  0.00  0.00    +0.180 C 
BRANCH  12  13
ATOM     13  C   UNL     1       2.578  -1.981   2.104  0.00  0.00    -0.008 A 
ATOM     14  C   UNL     1       3.816  -2.056   1.493  0.00  0.00    +0.007 A 
ATOM     15  C   UNL     1       4.887  -1.354   2.014  0.00  0.00    +0.000 A 
ATOM     16  C   UNL     1       4.721  -0.577   3.145  0.00  0.00    +0.001 A 
ATOM     17  C   UNL     1       3.484  -0.502   3.757  0.00  0.00    +0.020 A 
ATOM     18  C   UNL     1       2.410  -1.200   3.233  0.00  0.00    +0.046 A 
ATOM     19 CL   UNL     1       0.854  -1.100   3.997  0.00  0.00    -0.083 Cl
ENDBRANCH  12  13
ENDBRANCH   9  12
ENDBRANCH   1   7
BRANCH   2  20
ATOM     20  C   UNL     1      -0.110   1.391  -4.190  0.00  0.00    +0.172 C 
BRANCH  20  21
ATOM     21  S   UNL     1       0.468   3.106  -4.317  0.00  0.00    -0.095 S 
BRANCH  21  22
ATOM     22  C   UNL     1       0.119   3.551  -5.986  0.00  0.00    +0.123 A 
ATOM     23  C   UNL     1       0.379   4.754  -6.570  0.00  0.00    +0.180 A 
ATOM     24  C   UNL     1      -0.051   4.687  -7.898  0.00  0.00    +0.091 A 
ATOM     25  N   UNL     1      -0.551   3.497  -8.112  0.00  0.00    -0.176 NA
ATOM     26  N   UNL     1      -0.454   2.756  -6.927  0.00  0.00    -0.269 N 
ATOM     27  H   UNL     1      -0.745   1.840  -6.801  0.00  0.00    +0.190 HD
ATOM     28  C   UNL     1       0.043   5.798  -8.912  0.00  0.00    +0.070 C 
BRANCH  23  29
ATOM     29  N   UNL     1       1.007   5.924  -5.915  0.00  0.00    +0.061 N 
ATOM     30  O   UNL     1       2.208   6.057  -5.937  0.00  0.00    -0.126 OA
ATOM     31  O   UNL     1       0.317   6.747  -5.359  0.00  0.00    -0.126 OA
ENDBRANCH  23  29
ENDBRANCH  21  22
ENDBRANCH  20  21
ENDBRANCH   2  20
TORSDOF 7
