REMARK  Name = ZINC00160696
REMARK  3 active torsions:
REMARK  status: ('A' for Active; 'I' for Inactive)
REMARK    1  A    between atoms: C_9  and  O_24
REMARK    2  A    between atoms: C_10  and  C_11
REMARK    3  A    between atoms: N_12  and  N_13
REMARK                            x       y       z     vdW  Elec       q    Type
REMARK                         _______ _______ _______ _____ _____    ______ ____
ROOT
ATOM      1  C   UNL     1      -1.372   6.050   0.038  0.00  0.00    +0.143 C 
ATOM      2  N   UNL     1      -1.364   7.349   0.054  0.00  0.00    -0.177 NA
ENDROOT
BRANCH   2   3
ATOM      3  N   UNL     1      -2.569   8.058  -0.037  0.00  0.00    -0.119 N 
ATOM      4  C   UNL     1      -2.659   9.397  -0.128  0.00  0.00    +0.274 C 
ATOM      5  O   UNL     1      -1.723  10.171  -0.145  0.00  0.00    -0.268 OA
ATOM      6  C   UNL     1      -4.088   9.769  -0.207  0.00  0.00    +0.051 A 
ATOM      7  C   UNL     1      -4.771  10.969  -0.313  0.00  0.00    +0.014 A 
ATOM      8  C   UNL     1      -6.157  10.970  -0.360  0.00  0.00    +0.001 A 
ATOM      9  C   UNL     1      -6.860   9.781  -0.301  0.00  0.00    +0.001 A 
ATOM     10  C   UNL     1      -6.190   8.572  -0.194  0.00  0.00    +0.014 A 
ATOM     11  C   UNL     1      -4.805   8.556  -0.147  0.00  0.00    +0.051 A 
ATOM     12  C   UNL     1      -3.788   7.489  -0.038  0.00  0.00    +0.274 C 
ATOM     13  O   UNL     1      -4.015   6.299   0.038  0.00  0.00    -0.268 OA
ENDBRANCH   2   3
BRANCH   1  23
ATOM     14  C   UNL     1      -0.009   1.077  -0.032  0.00  0.00    +0.001 A 
ATOM     15  C   UNL     1      -1.231   1.746  -0.022  0.00  0.00    +0.001 A 
ATOM     16  C   UNL     1      -1.283   3.107   0.002  0.00  0.00    +0.009 A 
ATOM     17  C   UNL     1      -0.094   3.846   0.003  0.00  0.00    -0.006 A 
ATOM     18  C   UNL     1       1.151   3.169  -0.014  0.00  0.00    -0.017 A 
ATOM     19  C   UNL     1       1.167   1.764  -0.031  0.00  0.00    +0.008 A 
ATOM     20  C   UNL     1       2.344   3.913  -0.012  0.00  0.00    +0.012 A 
ATOM     21  C   UNL     1       2.317   5.272   0.005  0.00  0.00    +0.046 A 
ATOM     22  C   UNL     1       1.117   5.982   0.022  0.00  0.00    +0.126 A 
ATOM     23  C   UNL     1      -0.103   5.307   0.021  0.00  0.00    +0.044 A 
BRANCH  22  24
ATOM     24  O   UNL     1       1.138   7.339   0.038  0.00  0.00    -0.506 OA
ATOM     25  H   UNL     1       1.149   7.722   0.927  0.00  0.00    +0.292 HD
ENDBRANCH  22  24
ENDBRANCH   1  23
TORSDOF 3
