REMARK  Name = ZINC39335060
REMARK  8 active torsions:
REMARK  status: ('A' for Active; 'I' for Inactive)
REMARK    1  A    between atoms: C_1  and  C_2
REMARK    2  A    between atoms: N_11  and  S_12
REMARK    3  A    between atoms: S_12  and  C_15
REMARK    4  A    between atoms: C_19  and  C_21
REMARK    5  A    between atoms: C_21  and  O_23
REMARK    6  A    between atoms: O_23  and  C_24
REMARK    7  A    between atoms: C_24  and  C_25
REMARK    8  A    between atoms: C_25  and  C_27
REMARK                            x       y       z     vdW  Elec       q    Type
REMARK                         _______ _______ _______ _____ _____    ______ ____
ROOT
ATOM      1  C   UNL     1      -0.761  -1.546   3.229  0.00  0.00    +0.110 A 
ATOM      2  C   UNL     1      -2.127  -1.419   3.051  0.00  0.00    +0.029 A 
ATOM      3  C   UNL     1      -2.979  -2.442   3.429  0.00  0.00    +0.003 A 
ATOM      4  C   UNL     1      -2.470  -3.596   3.988  0.00  0.00    +0.015 A 
ATOM      5  C   UNL     1      -1.092  -3.731   4.171  0.00  0.00    +0.061 A 
ATOM      6  C   UNL     1      -0.238  -2.697   3.781  0.00  0.00    +0.043 A 
ENDROOT
BRANCH   1   7
ATOM      7  S   UNL     1       0.314  -0.237   2.744  0.00  0.00    +0.075 S 
ATOM      8  O   UNL     1       1.501  -0.380   3.512  0.00  0.00    -0.150 OA
ATOM      9  O   UNL     1      -0.463   0.953   2.758  0.00  0.00    -0.150 OA
BRANCH   7  19
ATOM     10  C   UNL     1      -0.019   1.526   0.010  0.00  0.00    +0.030 C 
ATOM     11  C   UNL     1       0.002  -0.004   0.002  0.00  0.00    +0.099 C 
ATOM     12  C   UNL     1       0.778  -0.520  -1.221  0.00  0.00    +0.061 C 
ATOM     13  C   UNL     1       1.931  -1.304  -0.635  0.00  0.00    -0.023 A 
ATOM     14  C   UNL     1       2.960  -1.995  -1.246  0.00  0.00    +0.005 A 
ATOM     15  C   UNL     1       3.911  -2.644  -0.481  0.00  0.00    +0.000 A 
ATOM     16  C   UNL     1       3.831  -2.599   0.899  0.00  0.00    +0.002 A 
ATOM     17  C   UNL     1       2.807  -1.911   1.513  0.00  0.00    +0.025 A 
ATOM     18  C   UNL     1       1.842  -1.253   0.747  0.00  0.00    +0.055 A 
ATOM     19  N   UNL     1       0.735  -0.509   1.166  0.00  0.00    -0.200 N 
ENDBRANCH   7  19
ENDBRANCH   1   7
BRANCH   5  20
ATOM     20  C   UNL     1      -0.540  -4.964   4.768  0.00  0.00    +0.340 C 
ATOM     21  O   UNL     1       0.659  -5.078   4.926  0.00  0.00    -0.245 OA
BRANCH  20  22
ATOM     22  O   UNL     1      -1.366  -5.961   5.138  0.00  0.00    -0.453 OA
BRANCH  22  23
ATOM     23  C   UNL     1      -0.764  -7.125   5.709  0.00  0.00    +0.311 C 
BRANCH  23  24
ATOM     24  C   UNL     1      -1.835  -8.125   6.058  0.00  0.00    +0.199 C 
ATOM     25  O   UNL     1      -3.002  -7.867   5.839  0.00  0.00    -0.289 OA
BRANCH  24  26
ATOM     26  C   UNL     1      -1.483  -9.362   6.639  0.00  0.00    +0.026 C 
ATOM     27  C   UNL     1      -2.337 -10.384   7.011  0.00  0.00    +0.006 A 
ATOM     28  C   UNL     1      -3.742 -10.537   6.947  0.00  0.00    +0.010 A 
ATOM     29  C   UNL     1      -4.326 -11.671   7.394  0.00  0.00    +0.001 A 
ATOM     30  C   UNL     1      -3.588 -12.736   7.935  0.00  0.00    +0.002 A 
ATOM     31  C   UNL     1      -2.243 -12.691   8.043  0.00  0.00    +0.026 A 
ATOM     32  C   UNL     1      -1.527 -11.491   7.578  0.00  0.00    +0.043 A 
ATOM     33  N   UNL     1      -0.261 -11.185   7.561  0.00  0.00    -0.380 N 
ATOM     34  C   UNL     1      -0.092  -9.850   6.980  0.00  0.00    +0.152 C 
ATOM     35  H   UNL     1       0.457 -11.753   7.881  0.00  0.00    +0.160 HD
ENDBRANCH  24  26
ENDBRANCH  23  24
ENDBRANCH  22  23
ENDBRANCH  20  22
ENDBRANCH   5  20
TORSDOF 7
