REMARK  Name = ZINC41585371
REMARK  7 active torsions:
REMARK  status: ('A' for Active; 'I' for Inactive)
REMARK    1  A    between atoms: C_1  and  C_2
REMARK    2  A    between atoms: C_5  and  C_8
REMARK    3  A    between atoms: C_13  and  C_34
REMARK    4  A    between atoms: C_15  and  O_33
REMARK    5  A    between atoms: C_16  and  C_19
REMARK    6  A    between atoms: C_19  and  N_20
REMARK    7  A    between atoms: N_23  and  C_26
REMARK                            x       y       z     vdW  Elec       q    Type
REMARK                         _______ _______ _______ _____ _____    ______ ____
ROOT
ATOM      1  C   UNL     1       0.059  -4.244  -0.021  0.00  0.00    +0.058 C 
ATOM      2  C   UNL     1       0.176  -4.927   1.144  0.00  0.00    +0.176 C 
ATOM      3  C   UNL     1       0.319  -6.385   1.288  0.00  0.00    +0.232 C 
ATOM      4  O   UNL     1       0.357  -7.221   0.403  0.00  0.00    -0.283 OA
ATOM      5  C   UNL     1       0.407  -6.606   2.743  0.00  0.00    +0.071 A 
ATOM      6  C   UNL     1       0.550  -7.751   3.527  0.00  0.00    -0.033 A 
ATOM      7  C   UNL     1       0.603  -7.642   4.888  0.00  0.00    +0.050 A 
ATOM      8  C   UNL     1       0.514  -6.391   5.493  0.00  0.00    +0.122 A 
ATOM      9  C   UNL     1       0.371  -5.246   4.727  0.00  0.00    +0.020 A 
ATOM     10  C   UNL     1       0.316  -5.339   3.342  0.00  0.00    +0.145 A 
ATOM     11  O   UNL     1       0.189  -4.391   2.388  0.00  0.00    -0.451 OA
ATOM     12  C   UNL     1       0.647  -9.106   2.874  0.00  0.00    +0.045 C 
ENDROOT
BRANCH   1  17
ATOM     13  C   UNL     1       0.003   1.503   0.009  0.00  0.00    +0.044 C 
ATOM     14  C   UNL     1       0.017  -0.004   0.001  0.00  0.00    -0.050 A 
ATOM     15  C   UNL     1       0.009  -0.699   1.198  0.00  0.00    +0.004 A 
ATOM     16  C   UNL     1       0.022  -2.077   1.200  0.00  0.00    +0.008 A 
ATOM     17  C   UNL     1       0.044  -2.774  -0.014  0.00  0.00    -0.021 A 
ATOM     18  C   UNL     1       0.053  -2.064  -1.220  0.00  0.00    +0.008 A 
ATOM     19  C   UNL     1       0.034  -0.686  -1.204  0.00  0.00    +0.004 A 
ENDBRANCH   1  17
BRANCH   8  20
ATOM     20  O   UNL     1       0.566  -6.293   6.846  0.00  0.00    -0.506 OA
ATOM     21  H   UNL     1       1.460  -6.183   7.198  0.00  0.00    +0.292 HD
ENDBRANCH   8  20
BRANCH   9  22
ATOM     22  C   UNL     1       0.276  -3.899   5.396  0.00  0.00    -0.035 C 
BRANCH  22  23
ATOM     23  N   UNL     1       1.622  -3.332   5.550  0.00  0.00    +0.385 N 
ATOM     24  C   UNL     1       2.404  -4.176   6.463  0.00  0.00    -0.059 C 
ATOM     25  C   UNL     1       3.842  -3.651   6.535  0.00  0.00    +0.086 C 
ATOM     26  N   UNL     1       3.801  -2.228   6.908  0.00  0.00    -0.331 N 
ATOM     27  C   UNL     1       2.913  -1.337   6.146  0.00  0.00    +0.086 C 
ATOM     28  C   UNL     1       1.519  -1.971   6.092  0.00  0.00    -0.059 C 
ATOM     29  H   UNL     1       2.078  -3.301   4.651  0.00  0.00    -0.081 HD
BRANCH  26  30
ATOM     30  C   UNL     1       4.584  -1.737   7.958  0.00  0.00    +0.065 A 
ATOM     31  C   UNL     1       5.863  -1.260   7.707  0.00  0.00    +0.026 A 
ATOM     32  C   UNL     1       6.634  -0.775   8.746  0.00  0.00    +0.002 A 
ATOM     33  C   UNL     1       6.134  -0.765  10.035  0.00  0.00    +0.003 A 
ATOM     34  C   UNL     1       4.861  -1.240  10.290  0.00  0.00    +0.040 A 
ATOM     35  C   UNL     1       4.081  -1.721   9.254  0.00  0.00    +0.144 A 
ATOM     36  F   UNL     1       2.835  -2.180   9.502  0.00  0.00    -0.204 F 
ENDBRANCH  26  30
ENDBRANCH  22  23
ENDBRANCH   9  22
TORSDOF 5
