REMARK  Name = ZINC39687488
REMARK  3 active torsions:
REMARK  status: ('A' for Active; 'I' for Inactive)
REMARK    1  A    between atoms: C_7  and  C_10
REMARK    2  A    between atoms: C_14  and  C_23
REMARK    3  A    between atoms: N_25  and  C_26
REMARK                            x       y       z     vdW  Elec       q    Type
REMARK                         _______ _______ _______ _____ _____    ______ ____
ROOT
ATOM      1  C   UNL     1       0.383  -3.115  -0.037  0.00  0.00    +0.248 C 
ATOM      2  O   UNL     1      -0.767  -2.732   0.075  0.00  0.00    -0.270 OA
ATOM      3  N   UNL     1       0.647  -4.432  -0.148  0.00  0.00    -0.296 N 
ATOM      4  C   UNL     1       1.973  -5.094  -0.168  0.00  0.00    +0.121 C 
ATOM      5  C   UNL     1       1.778  -6.383   0.661  0.00  0.00    +0.100 C 
ATOM      6  C   UNL     1       0.270  -6.675   0.585  0.00  0.00    -0.004 C 
ATOM      7  C   UNL     1      -0.323  -5.546  -0.270  0.00  0.00    +0.115 C 
ATOM      8  C   UNL     1      -0.345  -6.650   1.981  0.00  0.00    -0.010 C 
ATOM      9  C   UNL     1      -1.832  -6.999   1.885  0.00  0.00    -0.082 C 
ATOM     10  N   UNL     1      -1.987  -8.330   1.284  0.00  0.00    +0.379 N 
ATOM     11  C   UNL     1      -1.476  -8.320  -0.092  0.00  0.00    -0.082 C 
ATOM     12  C   UNL     1       0.026  -8.027  -0.080  0.00  0.00    -0.010 C 
ATOM     13  H   UNL     1      -1.470  -9.005   1.828  0.00  0.00    -0.086 HD
ATOM     14  H   UNL     1      -2.963  -8.583   1.278  0.00  0.00    -0.086 HD
ENDROOT
BRANCH   1  21
ATOM     15  C   UNL     1       0.332   0.985   1.814  0.00  0.00    +0.001 A 
ATOM     16  C   UNL     1       1.485   1.745   1.682  0.00  0.00    +0.001 A 
ATOM     17  C   UNL     1       2.572   1.227   1.007  0.00  0.00    +0.015 A 
ATOM     18  C   UNL     1       2.499  -0.042   0.470  0.00  0.00    +0.020 A 
ATOM     19  C   UNL     1       1.341  -0.833   0.590  0.00  0.00    +0.001 A 
ATOM     20  C   UNL     1       0.249  -0.278   1.284  0.00  0.00    +0.010 A 
ATOM     21  C   UNL     1       1.482  -2.142  -0.052  0.00  0.00    +0.052 A 
ATOM     22  C   UNL     1       2.662  -2.428  -0.662  0.00  0.00    +0.059 A 
ATOM     23  S   UNL     1       3.617  -1.067  -0.444  0.00  0.00    -0.096 S 
ENDBRANCH   1  21
BRANCH   5  24
ATOM     24  C   UNL     1       2.566  -7.518   0.060  0.00  0.00    +0.218 C 
ATOM     25  O   UNL     1       2.845  -7.504  -1.120  0.00  0.00    -0.275 OA
ATOM     26  N   UNL     1       2.960  -8.549   0.834  0.00  0.00    -0.312 N 
ATOM     27  H   UNL     1       2.737  -8.560   1.777  0.00  0.00    +0.149 HD
BRANCH  26  28
ATOM     28  C   UNL     1       3.726  -9.652   0.249  0.00  0.00    +0.076 C 
ATOM     29  C   UNL     1       2.764 -10.671  -0.367  0.00  0.00    +0.041 C 
ATOM     30  C   UNL     1       3.570 -11.806  -1.007  0.00  0.00    +0.108 C 
ATOM     31  N   UNL     1       4.479 -12.367   0.000  0.00  0.00    -0.317 N 
ATOM     32  C   UNL     1       5.385 -11.460   0.718  0.00  0.00    +0.108 C 
ATOM     33  C   UNL     1       4.559 -10.329   1.340  0.00  0.00    +0.041 C 
ATOM     34  C   UNL     1       4.483 -13.731   0.270  0.00  0.00    +0.099 A 
ATOM     35  C   UNL     1       5.423 -14.257   1.150  0.00  0.00    +0.042 A 
ATOM     36  C   UNL     1       5.415 -15.616   1.409  0.00  0.00    +0.005 A 
ATOM     37  C   UNL     1       4.464 -16.406   0.776  0.00  0.00    +0.018 A 
ATOM     38  C   UNL     1       3.561 -15.817  -0.086  0.00  0.00    +0.084 A 
ATOM     39  N   UNL     1       3.589 -14.517  -0.310  0.00  0.00    -0.350 N 
ATOM     40  H   UNL     1       2.940 -14.128  -0.917  0.00  0.00    +0.166 HD
ENDBRANCH  26  28
ENDBRANCH   5  24
TORSDOF 3
