REMARK  Name = ZINC41074295
REMARK  6 active torsions:
REMARK  status: ('A' for Active; 'I' for Inactive)
REMARK    1  A    between atoms: C_1  and  C_2
REMARK    2  A    between atoms: C_2  and  C_3
REMARK    3  A    between atoms: C_3  and  C_4
REMARK    4  A    between atoms: C_7  and  C_18
REMARK    5  A    between atoms: C_8  and  C_12
REMARK    6  A    between atoms: C_23  and  C_30
REMARK                            x       y       z     vdW  Elec       q    Type
REMARK                         _______ _______ _______ _____ _____    ______ ____
ROOT
ATOM      1  C   UNL     1      -1.862  -6.319  -0.948  0.00  0.00    +0.046 C 
ATOM      2  C   UNL     1      -2.771  -5.309  -1.253  0.00  0.00    +0.081 C 
ATOM      3  C   UNL     1      -3.317  -5.136  -2.623  0.00  0.00    +0.136 C 
ATOM      4  N   UNL     1      -3.540  -6.136  -3.439  0.00  0.00    -0.284 NA
ATOM      5  N   UNL     1      -3.573  -3.789  -2.961  0.00  0.00    -0.233 N 
ATOM      6  C   UNL     1      -3.650  -3.294  -4.236  0.00  0.00    +0.056 C 
ATOM      7  C   UNL     1      -3.957  -1.995  -4.442  0.00  0.00    +0.072 C 
ATOM      8  S   UNL     1      -4.153  -1.389  -2.772  0.00  0.00    -0.062 S 
ATOM      9  C   UNL     1      -3.770  -2.899  -1.925  0.00  0.00    +0.163 C 
ATOM     10  N   UNL     1      -3.664  -3.139  -0.641  0.00  0.00    -0.154 NA
ATOM     11  C   UNL     1      -3.247  -4.356  -0.229  0.00  0.00    +0.273 C 
ATOM     12  O   UNL     1      -3.258  -4.659   0.954  0.00  0.00    -0.268 OA
ATOM     13  H   UNL     1      -3.981  -5.980  -4.288  0.00  0.00    +0.188 HD
ENDROOT
BRANCH   1  17
ATOM     14  C   UNL     1      -0.026  -3.419   2.048  0.00  0.00    +0.102 A 
ATOM     15  N   UNL     1      -0.563  -4.072   1.061  0.00  0.00    -0.162 NA
ATOM     16  N   UNL     1      -0.832  -5.434   1.154  0.00  0.00    -0.206 N 
ATOM     17  C   UNL     1      -1.377  -6.452   0.354  0.00  0.00    +0.095 A 
ATOM     18  C   UNL     1      -1.338  -7.627   1.118  0.00  0.00    +0.099 A 
ATOM     19  N   UNL     1      -0.801  -7.318   2.300  0.00  0.00    -0.219 NA
ATOM     20  C   UNL     1      -0.504  -6.043   2.326  0.00  0.00    +0.196 A 
ATOM     21  S   UNL     1       0.180  -4.702   3.273  0.00  0.00    -0.033 S 
BRANCH  18  22
ATOM     22  C   UNL     1      -1.807  -8.964   0.692  0.00  0.00    +0.003 A 
ATOM     23  C   UNL     1      -2.920  -9.084  -0.142  0.00  0.00    +0.010 A 
ATOM     24  C   UNL     1      -3.352 -10.333  -0.535  0.00  0.00    +0.001 A 
ATOM     25  C   UNL     1      -2.685 -11.467  -0.105  0.00  0.00    +0.000 A 
ATOM     26  C   UNL     1      -1.581 -11.355   0.722  0.00  0.00    +0.001 A 
ATOM     27  C   UNL     1      -1.135 -10.111   1.118  0.00  0.00    +0.010 A 
ENDBRANCH  18  22
BRANCH  14  28
ATOM     28  C   UNL     1       0.336  -1.959   2.134  0.00  0.00    +0.064 C 
BRANCH  28  30
ATOM     29  C   UNL     1       0.332   0.219   0.909  0.00  0.00    +0.004 C 
ATOM     30  C   UNL     1      -0.035  -1.264   0.822  0.00  0.00    +0.003 C 
ENDBRANCH  28  30
ENDBRANCH  14  28
ENDBRANCH   1  17
BRANCH   6  31
ATOM     31  C   UNL     1      -3.395  -4.184  -5.390  0.00  0.00    -0.003 A 
ATOM     32  C   UNL     1      -4.311  -4.247  -6.441  0.00  0.00    +0.010 A 
ATOM     33  C   UNL     1      -4.067  -5.080  -7.514  0.00  0.00    +0.001 A 
ATOM     34  C   UNL     1      -2.919  -5.850  -7.550  0.00  0.00    +0.000 A 
ATOM     35  C   UNL     1      -2.007  -5.792  -6.511  0.00  0.00    +0.001 A 
ATOM     36  C   UNL     1      -2.236  -4.959  -5.435  0.00  0.00    +0.010 A 
ENDBRANCH   6  31
TORSDOF 5
