REMARK  Name = ZINC00726088
REMARK  6 active torsions:
REMARK  status: ('A' for Active; 'I' for Inactive)
REMARK    1  A    between atoms: C_4  and  N_11
REMARK    2  A    between atoms: C_5  and  C_7
REMARK    3  A    between atoms: N_11  and  C_12
REMARK    4  A    between atoms: C_12  and  C_14
REMARK    5  A    between atoms: C_12  and  N_18
REMARK    6  A    between atoms: C_19  and  C_21
REMARK                            x       y       z     vdW  Elec       q    Type
REMARK                         _______ _______ _______ _____ _____    ______ ____
ROOT
ATOM      1  C   UNL     1      -0.737   2.289   1.279  0.00  0.00    +0.210 C 
ENDROOT
BRANCH   1   2
ATOM      2  C   UNL     1      -0.049   1.887  -0.027  0.00  0.00    +0.225 C 
ATOM      3 CL   UNL     1      -0.030   0.090  -0.168  0.00  0.00    -0.080 Cl
ATOM      4 CL   UNL     1       1.644   2.508  -0.030  0.00  0.00    -0.080 Cl
ATOM      5 CL   UNL     1      -0.949   2.590  -1.422  0.00  0.00    -0.080 Cl
ENDBRANCH   1   2
BRANCH   1   6
ATOM      6  N   UNL     1      -0.006   1.718   2.413  0.00  0.00    -0.287 N 
ATOM      7  C   UNL     1       0.260   2.477   3.494  0.00  0.00    +0.281 C 
ATOM      8  O   UNL     1      -0.107   3.636   3.529  0.00  0.00    -0.267 OA
ATOM      9  H   UNL     1       0.287   0.794   2.385  0.00  0.00    +0.151 HD
BRANCH   7  10
ATOM     10  C   UNL     1       0.992   1.905   4.629  0.00  0.00    +0.189 A 
ATOM     11  C   UNL     1       1.326   2.559   5.780  0.00  0.00    +0.054 A 
ATOM     12  C   UNL     1       2.015   1.636   6.583  0.00  0.00    +0.042 A 
ATOM     13  C   UNL     1       2.070   0.474   5.896  0.00  0.00    +0.196 A 
ATOM     14  O   UNL     1       1.449   0.638   4.721  0.00  0.00    -0.458 OA
ENDBRANCH   7  10
ENDBRANCH   1   6
BRANCH   1  15
ATOM     15  N   UNL     1      -2.113   1.785   1.281  0.00  0.00    -0.322 N 
ATOM     16  H   UNL     1      -2.298   0.880   0.985  0.00  0.00    +0.148 HD
BRANCH  15  20
ATOM     17  C   UNL     1      -5.227   4.237   2.556  0.00  0.00    +0.001 A 
ATOM     18  C   UNL     1      -3.946   4.748   2.449  0.00  0.00    +0.002 A 
ATOM     19  C   UNL     1      -2.911   3.938   2.027  0.00  0.00    +0.023 A 
ATOM     20  C   UNL     1      -3.158   2.607   1.709  0.00  0.00    +0.040 A 
ATOM     21  C   UNL     1      -4.446   2.099   1.813  0.00  0.00    +0.076 A 
ATOM     22  C   UNL     1      -5.476   2.914   2.241  0.00  0.00    +0.014 A 
BRANCH  21  23
ATOM     23  C   UNL     1      -4.719   0.659   1.464  0.00  0.00    +0.419 C 
ATOM     24  F   UNL     1      -6.079   0.384   1.647  0.00  0.00    -0.166 F 
ATOM     25  F   UNL     1      -4.372   0.429   0.128  0.00  0.00    -0.166 F 
ATOM     26  F   UNL     1      -3.960  -0.174   2.293  0.00  0.00    -0.166 F 
ENDBRANCH  21  23
ENDBRANCH  15  20
ENDBRANCH   1  15
TORSDOF 6
