REMARK  Name = ZINC00780964
REMARK  13 active torsions:
REMARK  status: ('A' for Active; 'I' for Inactive)
REMARK    1  A    between atoms: C_1  and  C_2
REMARK    2  A    between atoms: C_2  and  O_3
REMARK    3  A    between atoms: O_3  and  C_4
REMARK    4  A    between atoms: C_11  and  C_16
REMARK    5  A    between atoms: C_16  and  N_17
REMARK    6  A    between atoms: N_17  and  C_18
REMARK    7  A    between atoms: N_17  and  C_33
REMARK    8  A    between atoms: C_18  and  C_19
REMARK    9  A    between atoms: N_23  and  C_24
REMARK   10  A    between atoms: C_24  and  C_25
REMARK   11  A    between atoms: C_28  and  O_31
REMARK   12  A    between atoms: O_31  and  C_32
REMARK   13  A    between atoms: C_33  and  C_34
REMARK                            x       y       z     vdW  Elec       q    Type
REMARK                         _______ _______ _______ _____ _____    ______ ____
ROOT
ATOM      1  N   UNL     1       4.318  -6.553  -4.611  0.00  0.00    +0.389 N 
ATOM      2  H   UNL     1       4.321  -7.175  -3.817  0.00  0.00    -0.081 HD
ENDROOT
BRANCH   1   3
ATOM      3  C   UNL     1       2.932  -6.269  -5.006  0.00  0.00    -0.037 C 
BRANCH   3  11
ATOM      4  C   UNL     1      -0.541 -11.319  -4.075  0.00  0.00    +0.121 A 
ATOM      5  C   UNL     1      -0.428 -11.819  -5.370  0.00  0.00    +0.047 A 
ATOM      6  C   UNL     1       0.308 -11.147  -6.321  0.00  0.00    +0.030 A 
ATOM      7  C   UNL     1       0.946  -9.956  -5.991  0.00  0.00    +0.049 A 
ATOM      8  C   UNL     1       0.834  -9.447  -4.683  0.00  0.00    +0.002 A 
ATOM      9  C   UNL     1       0.079 -10.136  -3.728  0.00  0.00    +0.055 A 
ATOM     10  C   UNL     1       1.511  -8.192  -4.350  0.00  0.00    +0.017 A 
ATOM     11  C   UNL     1       2.224  -7.563  -5.317  0.00  0.00    +0.001 A 
ATOM     12  C   UNL     1       2.305  -8.116  -6.613  0.00  0.00    +0.251 A 
ATOM     13  O   UNL     1       2.952  -7.534  -7.467  0.00  0.00    -0.268 OA
ATOM     14  N   UNL     1       1.688  -9.267  -6.929  0.00  0.00    -0.322 N 
ATOM     15  H   UNL     1       1.765  -9.619  -7.830  0.00  0.00    +0.169 HD
BRANCH   4  16
ATOM     16  O   UNL     1      -1.272 -11.996  -3.150  0.00  0.00    -0.492 OA
BRANCH  16  18
ATOM     17  C   UNL     1      -2.661 -13.828  -2.406  0.00  0.00    +0.048 C 
ATOM     18  C   UNL     1      -1.888 -13.213  -3.574  0.00  0.00    +0.225 C 
ENDBRANCH  16  18
ENDBRANCH   4  16
ENDBRANCH   3  11
ENDBRANCH   1   3
BRANCH   1  19
ATOM     19  C   UNL     1       5.027  -7.185  -5.731  0.00  0.00    +0.001 C 
BRANCH  19  20
ATOM     20  C   UNL     1       6.411  -7.586  -5.288  0.00  0.00    +0.135 A 
ATOM     21  N   UNL     1       7.496  -6.854  -5.349  0.00  0.00    -0.115 NA
ATOM     22  N   UNL     1       8.472  -7.548  -4.875  0.00  0.00    -0.023 NA
ATOM     23  N   UNL     1       8.038  -8.705  -4.513  0.00  0.00    -0.044 NA
ATOM     24  N   UNL     1       6.770  -8.765  -4.747  0.00  0.00    -0.227 N 
BRANCH  24  25
ATOM     25  C   UNL     1       5.889  -9.904  -4.476  0.00  0.00    +0.182 C 
BRANCH  25  26
ATOM     26  C   UNL     1       5.854 -10.808  -5.681  0.00  0.00    -0.026 A 
ATOM     27  C   UNL     1       4.911 -10.603  -6.671  0.00  0.00    +0.009 A 
ATOM     28  C   UNL     1       4.877 -11.431  -7.777  0.00  0.00    +0.046 A 
ATOM     29  C   UNL     1       5.789 -12.470  -7.892  0.00  0.00    +0.120 A 
ATOM     30  C   UNL     1       6.734 -12.674  -6.897  0.00  0.00    +0.046 A 
ATOM     31  C   UNL     1       6.768 -11.839  -5.797  0.00  0.00    +0.009 A 
BRANCH  29  32
ATOM     32  O   UNL     1       5.757 -13.286  -8.978  0.00  0.00    -0.495 OA
ATOM     33  C   UNL     1       6.726 -14.335  -9.031  0.00  0.00    +0.277 C 
ENDBRANCH  29  32
ENDBRANCH  25  26
ENDBRANCH  24  25
ENDBRANCH  19  20
ENDBRANCH   1  19
BRANCH   1  34
ATOM     34  C   UNL     1       4.991  -5.297  -4.251  0.00  0.00    -0.046 C 
BRANCH  34  35
ATOM     35  C   UNL     1       4.367  -4.732  -2.974  0.00  0.00    +0.102 C 
ATOM     36  C   UNL     1       5.125  -3.458  -2.523  0.00  0.00    +0.032 C 
ATOM     37  C   UNL     1       4.023  -2.734  -1.702  0.00  0.00    +0.030 C 
ATOM     38  C   UNL     1       2.739  -3.114  -2.471  0.00  0.00    +0.160 C 
ATOM     39  O   UNL     1       3.020  -4.301  -3.225  0.00  0.00    -0.378 OA
ENDBRANCH  34  35
ENDBRANCH   1  34
TORSDOF 11
