REMARK  Name = ZINC63667304
REMARK  10 active torsions:
REMARK  status: ('A' for Active; 'I' for Inactive)
REMARK    1  A    between atoms: C_1  and  C_2
REMARK    2  A    between atoms: C_2  and  N_3
REMARK    3  A    between atoms: C_7  and  C_16
REMARK    4  A    between atoms: N_9  and  C_10
REMARK    5  A    between atoms: C_18  and  C_21
REMARK    6  A    between atoms: C_21  and  C_22
REMARK    7  A    between atoms: C_22  and  C_23
REMARK    8  A    between atoms: N_25  and  C_26
REMARK    9  A    between atoms: C_26  and  C_27
REMARK   10  A    between atoms: C_27  and  C_28
REMARK                            x       y       z     vdW  Elec       q    Type
REMARK                         _______ _______ _______ _____ _____    ______ ____
ROOT
ATOM      1  N   UNL     1      -1.480   0.321   0.749  0.00  0.00    -0.272 N 
ATOM      2  C   UNL     1      -2.107  -0.597   1.704  0.00  0.00    +0.233 C 
ATOM      3  C   UNL     1      -3.287  -1.404   1.181  0.00  0.00    +0.100 C 
ATOM      4  C   UNL     1      -3.168  -2.625   1.736  0.00  0.00    +0.044 C 
ATOM      5  N   UNL     1      -1.995  -2.734   2.432  0.00  0.00    -0.265 N 
ATOM      6  N   UNL     1      -1.156  -1.621   2.144  0.00  0.00    -0.227 N 
ATOM      7  C   UNL     1      -4.190  -3.725   1.607  0.00  0.00    +0.064 C 
ATOM      8  N   UNL     1      -4.067  -0.825   0.269  0.00  0.00    -0.246 NA
ATOM      9  C   UNL     1      -3.606   0.165  -0.451  0.00  0.00    +0.104 C 
ATOM     10  C   UNL     1      -2.243   0.672  -0.319  0.00  0.00    +0.263 C 
ATOM     11  O   UNL     1      -1.798   1.437  -1.156  0.00  0.00    -0.269 OA
ATOM     12  H   UNL     1      -1.771  -3.455   3.041  0.00  0.00    +0.170 HD
ENDROOT
BRANCH   6  13
ATOM     13  C   UNL     1       0.234  -1.526   2.240  0.00  0.00    +0.050 A 
ATOM     14  C   UNL     1       0.811  -0.698   3.195  0.00  0.00    +0.025 A 
ATOM     15  C   UNL     1       2.186  -0.607   3.287  0.00  0.00    +0.002 A 
ATOM     16  C   UNL     1       2.989  -1.338   2.431  0.00  0.00    +0.000 A 
ATOM     17  C   UNL     1       2.417  -2.163   1.479  0.00  0.00    +0.002 A 
ATOM     18  C   UNL     1       1.043  -2.264   1.385  0.00  0.00    +0.025 A 
ENDBRANCH   6  13
BRANCH   1  20
ATOM     19  C   UNL     1      -0.149   2.024   1.893  0.00  0.00    +0.024 C 
ATOM     20  C   UNL     1      -0.119   0.831   0.936  0.00  0.00    +0.107 C 
ENDBRANCH   1  20
BRANCH   9  21
ATOM     21  C   UNL     1      -4.517   0.799  -1.469  0.00  0.00    +0.070 C 
BRANCH  21  22
ATOM     22  C   UNL     1      -5.878   0.101  -1.441  0.00  0.00    +0.102 C 
BRANCH  22  23
ATOM     23  C   UNL     1      -6.790   0.735  -2.460  0.00  0.00    +0.213 C 
ATOM     24  O   UNL     1      -6.390   1.655  -3.142  0.00  0.00    -0.276 OA
ATOM     25  N   UNL     1      -8.049   0.280  -2.614  0.00  0.00    -0.315 N 
ATOM     26  H   UNL     1      -8.368  -0.456  -2.068  0.00  0.00    +0.149 HD
BRANCH  25  27
ATOM     27  C   UNL     1      -8.935   0.897  -3.604  0.00  0.00    +0.108 C 
BRANCH  27  28
ATOM     28  C   UNL     1     -10.296   0.198  -3.576  0.00  0.00    +0.052 C 
BRANCH  28  29
ATOM     29  C   UNL     1     -11.207   0.833  -4.595  0.00  0.00    -0.040 C 
ATOM     30  C   UNL     1     -11.428   0.412  -5.861  0.00  0.00    -0.001 A 
ATOM     31  C   UNL     1     -10.906  -0.717  -6.640  0.00  0.00    +0.010 A 
ATOM     32  C   UNL     1     -11.322  -0.882  -7.916  0.00  0.00    +0.001 A 
ATOM     33  C   UNL     1     -12.238  -0.004  -8.512  0.00  0.00    +0.002 A 
ATOM     34  C   UNL     1     -12.762   1.055  -7.861  0.00  0.00    +0.026 A 
ATOM     35  C   UNL     1     -12.394   1.325  -6.514  0.00  0.00    +0.043 A 
ATOM     36  N   UNL     1     -12.756   2.272  -5.683  0.00  0.00    -0.380 N 
ATOM     37  C   UNL     1     -12.065   2.064  -4.406  0.00  0.00    +0.144 C 
ATOM     38  H   UNL     1     -13.380   2.989  -5.879  0.00  0.00    +0.160 HD
ENDBRANCH  28  29
ENDBRANCH  27  28
ENDBRANCH  25  27
ENDBRANCH  22  23
ENDBRANCH  21  22
ENDBRANCH   9  21
TORSDOF 8
