REMARK  Name = ZINC01434716
REMARK  11 active torsions:
REMARK  status: ('A' for Active; 'I' for Inactive)
REMARK    1  A    between atoms: C_1  and  O_2
REMARK    2  A    between atoms: O_2  and  C_3
REMARK    3  A    between atoms: C_5  and  C_13
REMARK    4  A    between atoms: C_7  and  O_11
REMARK    5  A    between atoms: C_8  and  O_9
REMARK    6  A    between atoms: O_9  and  C_10
REMARK    7  A    between atoms: O_11  and  C_12
REMARK    8  A    between atoms: C_18  and  C_28
REMARK    9  A    between atoms: C_31  and  C_34
REMARK   10  A    between atoms: C_34  and  O_36
REMARK   11  A    between atoms: O_36  and  C_37
REMARK                            x       y       z     vdW  Elec       q    Type
REMARK                         _______ _______ _______ _____ _____    ______ ____
ROOT
ATOM      1  C   UNL     1      -4.929   5.589  -1.441  0.00  0.00    +0.032 C 
ATOM      2  C   UNL     1      -4.224   4.302  -1.015  0.00  0.00    +0.059 C 
ATOM      3  C   UNL     1      -2.761   4.586  -0.719  0.00  0.00    +0.017 C 
ATOM      4  C   UNL     1      -2.100   5.534  -1.403  0.00  0.00    +0.036 C 
ATOM      5  C   UNL     1      -0.644   5.899  -1.233  0.00  0.00    +0.136 C 
ATOM      6  N   UNL     1      -0.018   5.323  -0.062  0.00  0.00    -0.331 N 
ATOM      7  C   UNL     1       0.136   3.945   0.068  0.00  0.00    +0.049 A 
ATOM      8  C   UNL     1       1.389   3.353   0.051  0.00  0.00    +0.025 A 
ATOM      9  C   UNL     1       1.492   1.974   0.121  0.00  0.00    +0.002 A 
ATOM     10  C   UNL     1       0.355   1.190   0.191  0.00  0.00    +0.002 A 
ATOM     11  C   UNL     1      -0.898   1.778   0.206  0.00  0.00    +0.025 A 
ATOM     12  C   UNL     1      -1.001   3.157   0.169  0.00  0.00    +0.052 A 
ATOM     13  N   UNL     1      -2.223   3.814   0.260  0.00  0.00    -0.316 N 
ATOM     14  C   UNL     1      -2.769   6.301  -2.387  0.00  0.00    +0.163 C 
ATOM     15  O   UNL     1      -2.143   7.141  -3.001  0.00  0.00    -0.292 OA
ATOM     16  C   UNL     1      -4.224   6.113  -2.698  0.00  0.00    +0.088 C 
ATOM     17  H   UNL     1       0.300   5.907   0.644  0.00  0.00    +0.147 HD
ATOM     18  H   UNL     1      -2.728   3.713   1.082  0.00  0.00    +0.152 HD
ENDROOT
BRANCH   1  21
ATOM     19  C   UNL     1      -8.705   5.704  -1.338  0.00  0.00    +0.165 A 
ATOM     20  C   UNL     1      -7.372   5.966  -1.058  0.00  0.00    +0.053 A 
ATOM     21  C   UNL     1      -6.376   5.302  -1.748  0.00  0.00    -0.036 A 
ATOM     22  C   UNL     1      -6.703   4.379  -2.724  0.00  0.00    +0.053 A 
ATOM     23  C   UNL     1      -8.033   4.108  -3.007  0.00  0.00    +0.165 A 
ATOM     24  C   UNL     1      -9.038   4.773  -2.315  0.00  0.00    +0.204 A 
BRANCH  19  26
ATOM     25  C   UNL     1      -9.269   7.300   0.332  0.00  0.00    +0.277 C 
ATOM     26  O   UNL     1      -9.685   6.357  -0.658  0.00  0.00    -0.491 OA
ENDBRANCH  19  26
BRANCH  24  27
ATOM     27  O   UNL     1     -10.345   4.513  -2.592  0.00  0.00    -0.488 OA
ATOM     28  C   UNL     1     -10.964   5.309  -3.604  0.00  0.00    +0.277 C 
ENDBRANCH  24  27
BRANCH  23  29
ATOM     29  O   UNL     1      -8.354   3.195  -3.963  0.00  0.00    -0.491 OA
ATOM     30  C   UNL     1      -7.269   2.550  -4.633  0.00  0.00    +0.277 C 
ENDBRANCH  23  29
ENDBRANCH   1  21
BRANCH   5  31
ATOM     31  C   UNL     1       0.108   5.436  -2.454  0.00  0.00    -0.023 A 
ATOM     32  C   UNL     1       0.697   6.365  -3.293  0.00  0.00    +0.006 A 
ATOM     33  C   UNL     1       1.391   5.949  -4.410  0.00  0.00    +0.015 A 
ATOM     34  C   UNL     1       1.490   4.586  -4.698  0.00  0.00    +0.059 A 
ATOM     35  C   UNL     1       0.889   3.654  -3.850  0.00  0.00    +0.015 A 
ATOM     36  C   UNL     1       0.202   4.084  -2.734  0.00  0.00    +0.006 A 
BRANCH  34  37
ATOM     37  C   UNL     1       2.228   4.132  -5.895  0.00  0.00    +0.339 C 
ATOM     38  O   UNL     1       2.312   2.946  -6.143  0.00  0.00    -0.245 OA
BRANCH  37  39
ATOM     39  O   UNL     1       2.807   5.034  -6.711  0.00  0.00    -0.464 OA
ATOM     40  C   UNL     1       3.515   4.517  -7.869  0.00  0.00    +0.280 C 
ENDBRANCH  37  39
ENDBRANCH  34  37
ENDBRANCH   5  31
TORSDOF 7
