REMARK  Name = ZINC32754847
REMARK  10 active torsions:
REMARK  status: ('A' for Active; 'I' for Inactive)
REMARK    1  A    between atoms: C_1  and  C_2
REMARK    2  A    between atoms: C_2  and  O_3
REMARK    3  A    between atoms: O_3  and  C_4
REMARK    4  A    between atoms: C_4  and  C_6
REMARK    5  A    between atoms: C_7  and  C_20
REMARK    6  A    between atoms: C_12  and  C_14
REMARK    7  A    between atoms: C_17  and  C_19
REMARK    8  A    between atoms: C_20  and  N_21
REMARK    9  A    between atoms: N_24  and  C_27
REMARK   10  A    between atoms: C_27  and  C_28
REMARK                            x       y       z     vdW  Elec       q    Type
REMARK                         _______ _______ _______ _____ _____    ______ ____
ROOT
ATOM      1  C   UNL     1      -0.751  -3.207  -6.666  0.00  0.00    +0.082 C 
ATOM      2  C   UNL     1      -0.933  -4.206  -5.776  0.00  0.00    +0.038 C 
ATOM      3  N   UNL     1      -2.186  -4.643  -5.454  0.00  0.00    -0.271 N 
ATOM      4  C   UNL     1      -3.309  -4.125  -5.969  0.00  0.00    +0.304 C 
ATOM      5  O   UNL     1      -4.381  -4.577  -5.616  0.00  0.00    -0.252 OA
ATOM      6  N   UNL     1      -3.289  -3.123  -6.870  0.00  0.00    -0.285 N 
ATOM      7  C   UNL     1      -1.984  -2.584  -7.289  0.00  0.00    +0.179 C 
ATOM      8  H   UNL     1      -2.314  -5.465  -4.733  0.00  0.00    +0.156 HD
ATOM      9  H   UNL     1      -4.216  -2.708  -7.290  0.00  0.00    +0.151 HD
ENDROOT
BRANCH   7  10
ATOM     10  C   UNL     1      -1.968  -1.110  -6.976  0.00  0.00    +0.130 A 
ATOM     11  C   UNL     1      -1.572  -0.133  -7.811  0.00  0.00    +0.047 A 
ATOM     12  C   UNL     1      -1.721   1.088  -7.114  0.00  0.00    +0.045 A 
ATOM     13  C   UNL     1      -2.200   0.783  -5.894  0.00  0.00    +0.102 A 
ATOM     14  O   UNL     1      -2.353  -0.549  -5.818  0.00  0.00    -0.463 OA
ATOM     15  C   UNL     1      -2.517   1.770  -4.800  0.00  0.00    +0.086 C 
ENDBRANCH   7  10
BRANCH   1  16
ATOM     16  C   UNL     1       0.546  -2.757  -7.005  0.00  0.00    +0.339 C 
ATOM     17  O   UNL     1       0.994  -1.748  -6.493  0.00  0.00    -0.245 OA
BRANCH  16  18
ATOM     18  O   UNL     1       1.288  -3.447  -7.897  0.00  0.00    -0.462 OA
BRANCH  18  20
ATOM     19  C   UNL     1       3.274  -3.843  -9.216  0.00  0.00    +0.048 C 
ATOM     20  C   UNL     1       2.589  -2.935  -8.193  0.00  0.00    +0.229 C 
ENDBRANCH  18  20
ENDBRANCH  16  18
ENDBRANCH   1  16
BRANCH   2  21
ATOM     21  C   UNL     1       0.266  -4.854  -5.133  0.00  0.00    +0.135 C 
BRANCH  21  22
ATOM     22  N   UNL     1       0.246  -4.594  -3.688  0.00  0.00    -0.300 NA
ATOM     23  C   UNL     1       1.512  -5.002  -3.062  0.00  0.00    +0.066 C 
ATOM     24  C   UNL     1       1.422  -4.789  -1.549  0.00  0.00    -0.063 C 
ATOM     25  N   UNL     1       1.132  -3.375  -1.272  0.00  0.00    +0.384 N 
ATOM     26  C   UNL     1      -0.133  -2.967  -1.898  0.00  0.00    -0.063 C 
ATOM     27  C   UNL     1      -0.043  -3.180  -3.411  0.00  0.00    +0.066 C 
ATOM     28  H   UNL     1       1.939  -2.770  -1.712  0.00  0.00    -0.081 HD
BRANCH  25  29
ATOM     29  C   UNL     1       1.113  -3.115   0.174  0.00  0.00    -0.043 C 
BRANCH  29  30
ATOM     30  C   UNL     1       1.059  -1.629   0.416  0.00  0.00    -0.060 A 
ATOM     31  C   UNL     1      -0.163  -0.990   0.518  0.00  0.00    +0.005 A 
ATOM     32  C   UNL     1      -0.217   0.374   0.740  0.00  0.00    +0.050 A 
ATOM     33  C   UNL     1       0.955   1.103   0.861  0.00  0.00    +0.166 A 
ATOM     34  C   UNL     1       2.186   0.460   0.757  0.00  0.00    +0.166 A 
ATOM     35  C   UNL     1       2.232  -0.907   0.535  0.00  0.00    +0.051 A 
ATOM     36  O   UNL     1       3.176   1.387   0.909  0.00  0.00    -0.453 OA
ATOM     37  C   UNL     1       2.545   2.663   0.699  0.00  0.00    +0.466 C 
ATOM     38  O   UNL     1       1.174   2.433   1.078  0.00  0.00    -0.453 OA
ENDBRANCH  29  30
ENDBRANCH  25  29
ENDBRANCH  21  22
ENDBRANCH   2  21
TORSDOF 8
