REMARK  Name = ZINC16875344
REMARK  10 active torsions:
REMARK  status: ('A' for Active; 'I' for Inactive)
REMARK    1  A    between atoms: C_1  and  C_2
REMARK    2  A    between atoms: C_5  and  C_8
REMARK    3  A    between atoms: N_13  and  C_15
REMARK    4  A    between atoms: C_15  and  N_59
REMARK    5  A    between atoms: C_16  and  N_59
REMARK    6  A    between atoms: C_17  and  C_18
REMARK    7  A    between atoms: C_17  and  N_59
REMARK    8  A    between atoms: C_19  and  C_32
REMARK    9  A    between atoms: N_21  and  C_24
REMARK   10  A    between atoms: C_22  and  C_23
REMARK                            x       y       z     vdW  Elec       q    Type
REMARK                         _______ _______ _______ _____ _____    ______ ____
ROOT
ATOM      1  C   UNL     1      -0.013   1.086   0.008  0.00  0.00    -0.093 C 
ATOM      2  N   UNL     1      -0.727   1.548   1.217  0.00  0.00    +0.394 N 
ATOM      3  H   UNL     1      -1.674   1.153   1.216  0.00  0.00    -0.079 HD
ENDROOT
BRANCH   2   4
ATOM      4  C   UNL     1      -0.822   3.023   1.213  0.00  0.00    +0.072 C 
BRANCH   4  10
ATOM      5  C   UNL     1      -3.529   3.975  -0.970  0.00  0.00    +0.160 A 
ATOM      6  N   UNL     1      -2.448   4.066  -1.826  0.00  0.00    -0.317 N 
ATOM      7  H   UNL     1      -2.483   4.325  -2.760  0.00  0.00    +0.169 HD
ATOM      8  C   UNL     1      -1.336   3.737  -1.138  0.00  0.00    +0.174 A 
ATOM      9  S   UNL     1       0.260   3.704  -1.755  0.00  0.00    -0.012 S 
ATOM     10  N   UNL     1      -1.709   3.437   0.123  0.00  0.00    -0.257 N 
ATOM     11  N   UNL     1      -3.099   3.599   0.202  0.00  0.00    -0.153 NA
BRANCH   5  16
ATOM     12  C   UNL     1      -9.008   5.072  -2.349  0.00  0.00    +0.044 C 
ATOM     13  C   UNL     1      -7.573   4.785  -1.988  0.00  0.00    -0.050 A 
ATOM     14  C   UNL     1      -7.252   4.393  -0.701  0.00  0.00    +0.004 A 
ATOM     15  C   UNL     1      -5.941   4.128  -0.364  0.00  0.00    +0.012 A 
ATOM     16  C   UNL     1      -4.937   4.257  -1.325  0.00  0.00    +0.019 A 
ATOM     17  C   UNL     1      -5.267   4.659  -2.619  0.00  0.00    +0.012 A 
ATOM     18  C   UNL     1      -6.583   4.916  -2.945  0.00  0.00    +0.004 A 
ENDBRANCH   5  16
ENDBRANCH   4  10
ENDBRANCH   2   4
BRANCH   2  19
ATOM     19  C   UNL     1      -0.016   1.091   2.429  0.00  0.00    -0.037 C 
BRANCH  19  20
ATOM     20  C   UNL     1      -0.125  -0.409   2.520  0.00  0.00    -0.021 A 
ATOM     21  C   UNL     1      -1.144  -1.123   3.158  0.00  0.00    +0.062 A 
ATOM     22  N   UNL     1      -0.896  -2.401   3.021  0.00  0.00    -0.176 NA
ATOM     23  N   UNL     1       0.296  -2.540   2.298  0.00  0.00    -0.263 N 
ATOM     24  C   UNL     1       0.749  -1.304   2.003  0.00  0.00    +0.038 A 
ATOM     25  C   UNL     1       2.004  -0.977   1.235  0.00  0.00    +0.065 C 
ATOM     26  C   UNL     1      -2.326  -0.525   3.876  0.00  0.00    +0.068 C 
BRANCH  23  27
ATOM     27  C   UNL     1       0.937  -3.804   1.929  0.00  0.00    +0.130 C 
ATOM     28  C   UNL     1       1.284  -4.600   3.198  0.00  0.00    +0.051 C 
ATOM     29  C   UNL     1       1.661  -6.054   2.822  0.00  0.00    +0.168 C 
ATOM     30  S   UNL     1       0.710  -6.330   1.273  0.00  0.00    -0.029 S 
ATOM     31  O   UNL     1       1.620  -6.559   0.206  0.00  0.00    -0.174 OA
ATOM     32  O   UNL     1      -0.323  -7.274   1.526  0.00  0.00    -0.174 OA
ATOM     33  C   UNL     1      -0.041  -4.659   1.073  0.00  0.00    +0.192 C 
ENDBRANCH  23  27
ENDBRANCH  19  20
ENDBRANCH   2  19
TORSDOF 6
