REMARK  Name = ZINC36301746
REMARK  19 active torsions:
REMARK  status: ('A' for Active; 'I' for Inactive)
REMARK    1  A    between atoms: C_1  and  C_2
REMARK    2  A    between atoms: C_3  and  C_21
REMARK    3  A    between atoms: C_4  and  O_14
REMARK    4  A    between atoms: N_5  and  C_7
REMARK    5  A    between atoms: O_14  and  C_15
REMARK    6  A    between atoms: C_21  and  N_22
REMARK    7  A    between atoms: N_22  and  C_23
REMARK    8  A    between atoms: N_22  and  C_33
REMARK    9  A    between atoms: C_23  and  C_24
REMARK   10  A    between atoms: C_24  and  C_26
REMARK   11  A    between atoms: C_24  and  O_32
REMARK   12  A    between atoms: C_26  and  O_27
REMARK   13  A    between atoms: O_27  and  C_28
REMARK   14  A    between atoms: C_28  and  C_29
REMARK   15  A    between atoms: C_28  and  C_30
REMARK   16  A    between atoms: C_28  and  C_31
REMARK   17  A    between atoms: C_33  and  C_34
REMARK   18  A    between atoms: C_34  and  C_35
REMARK   19  A    between atoms: C_34  and  C_36
REMARK                            x       y       z     vdW  Elec       q    Type
REMARK                         _______ _______ _______ _____ _____    ______ ____
ROOT
ATOM      1  C   UNL     1      -1.174   2.019   0.018  0.00  0.00    +0.068 C 
ATOM      2  C   UNL     1      -0.458   0.719   0.279  0.00  0.00    +0.065 A 
ATOM      3  C   UNL     1       0.022  -0.161  -0.697  0.00  0.00    +0.021 A 
ATOM      4  C   UNL     1       0.603  -1.212  -0.061  0.00  0.00    +0.225 A 
ATOM      5  N   UNL     1       0.489  -0.995   1.277  0.00  0.00    -0.200 N 
ATOM      6  N   UNL     1      -0.175   0.225   1.457  0.00  0.00    -0.168 NA
ENDROOT
BRANCH   5   7
ATOM      7  C   UNL     1       0.958  -1.839   2.294  0.00  0.00    +0.070 A 
ATOM      8  C   UNL     1       0.782  -3.212   2.193  0.00  0.00    +0.028 A 
ATOM      9  C   UNL     1       1.244  -4.042   3.196  0.00  0.00    +0.003 A 
ATOM     10  C   UNL     1       1.881  -3.506   4.300  0.00  0.00    +0.020 A 
ATOM     11  C   UNL     1       2.058  -2.137   4.404  0.00  0.00    +0.043 A 
ATOM     12  C   UNL     1       1.603  -1.303   3.400  0.00  0.00    +0.048 A 
ATOM     13 CL   UNL     1       2.859  -1.468   5.791  0.00  0.00    -0.083 Cl
ENDBRANCH   5   7
BRANCH   4  14
ATOM     14  O   UNL     1       1.190  -2.284  -0.653  0.00  0.00    -0.438 OA
BRANCH  14  15
ATOM     15  C   UNL     1       0.399  -3.330  -1.006  0.00  0.00    +0.130 A 
ATOM     16  C   UNL     1      -0.978  -3.241  -0.858  0.00  0.00    +0.046 A 
ATOM     17  C   UNL     1      -1.780  -4.307  -1.218  0.00  0.00    +0.004 A 
ATOM     18  C   UNL     1      -1.213  -5.461  -1.725  0.00  0.00    +0.000 A 
ATOM     19  C   UNL     1       0.159  -5.552  -1.874  0.00  0.00    +0.004 A 
ATOM     20  C   UNL     1       0.966  -4.488  -1.520  0.00  0.00    +0.046 A 
ENDBRANCH  14  15
ENDBRANCH   4  14
BRANCH   3  21
ATOM     21  C   UNL     1      -0.087   0.024  -2.188  0.00  0.00    -0.036 C 
BRANCH  21  22
ATOM     22  N   UNL     1       1.090   0.752  -2.679  0.00  0.00    +0.384 N 
ATOM     23  H   UNL     1       1.185   1.619  -2.172  0.00  0.00    -0.081 HD
BRANCH  22  24
ATOM     24  C   UNL     1       0.928   1.037  -4.111  0.00  0.00    -0.044 C 
BRANCH  24  25
ATOM     25  C   UNL     1      -0.239   2.006  -4.309  0.00  0.00    +0.124 C 
BRANCH  25  26
ATOM     26  O   UNL     1       0.036   3.230  -3.626  0.00  0.00    -0.391 OA
ATOM     27  H   UNL     1       0.791   3.718  -3.982  0.00  0.00    +0.210 HD
ENDBRANCH  25  26
BRANCH  25  28
ATOM     28  C   UNL     1      -0.422   2.285  -5.802  0.00  0.00    +0.189 C 
BRANCH  28  29
ATOM     29  O   UNL     1      -1.583   3.095  -5.996  0.00  0.00    -0.372 OA
BRANCH  29  30
ATOM     30  C   UNL     1      -1.846   3.416  -7.364  0.00  0.00    +0.061 C 
ATOM     31  C   UNL     1      -2.058   2.126  -8.158  0.00  0.00    +0.041 C 
ATOM     32  C   UNL     1      -3.104   4.282  -7.452  0.00  0.00    +0.041 C 
ATOM     33  C   UNL     1      -0.657   4.183  -7.946  0.00  0.00    +0.041 C 
ENDBRANCH  29  30
ENDBRANCH  28  29
ENDBRANCH  25  28
ENDBRANCH  24  25
ENDBRANCH  22  24
BRANCH  22  34
ATOM     34  C   UNL     1       2.292  -0.068  -2.476  0.00  0.00    -0.075 C 
BRANCH  34  35
ATOM     35  C   UNL     1       3.533   0.743  -2.854  0.00  0.00    -0.034 C 
ATOM     36  C   UNL     1       3.659   1.949  -1.920  0.00  0.00    +0.005 C 
ATOM     37  C   UNL     1       4.778  -0.137  -2.721  0.00  0.00    +0.005 C 
ENDBRANCH  34  35
ENDBRANCH  22  34
ENDBRANCH  21  22
ENDBRANCH   3  21
TORSDOF 13
