REMARK  Name = ZINC00669776
REMARK  17 active torsions:
REMARK  status: ('A' for Active; 'I' for Inactive)
REMARK    1  A    between atoms: C_1  and  C_2
REMARK    2  A    between atoms: C_2  and  O_3
REMARK    3  A    between atoms: O_3  and  C_4
REMARK    4  A    between atoms: C_6  and  C_12
REMARK    5  A    between atoms: C_9  and  O_10
REMARK    6  A    between atoms: O_10  and  C_11
REMARK    7  A    between atoms: C_19  and  C_39
REMARK    8  A    between atoms: C_20  and  C_34
REMARK    9  A    between atoms: C_21  and  C_23
REMARK   10  A    between atoms: C_26  and  O_32
REMARK   11  A    between atoms: C_27  and  O_29
REMARK   12  A    between atoms: O_29  and  C_30
REMARK   13  A    between atoms: C_30  and  C_31
REMARK   14  A    between atoms: O_32  and  C_33
REMARK   15  A    between atoms: C_34  and  O_36
REMARK   16  A    between atoms: O_36  and  C_37
REMARK   17  A    between atoms: C_37  and  C_38
REMARK                            x       y       z     vdW  Elec       q    Type
REMARK                         _______ _______ _______ _____ _____    ______ ____
ROOT
ATOM      1  C   UNL     1      -1.408   7.905   2.946  0.00  0.00    +0.028 C 
ATOM      2  C   UNL     1      -0.747   8.415   1.875  0.00  0.00    +0.081 A 
ATOM      3  C   UNL     1      -0.401   9.810   1.569  0.00  0.00    +0.268 A 
ATOM      4  O   UNL     1      -0.709  10.713   2.325  0.00  0.00    -0.266 OA
ATOM      5  N   UNL     1       0.267  10.058   0.435  0.00  0.00    -0.275 N 
ATOM      6  C   UNL     1       0.585   9.002  -0.388  0.00  0.00    +0.178 A 
ATOM      7  N   UNL     1       1.230   9.124  -1.521  0.00  0.00    -0.228 NA
ATOM      8  C   UNL     1       1.661  10.273  -2.027  0.00  0.00    +0.053 C 
ATOM      9  C   UNL     1       1.447  11.448  -1.364  0.00  0.00    +0.085 C 
ATOM     10  C   UNL     1       0.709  11.397  -0.046  0.00  0.00    +0.162 C 
ATOM     11  C   UNL     1       2.392  10.280  -3.345  0.00  0.00    +0.066 C 
ATOM     12  S   UNL     1      -0.069   7.574   0.453  0.00  0.00    -0.046 S 
ENDROOT
BRANCH   1  15
ATOM     13  C   UNL     1      -2.582   4.542   4.121  0.00  0.00    +0.162 A 
ATOM     14  C   UNL     1      -2.493   5.911   3.959  0.00  0.00    +0.057 A 
ATOM     15  C   UNL     1      -1.509   6.451   3.122  0.00  0.00    -0.020 A 
ATOM     16  C   UNL     1      -0.620   5.599   2.454  0.00  0.00    +0.012 A 
ATOM     17  C   UNL     1      -0.713   4.236   2.626  0.00  0.00    +0.050 A 
ATOM     18  C   UNL     1      -1.693   3.701   3.452  0.00  0.00    +0.162 A 
BRANCH  18  19
ATOM     19  O   UNL     1      -1.783   2.356   3.613  0.00  0.00    -0.491 OA
ATOM     20  C   UNL     1      -0.841   1.552   2.898  0.00  0.00    +0.277 C 
ENDBRANCH  18  19
BRANCH  13  21
ATOM     21  O   UNL     1      -3.537   4.014   4.933  0.00  0.00    -0.489 OA
BRANCH  21  23
ATOM     22  C   UNL     1      -5.412   4.161   6.450  0.00  0.00    +0.048 C 
ATOM     23  C   UNL     1      -4.413   4.934   5.587  0.00  0.00    +0.226 C 
ENDBRANCH  21  23
ENDBRANCH  13  21
ENDBRANCH   1  15
BRANCH  10  24
ATOM     24  C   UNL     1      -0.511  12.273  -0.164  0.00  0.00    -0.016 A 
ATOM     25  C   UNL     1      -0.528  13.518   0.437  0.00  0.00    +0.010 A 
ATOM     26  C   UNL     1      -1.643  14.327   0.327  0.00  0.00    +0.050 A 
ATOM     27  C   UNL     1      -2.752  13.887  -0.379  0.00  0.00    +0.162 A 
ATOM     28  C   UNL     1      -2.737  12.632  -0.979  0.00  0.00    +0.162 A 
ATOM     29  C   UNL     1      -1.614  11.828  -0.869  0.00  0.00    +0.055 A 
BRANCH  27  30
ATOM     30  O   UNL     1      -3.852  14.680  -0.483  0.00  0.00    -0.491 OA
ATOM     31  C   UNL     1      -3.796  15.955   0.158  0.00  0.00    +0.277 C 
ENDBRANCH  27  30
BRANCH  28  32
ATOM     32  O   UNL     1      -3.822  12.196  -1.673  0.00  0.00    -0.489 OA
BRANCH  32  33
ATOM     33  C   UNL     1      -3.780  10.856  -2.170  0.00  0.00    +0.226 C 
ATOM     34  C   UNL     1      -5.031  10.582  -3.005  0.00  0.00    +0.048 C 
ENDBRANCH  32  33
ENDBRANCH  28  32
ENDBRANCH  10  24
BRANCH   9  35
ATOM     35  C   UNL     1       1.899  12.668  -1.892  0.00  0.00    +0.339 C 
ATOM     36  O   UNL     1       2.600  12.678  -2.888  0.00  0.00    -0.245 OA
BRANCH  35  37
ATOM     37  O   UNL     1       1.557  13.831  -1.295  0.00  0.00    -0.462 OA
BRANCH  37  38
ATOM     38  C   UNL     1       1.962  15.037  -1.945  0.00  0.00    +0.229 C 
ATOM     39  C   UNL     1       1.601  16.236  -1.065  0.00  0.00    +0.048 C 
ENDBRANCH  37  38
ENDBRANCH  35  37
ENDBRANCH   9  35
TORSDOF 11
