REMARK  Name = ZINC13304253
REMARK  5 active torsions:
REMARK  status: ('A' for Active; 'I' for Inactive)
REMARK    1  A    between atoms: C_1  and  C_2
REMARK    2  A    between atoms: C_12  and  O_28
REMARK    3  A    between atoms: C_19  and  O_27
REMARK    4  A    between atoms: C_23  and  C_25
REMARK    5  A    between atoms: C_25  and  O_26
REMARK                            x       y       z     vdW  Elec       q    Type
REMARK                         _______ _______ _______ _____ _____    ______ ____
ROOT
ATOM      1  C   UNL     1      -0.013   1.086   0.008  0.00  0.00    +0.035 C 
ATOM      2  C   UNL     1      -0.718   1.572   1.248  0.00  0.00    -0.029 C 
ATOM      3  C   UNL     1      -0.853   2.855   1.463  0.00  0.00    -0.056 C 
ATOM      4  C   UNL     1      -1.545   3.461   2.677  0.00  0.00    +0.118 C 
ATOM      5  N   UNL     1      -1.329   4.905   2.692  0.00  0.00    -0.263 NA
ATOM      6  C   UNL     1      -1.615   5.638   1.450  0.00  0.00    +0.070 C 
ATOM      7  C   UNL     1      -2.071   7.047   1.694  0.00  0.00    +0.057 C 
ATOM      8  C   UNL     1      -0.787   7.565   2.364  0.00  0.00    -0.013 A 
ATOM      9  C   UNL     1      -0.377   8.911   2.649  0.00  0.00    +0.007 A 
ATOM     10  C   UNL     1      -0.977  10.160   2.449  0.00  0.00    +0.055 A 
ATOM     11  C   UNL     1      -0.266  11.273   2.868  0.00  0.00    +0.118 A 
ATOM     12  C   UNL     1       0.988  11.162   3.458  0.00  0.00    +0.047 A 
ATOM     13  C   UNL     1       1.598   9.938   3.664  0.00  0.00    +0.030 A 
ATOM     14  C   UNL     1       0.903   8.803   3.256  0.00  0.00    +0.047 A 
ATOM     15  N   UNL     1       1.215   7.472   3.320  0.00  0.00    -0.354 N 
ATOM     16  H   UNL     1       2.040   7.113   3.684  0.00  0.00    +0.166 HD
ATOM     17  C   UNL     1       0.196   6.723   2.796  0.00  0.00    +0.068 A 
ATOM     18  C   UNL     1       0.149   5.207   2.699  0.00  0.00    +0.162 C 
ATOM     19  C   UNL     1       0.703   4.712   1.351  0.00  0.00    +0.066 C 
ATOM     20  C   UNL     1      -0.336   3.944   0.530  0.00  0.00    +0.027 C 
ATOM     21  C   UNL     1      -1.597   4.804   0.221  0.00  0.00    +0.039 C 
ENDROOT
BRANCH  18  22
ATOM     22  O   UNL     1       0.812   4.582   3.805  0.00  0.00    -0.369 OA
ATOM     23  H   UNL     1       1.762   4.754   3.842  0.00  0.00    +0.212 HD
ENDBRANCH  18  22
BRANCH  11  24
ATOM     24  O   UNL     1      -0.810  12.508   2.699  0.00  0.00    -0.507 OA
ATOM     25  H   UNL     1      -1.346  12.807   3.446  0.00  0.00    +0.292 HD
ENDBRANCH  11  24
BRANCH  21  26
ATOM     26  C   UNL     1      -1.402   5.642  -1.045  0.00  0.00    +0.161 C 
BRANCH  26  27
ATOM     27  O   UNL     1      -1.511   4.800  -2.194  0.00  0.00    -0.395 OA
ATOM     28  H   UNL     1      -1.398   5.265  -3.034  0.00  0.00    +0.209 HD
ENDBRANCH  26  27
ENDBRANCH  21  26
TORSDOF 4
