REMARK  Name = ZINC20136707
REMARK  12 active torsions:
REMARK  status: ('A' for Active; 'I' for Inactive)
REMARK    1  A    between atoms: C_1  and  C_2
REMARK    2  A    between atoms: C_2  and  O_3
REMARK    3  A    between atoms: O_3  and  C_4
REMARK    4  A    between atoms: C_4  and  C_6
REMARK    5  A    between atoms: C_7  and  C_32
REMARK    6  A    between atoms: C_9  and  S_20
REMARK    7  A    between atoms: C_10  and  C_18
REMARK    8  A    between atoms: C_11  and  C_13
REMARK    9  A    between atoms: S_20  and  C_21
REMARK   10  A    between atoms: C_21  and  C_22
REMARK   11  A    between atoms: N_24  and  C_25
REMARK   12  A    between atoms: C_29  and  C_31
REMARK                            x       y       z     vdW  Elec       q    Type
REMARK                         _______ _______ _______ _____ _____    ______ ____
ROOT
ATOM      1  C   UNL     1      -0.094   1.060  -1.254  0.00  0.00    +0.074 C 
ATOM      2  C   UNL     1      -0.204   2.392  -1.501  0.00  0.00    +0.050 C 
ATOM      3  N   UNL     1       0.654   3.290  -0.910  0.00  0.00    -0.308 N 
ATOM      4  C   UNL     1       1.838   2.853  -0.360  0.00  0.00    +0.080 C 
ATOM      5  C   UNL     1       2.026   1.538  -0.071  0.00  0.00    +0.072 C 
ATOM      6  C   UNL     1       0.954   0.517  -0.326  0.00  0.00    +0.136 C 
ATOM      7  H   UNL     1       0.395   4.358  -0.875  0.00  0.00    +0.153 HD
ENDROOT
BRANCH   2   8
ATOM      8  C   UNL     1      -1.258   2.880  -2.414  0.00  0.00    -0.003 A 
ATOM      9  C   UNL     1      -0.912   3.462  -3.636  0.00  0.00    +0.010 A 
ATOM     10  C   UNL     1      -1.901   3.911  -4.487  0.00  0.00    +0.001 A 
ATOM     11  C   UNL     1      -3.232   3.797  -4.126  0.00  0.00    +0.000 A 
ATOM     12  C   UNL     1      -3.581   3.227  -2.915  0.00  0.00    +0.001 A 
ATOM     13  C   UNL     1      -2.603   2.768  -2.057  0.00  0.00    +0.010 A 
ENDBRANCH   2   8
BRANCH   6  14
ATOM     14  C   UNL     1       0.308   0.140   0.983  0.00  0.00    +0.118 A 
ATOM     15  C   UNL     1       0.284  -1.092   1.522  0.00  0.00    +0.045 A 
ATOM     16  C   UNL     1      -0.420  -0.992   2.743  0.00  0.00    +0.041 A 
ATOM     17  C   UNL     1      -0.785   0.296   2.877  0.00  0.00    +0.195 A 
ATOM     18  O   UNL     1      -0.337   0.978   1.811  0.00  0.00    -0.467 OA
ENDBRANCH   6  14
BRANCH   1  19
ATOM     19  C   UNL     1      -0.984   0.168  -1.883  0.00  0.00    +0.338 C 
ATOM     20  O   UNL     1      -1.752   0.575  -2.736  0.00  0.00    -0.245 OA
BRANCH  19  21
ATOM     21  O   UNL     1      -0.984  -1.138  -1.542  0.00  0.00    -0.462 OA
BRANCH  21  23
ATOM     22  C   UNL     1      -1.766  -3.419  -1.706  0.00  0.00    +0.048 C 
ATOM     23  C   UNL     1      -1.912  -1.986  -2.221  0.00  0.00    +0.229 C 
ENDBRANCH  21  23
ENDBRANCH  19  21
ENDBRANCH   1  19
BRANCH   5  24
ATOM     24  C   UNL     1       3.274   1.117   0.490  0.00  0.00    +0.098 C 
ATOM     25  N   UNL     1       4.264   0.782   0.935  0.00  0.00    -0.191 NA
ENDBRANCH   5  24
BRANCH   4  26
ATOM     26  S   UNL     1       3.126   4.010  -0.030  0.00  0.00    -0.100 S 
BRANCH  26  27
ATOM     27  C   UNL     1       2.332   5.534  -0.599  0.00  0.00    +0.171 C 
BRANCH  27  28
ATOM     28  C   UNL     1       3.275   6.694  -0.407  0.00  0.00    +0.227 C 
ATOM     29  O   UNL     1       4.376   6.508   0.067  0.00  0.00    -0.275 OA
ATOM     30  N   UNL     1       2.896   7.937  -0.763  0.00  0.00    -0.285 N 
ATOM     31  H   UNL     1       1.934   8.094  -1.274  0.00  0.00    +0.155 HD
BRANCH  30  32
ATOM     32  C   UNL     1       3.724   9.029  -0.482  0.00  0.00    +0.034 A 
ATOM     33  C   UNL     1       4.545   9.010   0.638  0.00  0.00    +0.023 A 
ATOM     34  C   UNL     1       5.366  10.086   0.909  0.00  0.00    +0.002 A 
ATOM     35  C   UNL     1       5.364  11.188   0.073  0.00  0.00    +0.003 A 
ATOM     36  C   UNL     1       4.544  11.212  -1.041  0.00  0.00    -0.049 A 
ATOM     37  C   UNL     1       3.725  10.136  -1.321  0.00  0.00    +0.026 A 
ATOM     38  C   UNL     1       4.545  12.414  -1.950  0.00  0.00    +0.044 C 
ENDBRANCH  30  32
ENDBRANCH  27  28
ENDBRANCH  26  27
ENDBRANCH   4  26
TORSDOF 10
