REMARK  Name = ZINC39738299
REMARK  6 active torsions:
REMARK  status: ('A' for Active; 'I' for Inactive)
REMARK    1  A    between atoms: C_1  and  O_2
REMARK    2  A    between atoms: O_2  and  C_3
REMARK    3  A    between atoms: C_6  and  C_9
REMARK    4  A    between atoms: C_11  and  N_15
REMARK    5  A    between atoms: N_15  and  N_16
REMARK    6  A    between atoms: C_18  and  C_30
REMARK                            x       y       z     vdW  Elec       q    Type
REMARK                         _______ _______ _______ _____ _____    ______ ____
ROOT
ATOM      1  N   UNL     1       5.304  -5.504   6.519  0.00  0.00    -0.182 NA
ATOM      2  C   UNL     1       6.390  -6.186   6.282  0.00  0.00    +0.151 C 
ATOM      3  C   UNL     1       7.109  -6.033   4.968  0.00  0.00    +0.240 C 
ATOM      4  N   UNL     1       8.443  -5.529   5.159  0.00  0.00    -0.368 N 
ATOM      5  C   UNL     1       9.347  -5.763   6.021  0.00  0.00    +0.058 A 
ATOM      6  C   UNL     1      10.593  -4.958   5.949  0.00  0.00    +0.027 A 
ATOM      7  C   UNL     1      11.650  -5.300   6.708  0.00  0.00    +0.002 A 
ATOM      8  C   UNL     1      11.606  -6.408   7.571  0.00  0.00    +0.002 A 
ATOM      9  C   UNL     1      10.479  -7.123   7.767  0.00  0.00    +0.025 A 
ATOM     10  C   UNL     1       9.270  -6.783   7.092  0.00  0.00    +0.057 A 
ATOM     11  N   UNL     1       8.179  -7.356   7.514  0.00  0.00    -0.279 N 
ATOM     12  C   UNL     1       6.921  -7.098   7.290  0.00  0.00    +0.266 C 
ATOM     13  O   UNL     1       6.109  -7.680   7.990  0.00  0.00    -0.268 OA
ATOM     14  H   UNL     1       8.707  -4.875   4.492  0.00  0.00    +0.161 HD
ATOM     15  H   UNL     1       8.332  -8.109   8.106  0.00  0.00    +0.155 HD
ENDROOT
BRANCH   3  16
ATOM     16  C   UNL     1       7.184  -7.396   4.277  0.00  0.00    +0.415 C 
ATOM     17  F   UNL     1       5.890  -7.877   4.051  0.00  0.00    -0.168 F 
ATOM     18  F   UNL     1       7.852  -7.263   3.054  0.00  0.00    -0.168 F 
ATOM     19  F   UNL     1       7.880  -8.295   5.092  0.00  0.00    -0.168 F 
ENDBRANCH   3  16
BRANCH   1  20
ATOM     20  N   UNL     1       4.865  -4.543   5.599  0.00  0.00    -0.239 N 
ATOM     21  H   UNL     1       5.393  -4.352   4.809  0.00  0.00    +0.171 HD
BRANCH  20  24
ATOM     22  C   UNL     1       2.917  -2.096   4.556  0.00  0.00    +0.093 C 
ATOM     23  C   UNL     1       2.959  -3.442   4.513  0.00  0.00    +0.052 C 
ATOM     24  C   UNL     1       3.607  -3.829   5.831  0.00  0.00    +0.253 C 
ATOM     25  N   UNL     1       3.855  -2.529   6.476  0.00  0.00    -0.159 NA
ATOM     26  N   UNL     1       3.457  -1.642   5.717  0.00  0.00    -0.152 NA
BRANCH  22  30
ATOM     27  C   UNL     1       1.336   0.382   1.482  0.00  0.00    +0.120 A 
ATOM     28  C   UNL     1       1.864   0.955   2.631  0.00  0.00    +0.046 A 
ATOM     29  C   UNL     1       2.377   0.154   3.630  0.00  0.00    +0.013 A 
ATOM     30  C   UNL     1       2.366  -1.232   3.484  0.00  0.00    +0.002 A 
ATOM     31  C   UNL     1       1.835  -1.804   2.329  0.00  0.00    +0.013 A 
ATOM     32  C   UNL     1       1.319  -0.998   1.336  0.00  0.00    +0.046 A 
BRANCH  27  34
ATOM     33  C   UNL     1       0.881   2.586   0.715  0.00  0.00    +0.277 C 
ATOM     34  O   UNL     1       0.831   1.174   0.500  0.00  0.00    -0.495 OA
ENDBRANCH  27  34
ENDBRANCH  22  30
ENDBRANCH  20  24
ENDBRANCH   1  20
TORSDOF 5
