REMARK  Name = ZINC64704280
REMARK  13 active torsions:
REMARK  status: ('A' for Active; 'I' for Inactive)
REMARK    1  A    between atoms: C_1  and  C_2
REMARK    2  A    between atoms: N_8  and  C_9
REMARK    3  A    between atoms: C_9  and  C_10
REMARK    4  A    between atoms: C_10  and  N_11
REMARK    5  A    between atoms: C_12  and  C_14
REMARK    6  A    between atoms: C_14  and  N_15
REMARK    7  A    between atoms: N_15  and  C_16
REMARK    8  A    between atoms: C_20  and  N_32
REMARK    9  A    between atoms: C_21  and  C_25
REMARK   10  A    between atoms: N_32  and  C_33
REMARK   11  A    between atoms: C_33  and  C_34
REMARK   12  A    between atoms: C_33  and  C_35
REMARK   13  A    between atoms: C_33  and  C_36
REMARK                            x       y       z     vdW  Elec       q    Type
REMARK                         _______ _______ _______ _____ _____    ______ ____
ROOT
ATOM      1  N   UNL     1       0.585   0.999   9.313  0.00  0.00    -0.302 N 
ATOM      2  C   UNL     1       1.683   1.752   9.925  0.00  0.00    +0.132 C 
ATOM      3  C   UNL     1       0.357  -0.317   9.682  0.00  0.00    +0.184 A 
ATOM      4  N   UNL     1       1.001  -1.048  10.550  0.00  0.00    -0.140 NA
ATOM      5  N   UNL     1       0.633  -2.366  10.800  0.00  0.00    -0.190 N 
ATOM      6  C   UNL     1       1.040  -3.421  11.604  0.00  0.00    +0.150 A 
ATOM      7  C   UNL     1       0.215  -4.475  11.348  0.00  0.00    +0.114 A 
ATOM      8  N   UNL     1      -0.682  -4.082  10.407  0.00  0.00    -0.218 NA
ATOM      9  C   UNL     1      -0.437  -2.847  10.087  0.00  0.00    +0.199 A 
ATOM     10  S   UNL     1      -0.898  -1.444   9.097  0.00  0.00    -0.013 S 
ENDROOT
BRANCH   7  11
ATOM     11  C   UNL     1       0.286  -5.812  11.982  0.00  0.00    +0.007 A 
ATOM     12  C   UNL     1       1.522  -6.359  12.326  0.00  0.00    +0.010 A 
ATOM     13  C   UNL     1       1.583  -7.605  12.917  0.00  0.00    +0.003 A 
ATOM     14  C   UNL     1       0.421  -8.312  13.168  0.00  0.00    +0.038 A 
ATOM     15  C   UNL     1      -0.811  -7.774  12.829  0.00  0.00    +0.124 A 
ATOM     16  C   UNL     1      -0.884  -6.525  12.243  0.00  0.00    +0.048 A 
ATOM     17  F   UNL     1      -1.942  -8.470  13.078  0.00  0.00    -0.205 F 
ENDBRANCH   7  11
BRANCH   6  18
ATOM     18  N   UNL     1       2.104  -3.405  12.510  0.00  0.00    -0.323 N 
ATOM     19  H   UNL     1       2.258  -4.168  13.090  0.00  0.00    +0.148 HD
BRANCH  18  20
ATOM     20  C   UNL     1       2.986  -2.238  12.584  0.00  0.00    +0.025 C 
ATOM     21  C   UNL     1       2.187  -1.025  13.066  0.00  0.00    +0.031 C 
ATOM     22  C   UNL     1       4.125  -2.521  13.566  0.00  0.00    +0.031 C 
ATOM     23  C   UNL     1       3.567  -1.948  11.199  0.00  0.00    +0.031 C 
ENDBRANCH  18  20
ENDBRANCH   6  18
BRANCH   1  24
ATOM     24  C   UNL     1      -0.272   1.638   8.311  0.00  0.00    +0.202 C 
BRANCH  24  26
ATOM     25  N   UNL     1      -0.314   1.918   5.854  0.00  0.00    -0.316 N 
ATOM     26  C   UNL     1       0.309   1.417   6.938  0.00  0.00    +0.230 C 
ATOM     27  O   UNL     1       1.338   0.787   6.810  0.00  0.00    -0.274 OA
ATOM     28  H   UNL     1      -1.137   2.421   5.956  0.00  0.00    +0.149 HD
BRANCH  25  29
ATOM     29  C   UNL     1       0.252   1.703   4.519  0.00  0.00    +0.086 C 
BRANCH  29  30
ATOM     30  C   UNL     1      -0.643   2.370   3.473  0.00  0.00    -0.059 C 
BRANCH  30  37
ATOM     31  C   UNL     1      -0.904   4.375   1.525  0.00  0.00    -0.013 C 
ATOM     32  C   UNL     1      -0.868   2.894   1.144  0.00  0.00    -0.072 C 
ATOM     33  C   UNL     1      -0.234   2.739  -0.239  0.00  0.00    -0.016 C 
ATOM     34  C   UNL     1      -0.201   1.254  -0.616  0.00  0.00    -0.003 C 
ATOM     35  C   UNL     1       0.564   0.482   0.463  0.00  0.00    -0.019 C 
ATOM     36  C   UNL     1      -0.100   0.721   1.821  0.00  0.00    -0.078 C 
ATOM     37  N   UNL     1      -0.077   2.154   2.135  0.00  0.00    +0.382 N 
ATOM     38  H   UNL     1       0.876   2.486   2.118  0.00  0.00    -0.081 HD
ENDBRANCH  30  37
ENDBRANCH  29  30
ENDBRANCH  25  29
ENDBRANCH  24  26
ENDBRANCH   1  24
TORSDOF 8
