REMARK  Name = ZINC16322374
REMARK  8 active torsions:
REMARK  status: ('A' for Active; 'I' for Inactive)
REMARK    1  A    between atoms: C_1  and  C_2
REMARK    2  A    between atoms: C_2  and  C_4
REMARK    3  A    between atoms: C_2  and  O_20
REMARK    4  A    between atoms: N_6  and  N_7
REMARK    5  A    between atoms: N_7  and  S_8
REMARK    6  A    between atoms: S_8  and  C_11
REMARK    7  A    between atoms: C_14  and  N_17
REMARK    8  A    between atoms: O_20  and  C_21
REMARK                            x       y       z     vdW  Elec       q    Type
REMARK                         _______ _______ _______ _____ _____    ______ ____
ROOT
ATOM      1  C   UNL     1       1.168   1.666  -0.244  0.00  0.00    +0.268 C 
ATOM      2  O   UNL     1       1.181   2.868  -0.405  0.00  0.00    -0.270 OA
ATOM      3  N   UNL     1      -0.000   0.995  -0.274  0.00  0.00    -0.229 N 
ATOM      4  H   UNL     1      -0.011   0.034  -0.145  0.00  0.00    +0.171 HD
ENDROOT
BRANCH   1   6
ATOM      5  C   UNL     1       2.720  -0.027  -1.179  0.00  0.00    +0.062 C 
ATOM      6  C   UNL     1       2.458   0.923  -0.009  0.00  0.00    +0.257 C 
BRANCH   6   7
ATOM      7  O   UNL     1       3.534   1.858   0.096  0.00  0.00    -0.478 OA
BRANCH   7   8
ATOM      8  C   UNL     1       4.629   1.463   0.797  0.00  0.00    +0.140 A 
ATOM      9  C   UNL     1       4.715   0.164   1.277  0.00  0.00    +0.048 A 
ATOM     10  C   UNL     1       5.831  -0.237   1.986  0.00  0.00    +0.023 A 
ATOM     11  C   UNL     1       6.859   0.658   2.226  0.00  0.00    +0.043 A 
ATOM     12  C   UNL     1       6.773   1.955   1.753  0.00  0.00    +0.043 A 
ATOM     13  C   UNL     1       5.661   2.360   1.039  0.00  0.00    +0.084 A 
ATOM     14 CL   UNL     1       5.553   3.988   0.447  0.00  0.00    -0.080 Cl
ATOM     15 CL   UNL     1       8.257   0.152   3.123  0.00  0.00    -0.083 Cl
ENDBRANCH   7   8
ENDBRANCH   6   7
ENDBRANCH   1   6
BRANCH   3  16
ATOM     16  N   UNL     1      -1.199   1.685  -0.498  0.00  0.00    -0.108 NA
ATOM     17  H   UNL     1      -1.443   2.430   0.072  0.00  0.00    +0.172 HD
BRANCH  16  18
ATOM     18  S   UNL     1      -2.197   1.228  -1.738  0.00  0.00    +0.074 S 
ATOM     19  O   UNL     1      -3.378   2.010  -1.617  0.00  0.00    -0.152 OA
ATOM     20  O   UNL     1      -1.405   1.222  -2.917  0.00  0.00    -0.152 OA
BRANCH  18  21
ATOM     21  C   UNL     1      -2.668  -0.443  -1.439  0.00  0.00    +0.107 A 
ATOM     22  C   UNL     1      -1.907  -1.478  -1.951  0.00  0.00    +0.031 A 
ATOM     23  C   UNL     1      -2.274  -2.789  -1.713  0.00  0.00    +0.034 A 
ATOM     24  C   UNL     1      -3.407  -3.066  -0.970  0.00  0.00    +0.126 A 
ATOM     25  C   UNL     1      -4.170  -2.032  -0.462  0.00  0.00    +0.034 A 
ATOM     26  C   UNL     1      -3.801  -0.720  -0.697  0.00  0.00    +0.031 A 
BRANCH  24  27
ATOM     27  N   UNL     1      -3.802  -4.470  -0.719  0.00  0.00    +0.056 N 
ATOM     28  O   UNL     1      -4.800  -4.714  -0.064  0.00  0.00    -0.126 OA
ATOM     29  O   UNL     1      -3.129  -5.382  -1.167  0.00  0.00    -0.126 OA
ENDBRANCH  24  27
ENDBRANCH  18  21
ENDBRANCH  16  18
ENDBRANCH   3  16
TORSDOF 7
