REMARK  Name = ZINC38574046
REMARK  11 active torsions:
REMARK  status: ('A' for Active; 'I' for Inactive)
REMARK    1  A    between atoms: C_1  and  C_2
REMARK    2  A    between atoms: C_2  and  C_3
REMARK    3  A    between atoms: C_2  and  C_4
REMARK    4  A    between atoms: C_4  and  C_5
REMARK    5  A    between atoms: C_5  and  N_6
REMARK    6  A    between atoms: C_13  and  O_38
REMARK    7  A    between atoms: C_15  and  C_19
REMARK    8  A    between atoms: N_21  and  N_22
REMARK    9  A    between atoms: C_23  and  C_24
REMARK   10  A    between atoms: C_23  and  C_25
REMARK   11  A    between atoms: C_27  and  O_37
REMARK                            x       y       z     vdW  Elec       q    Type
REMARK                         _______ _______ _______ _____ _____    ______ ____
ROOT
ATOM      1  C   UNL     1       3.930  -0.830   4.607  0.00  0.00    +0.247 C 
ATOM      2  O   UNL     1       4.135  -1.976   4.949  0.00  0.00    -0.273 OA
ATOM      3  N   UNL     1       4.810  -0.198   3.806  0.00  0.00    -0.206 N 
ATOM      4  H   UNL     1       4.684   0.740   3.591  0.00  0.00    +0.177 HD
ENDROOT
BRANCH   1  13
ATOM      5  N   UNL     1       0.932  -0.767   3.458  0.00  0.00    -0.270 N 
ATOM      6  C   UNL     1       0.836  -2.006   4.098  0.00  0.00    +0.042 A 
ATOM      7  C   UNL     1       0.253  -3.085   3.447  0.00  0.00    +0.024 A 
ATOM      8  C   UNL     1       0.162  -4.306   4.086  0.00  0.00    +0.002 A 
ATOM      9  C   UNL     1       0.648  -4.455   5.372  0.00  0.00    +0.000 A 
ATOM     10  C   UNL     1       1.229  -3.381   6.023  0.00  0.00    +0.008 A 
ATOM     11  C   UNL     1       1.323  -2.158   5.390  0.00  0.00    +0.003 A 
ATOM     12  C   UNL     1       1.955  -0.986   6.095  0.00  0.00    +0.167 C 
ATOM     13  C   UNL     1       2.691  -0.113   5.078  0.00  0.00    +0.195 C 
ATOM     14  C   UNL     1       1.802   0.162   3.896  0.00  0.00    +0.235 C 
ATOM     15  O   UNL     1       1.866   1.235   3.335  0.00  0.00    -0.274 OA
BRANCH  12  16
ATOM     16  O   UNL     1       2.882  -1.463   7.073  0.00  0.00    -0.386 OA
ATOM     17  H   UNL     1       2.484  -2.024   7.752  0.00  0.00    +0.210 HD
ENDBRANCH  12  16
BRANCH   5  18
ATOM     18  C   UNL     1       0.085  -0.480   2.297  0.00  0.00    +0.114 C 
BRANCH  18  19
ATOM     19  C   UNL     1       0.853  -0.802   1.013  0.00  0.00    +0.022 C 
BRANCH  19  21
ATOM     20  C   UNL     1      -0.155   1.128  -0.213  0.00  0.00    +0.007 C 
ATOM     21  C   UNL     1       0.014  -0.393  -0.199  0.00  0.00    -0.016 C 
ATOM     22  C   UNL     1       0.718  -0.839  -1.481  0.00  0.00    +0.007 C 
ENDBRANCH  19  21
ENDBRANCH  18  19
ENDBRANCH   5  18
ENDBRANCH   1  13
BRANCH   3  23
ATOM     23  N   UNL     1       5.907  -0.895   3.283  0.00  0.00    -0.188 NA
ATOM     24  C   UNL     1       6.800  -0.272   2.609  0.00  0.00    +0.053 C 
ATOM     25  C   UNL     1       7.894  -1.041   1.915  0.00  0.00    +0.063 C 
BRANCH  24  26
ATOM     26  C   UNL     1       6.756   1.231   2.510  0.00  0.00    +0.186 C 
ATOM     27  C   UNL     1       6.283   1.592   1.115  0.00  0.00    +0.120 C 
ATOM     28  C   UNL     1       7.131   2.390   0.344  0.00  0.00    +0.035 A 
ATOM     29  C   UNL     1       6.768   2.772  -0.964  0.00  0.00    +0.013 A 
ATOM     30  C   UNL     1       7.613   3.551  -1.694  0.00  0.00    +0.001 A 
ATOM     31  C   UNL     1       8.831   3.979  -1.176  0.00  0.00    +0.002 A 
ATOM     32  C   UNL     1       9.236   3.642   0.081  0.00  0.00    +0.024 A 
ATOM     33  C   UNL     1       8.414   2.840   0.891  0.00  0.00    +0.044 A 
ATOM     34  N   UNL     1       8.813   2.510   2.126  0.00  0.00    -0.284 N 
ATOM     35  C   UNL     1       8.102   1.764   2.945  0.00  0.00    +0.233 C 
ATOM     36  O   UNL     1       8.529   1.504   4.055  0.00  0.00    -0.274 OA
ATOM     37  H   UNL     1       9.673   2.838   2.433  0.00  0.00    +0.155 HD
BRANCH  27  38
ATOM     38  O   UNL     1       5.106   1.165   0.644  0.00  0.00    -0.509 OA
ATOM     39  H   UNL     1       4.913   1.459  -0.257  0.00  0.00    +0.292 HD
ENDBRANCH  27  38
ENDBRANCH  24  26
ENDBRANCH   3  23
TORSDOF 8
