REMARK  Name = ZINC09293785
REMARK  13 active torsions:
REMARK  status: ('A' for Active; 'I' for Inactive)
REMARK    1  A    between atoms: C_1  and  C_2
REMARK    2  A    between atoms: C_2  and  O_3
REMARK    3  A    between atoms: O_3  and  C_4
REMARK    4  A    between atoms: C_4  and  C_5
REMARK    5  A    between atoms: C_5  and  N_6
REMARK    6  A    between atoms: C_9  and  C_36
REMARK    7  A    between atoms: C_10  and  C_35
REMARK    8  A    between atoms: N_15  and  C_16
REMARK    9  A    between atoms: C_16  and  C_18
REMARK   10  A    between atoms: C_21  and  N_24
REMARK   11  A    between atoms: N_24  and  S_25
REMARK   12  A    between atoms: S_25  and  C_28
REMARK   13  A    between atoms: C_31  and  C_34
REMARK                            x       y       z     vdW  Elec       q    Type
REMARK                         _______ _______ _______ _____ _____    ______ ____
ROOT
ATOM      1  C   UNL     1      -5.094  -2.623   0.295  0.00  0.00    +0.269 C 
ATOM      2  O   UNL     1      -5.349  -3.598  -0.391  0.00  0.00    -0.268 OA
ENDROOT
BRANCH   1  12
ATOM      3  N   UNL     1      -8.176  -2.503   2.169  0.00  0.00    -0.319 N 
ATOM      4  C   UNL     1      -9.324  -3.274   2.170  0.00  0.00    +0.058 A 
ATOM      5  C   UNL     1     -10.474  -3.123   2.960  0.00  0.00    +0.030 A 
ATOM      6  C   UNL     1     -11.534  -3.988   2.830  0.00  0.00    -0.046 A 
ATOM      7  C   UNL     1     -11.503  -5.031   1.921  0.00  0.00    -0.046 A 
ATOM      8  C   UNL     1     -10.381  -5.204   1.129  0.00  0.00    +0.020 A 
ATOM      9  C   UNL     1      -9.320  -4.339   1.258  0.00  0.00    +0.039 A 
ATOM     10  S   UNL     1      -7.739  -4.191   0.464  0.00  0.00    -0.052 S 
ATOM     11  C   UNL     1      -7.153  -2.804   1.324  0.00  0.00    +0.167 A 
ATOM     12  N   UNL     1      -5.988  -2.181   1.187  0.00  0.00    -0.152 NA
ATOM     13  C   UNL     1     -12.676  -5.968   1.794  0.00  0.00    +0.044 C 
ATOM     14  C   UNL     1     -12.755  -3.797   3.694  0.00  0.00    +0.044 C 
BRANCH   3  15
ATOM     15  C   UNL     1      -8.062  -1.361   3.079  0.00  0.00    +0.152 C 
BRANCH  15  16
ATOM     16  C   UNL     1      -6.623  -1.258   3.590  0.00  0.00    +0.181 C 
BRANCH  16  17
ATOM     17  O   UNL     1      -6.540  -0.228   4.577  0.00  0.00    -0.378 OA
BRANCH  17  19
ATOM     18  C   UNL     1      -5.261   1.072   6.163  0.00  0.00    +0.034 C 
ATOM     19  C   UNL     1      -5.231  -0.049   5.122  0.00  0.00    +0.156 C 
ENDBRANCH  17  19
ENDBRANCH  16  17
ENDBRANCH  15  16
ENDBRANCH   3  15
ENDBRANCH   1  12
BRANCH   1  20
ATOM     20  C   UNL     1      -3.797  -1.930   0.142  0.00  0.00    +0.039 A 
ATOM     21  C   UNL     1      -2.863  -2.391  -0.789  0.00  0.00    +0.015 A 
ATOM     22  C   UNL     1      -1.656  -1.743  -0.929  0.00  0.00    +0.025 A 
ATOM     23  C   UNL     1      -1.367  -0.630  -0.145  0.00  0.00    +0.048 A 
ATOM     24  C   UNL     1      -2.293  -0.172   0.786  0.00  0.00    +0.025 A 
ATOM     25  C   UNL     1      -3.504  -0.813   0.927  0.00  0.00    +0.015 A 
BRANCH  23  26
ATOM     26  N   UNL     1      -0.146   0.022  -0.289  0.00  0.00    -0.216 N 
ATOM     27  H   UNL     1       0.543  -0.085   0.386  0.00  0.00    +0.174 HD
BRANCH  26  28
ATOM     28  S   UNL     1       0.131   0.979  -1.611  0.00  0.00    +0.072 S 
ATOM     29  O   UNL     1       1.409   1.571  -1.424  0.00  0.00    -0.150 OA
ATOM     30  O   UNL     1      -0.185   0.195  -2.754  0.00  0.00    -0.150 OA
BRANCH  28  31
ATOM     31  C   UNL     1      -1.044   2.291  -1.560  0.00  0.00    +0.109 A 
ATOM     32  C   UNL     1      -2.306   2.110  -2.096  0.00  0.00    +0.029 A 
ATOM     33  C   UNL     1      -3.229   3.138  -2.051  0.00  0.00    +0.005 A 
ATOM     34  C   UNL     1      -2.888   4.349  -1.480  0.00  0.00    -0.050 A 
ATOM     35  C   UNL     1      -1.625   4.532  -0.949  0.00  0.00    +0.005 A 
ATOM     36  C   UNL     1      -0.703   3.503  -0.989  0.00  0.00    +0.029 A 
ATOM     37  C   UNL     1      -3.893   5.471  -1.436  0.00  0.00    +0.044 C 
ENDBRANCH  28  31
ENDBRANCH  26  28
ENDBRANCH  23  26
ENDBRANCH   1  20
TORSDOF 9
