REMARK  Name = ZINC66606575
REMARK  3 active torsions:
REMARK  status: ('A' for Active; 'I' for Inactive)
REMARK    1  A    between atoms: C_1  and  O_2
REMARK    2  A    between atoms: O_2  and  C_3
REMARK    3  A    between atoms: C_6  and  C_9
REMARK                            x       y       z     vdW  Elec       q    Type
REMARK                         _______ _______ _______ _____ _____    ______ ____
ROOT
ATOM      1  C   UNL     1       2.574  -2.431   4.289  0.00  0.00    +0.144 A 
ATOM      2  N   UNL     1       3.116  -1.628   5.254  0.00  0.00    -0.306 N 
ATOM      3  H   UNL     1       3.041  -0.664   5.169  0.00  0.00    +0.170 HD
ATOM      4  C   UNL     1       3.753  -2.150   6.319  0.00  0.00    +0.260 A 
ATOM      5  O   UNL     1       4.231  -1.423   7.173  0.00  0.00    -0.267 OA
ATOM      6  C   UNL     1       3.858  -3.574   6.434  0.00  0.00    +0.075 A 
ATOM      7  C   UNL     1       4.509  -4.343   7.508  0.00  0.00    -0.021 A 
ATOM      8  C   UNL     1       4.471  -5.681   7.393  0.00  0.00    +0.006 A 
ATOM      9  S   UNL     1       3.594  -5.995   5.876  0.00  0.00    -0.072 S 
ATOM     10  C   UNL     1       3.273  -4.318   5.401  0.00  0.00    +0.116 A 
ATOM     11  N   UNL     1       2.653  -3.743   4.377  0.00  0.00    -0.222 NA
ATOM     12  C   UNL     1       5.013  -6.751   8.301  0.00  0.00    +0.111 C 
ATOM     13  S   UNL     1       6.191  -5.980   9.454  0.00  0.00    -0.155 S 
ATOM     14  C   UNL     1       5.324  -4.442   9.897  0.00  0.00    +0.074 C 
ATOM     15  C   UNL     1       5.180  -3.585   8.648  0.00  0.00    +0.047 C 
ENDROOT
BRANCH   1  19
ATOM     16  C   UNL     1       0.624  -0.617   1.039  0.00  0.00    +0.214 A 
ATOM     17  C   UNL     1       0.679  -2.006   1.081  0.00  0.00    +0.068 A 
ATOM     18  C   UNL     1       1.314  -2.625   2.139  0.00  0.00    +0.018 A 
ATOM     19  C   UNL     1       1.883  -1.820   3.137  0.00  0.00    +0.036 A 
ATOM     20  C   UNL     1       1.787  -0.433   3.024  0.00  0.00    +0.126 A 
ATOM     21  N   UNL     1       1.175   0.116   1.994  0.00  0.00    -0.221 NA
BRANCH  16  23
ATOM     22  C   UNL     1      -0.017   1.425   0.010  0.00  0.00    +0.279 C 
ATOM     23  O   UNL     1       0.002  -0.004   0.002  0.00  0.00    -0.480 OA
ENDBRANCH  16  23
ENDBRANCH   1  19
TORSDOF 2
