REMARK  Name = ZINC03417062
REMARK  10 active torsions:
REMARK  status: ('A' for Active; 'I' for Inactive)
REMARK    1  A    between atoms: C_1  and  C_2
REMARK    2  A    between atoms: C_5  and  C_9
REMARK    3  A    between atoms: C_6  and  C_8
REMARK    4  A    between atoms: C_15  and  C_17
REMARK    5  A    between atoms: C_17  and  C_19
REMARK    6  A    between atoms: C_17  and  S_20
REMARK    7  A    between atoms: S_20  and  C_21
REMARK    8  A    between atoms: C_21  and  C_22
REMARK    9  A    between atoms: C_28  and  C_34
REMARK   10  A    between atoms: C_29  and  C_33
REMARK                            x       y       z     vdW  Elec       q    Type
REMARK                         _______ _______ _______ _____ _____    ______ ____
ROOT
ATOM      1  C   UNL     1      -0.960   3.490   0.542  0.00  0.00    +0.080 A 
ATOM      2  C   UNL     1       0.296   3.987   0.751  0.00  0.00    +0.076 A 
ATOM      3  S   UNL     1       1.217   2.473   0.986  0.00  0.00    -0.060 S 
ATOM      4  C   UNL     1      -0.154   1.344   0.784  0.00  0.00    +0.165 A 
ATOM      5  N   UNL     1      -1.151   2.179   0.559  0.00  0.00    -0.225 NA
ATOM      6  N   UNL     1      -0.166  -0.044   0.843  0.00  0.00    -0.264 N 
ATOM      7  C   UNL     1       0.977  -0.718   1.082  0.00  0.00    +0.231 C 
ATOM      8  O   UNL     1       2.015  -0.113   1.246  0.00  0.00    -0.274 OA
ATOM      9  H   UNL     1      -0.996  -0.528   0.711  0.00  0.00    +0.157 HD
ENDROOT
BRANCH   1  14
ATOM     10  C   UNL     1      -5.377   7.057  -0.422  0.00  0.00    +0.044 C 
ATOM     11  C   UNL     1      -4.221   6.124  -0.170  0.00  0.00    -0.050 A 
ATOM     12  C   UNL     1      -2.982   6.637   0.171  0.00  0.00    +0.004 A 
ATOM     13  C   UNL     1      -1.922   5.787   0.408  0.00  0.00    +0.010 A 
ATOM     14  C   UNL     1      -2.098   4.409   0.294  0.00  0.00    +0.004 A 
ATOM     15  C   UNL     1      -3.348   3.897  -0.050  0.00  0.00    -0.041 A 
ATOM     16  C   UNL     1      -4.402   4.757  -0.280  0.00  0.00    +0.007 A 
ATOM     17  C   UNL     1      -3.547   2.408  -0.170  0.00  0.00    +0.044 C 
ENDBRANCH   1  14
BRANCH   7  18
ATOM     18  C   UNL     1       0.964  -2.224   1.145  0.00  0.00    +0.130 C 
ATOM     19  C   UNL     1       0.457  -2.672   2.518  0.00  0.00    +0.029 C 
BRANCH  18  20
ATOM     20  S   UNL     1       2.645  -2.854   0.887  0.00  0.00    -0.141 S 
BRANCH  20  21
ATOM     21  C   UNL     1       2.436  -4.656   0.840  0.00  0.00    +0.144 C 
BRANCH  21  22
ATOM     22  C   UNL     1       3.776  -5.312   0.627  0.00  0.00    +0.121 A 
ATOM     23  N   UNL     1       3.853  -6.666   0.565  0.00  0.00    -0.310 N 
ATOM     24  H   UNL     1       3.044  -7.193   0.659  0.00  0.00    +0.170 HD
ATOM     25  C   UNL     1       5.028  -7.292   0.370  0.00  0.00    +0.260 A 
ATOM     26  O   UNL     1       5.080  -8.508   0.312  0.00  0.00    -0.267 OA
ATOM     27  C   UNL     1       6.220  -6.506   0.239  0.00  0.00    +0.075 A 
ATOM     28  C   UNL     1       7.589  -6.938   0.032  0.00  0.00    -0.026 A 
ATOM     29  C   UNL     1       8.560  -6.015  -0.064  0.00  0.00    -0.008 A 
ATOM     30  S   UNL     1       7.684  -4.473   0.122  0.00  0.00    -0.073 S 
ATOM     31  C   UNL     1       6.041  -5.113   0.322  0.00  0.00    +0.116 A 
ATOM     32  N   UNL     1       4.843  -4.568   0.511  0.00  0.00    -0.226 NA
ATOM     33  C   UNL     1      10.036  -6.230  -0.276  0.00  0.00    +0.052 C 
ATOM     34  C   UNL     1       7.918  -8.404  -0.075  0.00  0.00    +0.045 C 
ENDBRANCH  21  22
ENDBRANCH  20  21
ENDBRANCH  18  20
ENDBRANCH   7  18
TORSDOF 5
