REMARK  Name = ZINC06549320
REMARK  9 active torsions:
REMARK  status: ('A' for Active; 'I' for Inactive)
REMARK    1  A    between atoms: C_1  and  C_2
REMARK    2  A    between atoms: C_2  and  N_3
REMARK    3  A    between atoms: C_12  and  S_13
REMARK    4  A    between atoms: S_13  and  C_14
REMARK    5  A    between atoms: C_14  and  C_16
REMARK    6  A    between atoms: C_14  and  C_19
REMARK    7  A    between atoms: C_16  and  C_17
REMARK    8  A    between atoms: C_16  and  C_18
REMARK    9  A    between atoms: C_26  and  C_30
REMARK                            x       y       z     vdW  Elec       q    Type
REMARK                         _______ _______ _______ _____ _____    ______ ____
ROOT
ATOM      1  N   UNL     1      -0.749   3.044   1.275  0.00  0.00    -0.288 N 
ATOM      2  C   UNL     1      -1.779   3.693   0.702  0.00  0.00    +0.263 A 
ATOM      3  O   UNL     1      -2.688   3.071   0.180  0.00  0.00    -0.267 OA
ATOM      4  C   UNL     1      -1.792   5.124   0.713  0.00  0.00    +0.076 A 
ATOM      5  C   UNL     1      -2.801   6.027   0.156  0.00  0.00    -0.023 A 
ATOM      6  C   UNL     1      -2.583   7.350   0.296  0.00  0.00    -0.004 A 
ATOM      7  S   UNL     1      -1.043   7.473   1.166  0.00  0.00    -0.073 S 
ATOM      8  C   UNL     1      -0.696   5.741   1.340  0.00  0.00    +0.117 A 
ATOM      9  N   UNL     1       0.290   5.042   1.888  0.00  0.00    -0.216 NA
ATOM     10  C   UNL     1       0.275   3.724   1.868  0.00  0.00    +0.173 A 
ATOM     11  C   UNL     1      -3.456   8.470  -0.182  0.00  0.00    +0.046 C 
ATOM     12  C   UNL     1      -4.835   7.893  -0.532  0.00  0.00    -0.009 C 
ATOM     13  C   UNL     1      -4.639   6.645  -1.399  0.00  0.00    +0.008 C 
ATOM     14  C   UNL     1      -4.051   5.514  -0.554  0.00  0.00    +0.037 C 
ATOM     15  C   UNL     1      -5.645   8.934  -1.308  0.00  0.00    +0.008 C 
ENDROOT
BRANCH   1  17
ATOM     16  C   UNL     1      -0.013   1.086   0.008  0.00  0.00    +0.027 C 
ATOM     17  C   UNL     1      -0.729   1.579   1.267  0.00  0.00    +0.124 C 
ENDBRANCH   1  17
BRANCH  10  18
ATOM     18  S   UNL     1       1.598   2.828   2.612  0.00  0.00    -0.075 S 
BRANCH  18  19
ATOM     19  C   UNL     1       2.612   4.204   3.209  0.00  0.00    +0.143 C 
BRANCH  19  20
ATOM     20  C   UNL     1       3.771   3.664   4.007  0.00  0.00    +0.234 C 
ATOM     21  O   UNL     1       4.175   2.539   3.804  0.00  0.00    -0.274 OA
ATOM     22  N   UNL     1       4.358   4.431   4.947  0.00  0.00    -0.239 N 
ATOM     23  C   UNL     1       5.394   3.948   5.660  0.00  0.00    +0.303 C 
ATOM     24  O   UNL     1       5.800   2.821   5.456  0.00  0.00    -0.253 OA
ATOM     25  N   UNL     1       5.981   4.715   6.599  0.00  0.00    -0.313 N 
ATOM     26  H   UNL     1       4.034   5.331   5.109  0.00  0.00    +0.159 HD
ATOM     27  H   UNL     1       5.658   5.615   6.762  0.00  0.00    +0.146 HD
ATOM     28  H   UNL     1       6.728   4.368   7.113  0.00  0.00    +0.146 HD
ENDBRANCH  19  20
BRANCH  19  29
ATOM     29  C   UNL     1       3.142   5.002   2.017  0.00  0.00    +0.005 C 
ATOM     30  C   UNL     1       3.999   6.164   2.521  0.00  0.00    +0.009 C 
ATOM     31  C   UNL     1       3.991   4.090   1.129  0.00  0.00    +0.009 C 
ENDBRANCH  19  29
ENDBRANCH  18  19
ENDBRANCH  10  18
TORSDOF 5
