REMARK  Name = ZINC09548769
REMARK  8 active torsions:
REMARK  status: ('A' for Active; 'I' for Inactive)
REMARK    1  A    between atoms: C_1  and  C_2
REMARK    2  A    between atoms: C_2  and  C_3
REMARK    3  A    between atoms: C_2  and  N_56
REMARK    4  A    between atoms: C_4  and  C_5
REMARK    5  A    between atoms: C_4  and  N_56
REMARK    6  A    between atoms: C_8  and  C_10
REMARK    7  A    between atoms: C_17  and  N_18
REMARK    8  A    between atoms: C_17  and  N_56
REMARK                            x       y       z     vdW  Elec       q    Type
REMARK                         _______ _______ _______ _____ _____    ______ ____
ROOT
ATOM      1  N   UNL     1       3.607   0.880   1.672  0.00  0.00    +0.398 N 
ATOM      2  H   UNL     1       3.144   0.317   2.395  0.00  0.00    -0.078 HD
ENDROOT
BRANCH   1   4
ATOM      3  C   UNL     1       4.154   2.416   3.495  0.00  0.00    -0.013 C 
ATOM      4  C   UNL     1       3.584   2.300   2.080  0.00  0.00    -0.072 C 
ATOM      5  C   UNL     1       4.422   3.148   1.121  0.00  0.00    -0.013 C 
ENDBRANCH   1   4
BRANCH   1   6
ATOM      6  C   UNL     1       2.883   0.710   0.394  0.00  0.00    +0.023 C 
BRANCH   6   7
ATOM      7  C   UNL     1       1.418   0.976   0.626  0.00  0.00    +0.202 A 
ATOM      8  N   UNL     1       0.817   2.127   0.509  0.00  0.00    -0.114 NA
ATOM      9  N   UNL     1      -0.433   1.990   0.781  0.00  0.00    -0.107 NA
ATOM     10  C   UNL     1      -0.674   0.736   1.085  0.00  0.00    +0.249 A 
ATOM     11  O   UNL     1       0.495   0.070   0.992  0.00  0.00    -0.422 OA
BRANCH  10  12
ATOM     12  C   UNL     1      -1.983   0.160   1.459  0.00  0.00    +0.052 A 
ATOM     13  C   UNL     1      -2.093  -1.200   1.752  0.00  0.00    +0.014 A 
ATOM     14  C   UNL     1      -3.317  -1.730   2.105  0.00  0.00    +0.001 A 
ATOM     15  C   UNL     1      -4.436  -0.918   2.158  0.00  0.00    +0.001 A 
ATOM     16  C   UNL     1      -4.336   0.429   1.864  0.00  0.00    +0.016 A 
ATOM     17  C   UNL     1      -3.116   0.974   1.514  0.00  0.00    +0.030 A 
ATOM     18 BR   UNL     1      -2.982   2.816   1.111  0.00  0.00    -0.050 Br
ENDBRANCH  10  12
ENDBRANCH   6   7
ENDBRANCH   1   6
BRANCH   1  19
ATOM     19  C   UNL     1       5.004   0.419   1.526  0.00  0.00    +0.044 C 
BRANCH  19  20
ATOM     20  N   UNL     1       5.045  -1.027   1.763  0.00  0.00    -0.241 N 
ATOM     21  C   UNL     1       5.109  -1.954   0.785  0.00  0.00    +0.245 C 
ATOM     22  O   UNL     1       5.141  -1.757  -0.411  0.00  0.00    -0.273 OA
ATOM     23  C   UNL     1       5.132  -3.288   1.494  0.00  0.00    +0.112 C 
ATOM     24  C   UNL     1       6.423  -4.035   1.180  0.00  0.00    +0.035 C 
ATOM     25  C   UNL     1       6.440  -5.370   1.929  0.00  0.00    +0.003 C 
ATOM     26  C   UNL     1       5.231  -6.206   1.504  0.00  0.00    +0.000 C 
ATOM     27  C   UNL     1       3.943  -5.455   1.848  0.00  0.00    +0.003 C 
ATOM     28  C   UNL     1       3.917  -4.120   1.099  0.00  0.00    +0.035 C 
ATOM     29  N   UNL     1       5.073  -2.936   2.918  0.00  0.00    -0.285 N 
ATOM     30  C   UNL     1       5.031  -1.591   2.977  0.00  0.00    +0.308 C 
ATOM     31  O   UNL     1       4.983  -0.961   4.015  0.00  0.00    -0.252 OA
ATOM     32  H   UNL     1       5.070  -3.550   3.669  0.00  0.00    +0.151 HD
ENDBRANCH  19  20
ENDBRANCH   1  19
TORSDOF 6
