REMARK  Name = ZINC39888492
REMARK  9 active torsions:
REMARK  status: ('A' for Active; 'I' for Inactive)
REMARK    1  A    between atoms: C_1  and  C_2
REMARK    2  A    between atoms: C_2  and  C_3
REMARK    3  A    between atoms: C_2  and  C_4
REMARK    4  A    between atoms: C_7  and  C_10
REMARK    5  A    between atoms: C_10  and  C_11
REMARK    6  A    between atoms: N_17  and  N_18
REMARK    7  A    between atoms: C_19  and  C_20
REMARK    8  A    between atoms: C_23  and  C_25
REMARK    9  A    between atoms: C_27  and  C_32
REMARK                            x       y       z     vdW  Elec       q    Type
REMARK                         _______ _______ _______ _____ _____    ______ ____
ROOT
ATOM      1  C   UNL     1       3.766  -0.847  -5.171  0.00  0.00    +0.144 C 
ATOM      2  C   UNL     1       4.523  -1.312  -6.404  0.00  0.00    +0.232 C 
ATOM      3  O   UNL     1       5.191  -2.325  -6.407  0.00  0.00    -0.274 OA
ATOM      4  N   UNL     1       4.408  -0.545  -7.474  0.00  0.00    -0.263 N 
ATOM      5  C   UNL     1       3.651   0.608  -7.480  0.00  0.00    +0.183 C 
ATOM      6  N   UNL     1       3.459   1.450  -8.475  0.00  0.00    -0.127 NA
ATOM      7  S   UNL     1       2.991   0.691  -5.821  0.00  0.00    -0.075 S 
ATOM      8  H   UNL     1       4.873  -0.802  -8.286  0.00  0.00    +0.157 HD
ENDROOT
BRANCH   6   9
ATOM      9  N   UNL     1       4.017   1.236  -9.618  0.00  0.00    -0.152 NA
ATOM     10  C   UNL     1       3.826   2.073 -10.607  0.00  0.00    +0.181 C 
BRANCH  10  11
ATOM     11  C   UNL     1       4.440   1.838 -11.862  0.00  0.00    +0.148 A 
ATOM     12  C   UNL     1       4.328   2.638 -12.981  0.00  0.00    +0.051 A 
ATOM     13  C   UNL     1       5.092   2.034 -13.988  0.00  0.00    +0.050 A 
ATOM     14  C   UNL     1       5.635   0.902 -13.454  0.00  0.00    +0.137 A 
ATOM     15  O   UNL     1       5.239   0.797 -12.171  0.00  0.00    -0.454 OA
BRANCH  14  16
ATOM     16  C   UNL     1       6.514  -0.046 -14.164  0.00  0.00    +0.036 A 
ATOM     17  C   UNL     1       7.720  -0.454 -13.587  0.00  0.00    +0.025 A 
ATOM     18  C   UNL     1       8.536  -1.340 -14.256  0.00  0.00    +0.056 A 
ATOM     19  C   UNL     1       8.165  -1.828 -15.497  0.00  0.00    +0.014 A 
ATOM     20  C   UNL     1       6.973  -1.430 -16.076  0.00  0.00    +0.021 A 
ATOM     21  C   UNL     1       6.143  -0.547 -15.416  0.00  0.00    +0.052 A 
ATOM     22 CL   UNL     1       4.644  -0.054 -16.140  0.00  0.00    -0.083 Cl
BRANCH  18  23
ATOM     23  C   UNL     1       9.837  -1.780 -13.634  0.00  0.00    +0.417 C 
ATOM     24  F   UNL     1       9.620  -2.925 -12.860  0.00  0.00    -0.166 F 
ATOM     25  F   UNL     1      10.762  -2.067 -14.643  0.00  0.00    -0.166 F 
ATOM     26  F   UNL     1      10.335  -0.755 -12.822  0.00  0.00    -0.166 F 
ENDBRANCH  18  23
ENDBRANCH  14  16
ENDBRANCH  10  11
ENDBRANCH   6   9
BRANCH   1  27
ATOM     27  C   UNL     1       2.707  -1.868  -4.752  0.00  0.00    +0.059 C 
BRANCH  27  31
ATOM     28  C   UNL     1       0.707  -0.490  -1.238  0.00  0.00    -0.045 A 
ATOM     29  C   UNL     1       0.222  -0.151  -2.487  0.00  0.00    +0.004 A 
ATOM     30  C   UNL     1       0.869  -0.597  -3.624  0.00  0.00    +0.004 A 
ATOM     31  C   UNL     1       2.002  -1.381  -3.513  0.00  0.00    -0.046 A 
ATOM     32  C   UNL     1       2.488  -1.720  -2.263  0.00  0.00    +0.004 A 
ATOM     33  C   UNL     1       1.843  -1.270  -1.126  0.00  0.00    +0.004 A 
BRANCH  28  35
ATOM     34  C   UNL     1      -0.019   1.526   0.010  0.00  0.00    +0.012 C 
ATOM     35  C   UNL     1       0.002  -0.004   0.002  0.00  0.00    +0.013 C 
ATOM     36  C   UNL     1      -1.433  -0.534   0.013  0.00  0.00    +0.012 C 
ENDBRANCH  28  35
ENDBRANCH  27  31
ENDBRANCH   1  27
TORSDOF 7
