REMARK  Name = ZINC08769448
REMARK  11 active torsions:
REMARK  status: ('A' for Active; 'I' for Inactive)
REMARK    1  A    between atoms: C_1  and  C_2
REMARK    2  A    between atoms: C_2  and  C_3
REMARK    3  A    between atoms: C_3  and  C_4
REMARK    4  A    between atoms: C_4  and  C_5
REMARK    5  A    between atoms: C_11  and  C_15
REMARK    6  A    between atoms: C_15  and  C_16
REMARK    7  A    between atoms: C_16  and  N_17
REMARK    8  A    between atoms: C_18  and  C_19
REMARK    9  A    between atoms: C_18  and  C_35
REMARK   10  A    between atoms: N_25  and  C_28
REMARK   11  A    between atoms: C_31  and  C_34
REMARK                            x       y       z     vdW  Elec       q    Type
REMARK                         _______ _______ _______ _____ _____    ______ ____
ROOT
ATOM      1  N   UNL     1       3.216   5.421   4.815  0.00  0.00    -0.286 NA
ATOM      2  C   UNL     1       2.552   6.516   5.287  0.00  0.00    +0.064 C 
ENDROOT
BRANCH   2   3
ATOM      3  C   UNL     1       3.000   7.800   4.960  0.00  0.00    +0.210 C 
ATOM      4  C   UNL     1       2.218   8.995   5.307  0.00  0.00    +0.238 C 
ATOM      5  O   UNL     1       1.155   8.899   5.892  0.00  0.00    -0.274 OA
ATOM      6  N   UNL     1       2.712  10.203   4.965  0.00  0.00    -0.238 N 
ATOM      7  C   UNL     1       3.879  10.323   4.316  0.00  0.00    +0.319 C 
ATOM      8  O   UNL     1       4.269  11.439   4.032  0.00  0.00    -0.251 OA
ATOM      9  N   UNL     1       4.639   9.276   3.965  0.00  0.00    -0.193 N 
ATOM     10  C   UNL     1       4.269   8.011   4.248  0.00  0.00    +0.245 C 
ATOM     11  O   UNL     1       4.967   7.068   3.924  0.00  0.00    -0.274 OA
ATOM     12  H   UNL     1       2.211  11.002   5.190  0.00  0.00    +0.159 HD
BRANCH   9  13
ATOM     13  C   UNL     1       5.845   9.502   3.288  0.00  0.00    +0.045 A 
ATOM     14  C   UNL     1       7.056   9.260   3.924  0.00  0.00    +0.024 A 
ATOM     15  C   UNL     1       8.243   9.478   3.252  0.00  0.00    +0.005 A 
ATOM     16  C   UNL     1       8.227   9.947   1.952  0.00  0.00    -0.050 A 
ATOM     17  C   UNL     1       7.023  10.194   1.317  0.00  0.00    +0.005 A 
ATOM     18  C   UNL     1       5.833   9.972   1.982  0.00  0.00    +0.024 A 
ATOM     19  C   UNL     1       9.524  10.189   1.224  0.00  0.00    +0.044 C 
ENDBRANCH   9  13
ENDBRANCH   2   3
BRANCH   2  20
ATOM     20  C   UNL     1       1.364   6.346   6.141  0.00  0.00    -0.003 A 
ATOM     21  C   UNL     1       0.294   5.557   5.706  0.00  0.00    +0.011 A 
ATOM     22  C   UNL     1      -0.812   5.398   6.512  0.00  0.00    +0.020 A 
ATOM     23  C   UNL     1      -0.871   6.026   7.746  0.00  0.00    +0.041 A 
ATOM     24  C   UNL     1       0.183   6.814   8.180  0.00  0.00    +0.020 A 
ATOM     25  C   UNL     1       1.298   6.977   7.387  0.00  0.00    +0.011 A 
ATOM     26 CL   UNL     1      -2.271   5.826   8.752  0.00  0.00    -0.084 Cl
ENDBRANCH   2  20
BRANCH   1  27
ATOM     27  C   UNL     1       2.747   4.077   5.157  0.00  0.00    +0.146 C 
BRANCH  27  28
ATOM     28  C   UNL     1       3.588   3.038   4.412  0.00  0.00    +0.060 C 
BRANCH  28  35
ATOM     29  C   UNL     1       0.166   0.310   2.732  0.00  0.00    -0.047 A 
ATOM     30  C   UNL     1       0.082  -0.914   3.382  0.00  0.00    +0.005 A 
ATOM     31  C   UNL     1       0.954  -1.230   4.400  0.00  0.00    +0.026 A 
ATOM     32  C   UNL     1       1.924  -0.312   4.790  0.00  0.00    +0.047 A 
ATOM     33  C   UNL     1       2.002   0.929   4.132  0.00  0.00    +0.003 A 
ATOM     34  C   UNL     1       1.111   1.227   3.099  0.00  0.00    +0.014 A 
ATOM     35  C   UNL     1       3.106   1.654   4.765  0.00  0.00    -0.021 A 
ATOM     36  C   UNL     1       3.606   0.853   5.719  0.00  0.00    +0.087 A 
ATOM     37  N   UNL     1       2.912  -0.326   5.749  0.00  0.00    -0.360 N 
ATOM     38  H   UNL     1       3.090  -1.062   6.355  0.00  0.00    +0.165 HD
BRANCH  29  39
ATOM     39  C   UNL     1      -0.795   0.632   1.617  0.00  0.00    +0.035 C 
BRANCH  39  40
ATOM     40  C   UNL     1      -0.200   0.175   0.283  0.00  0.00    +0.004 C 
BRANCH  40  42
ATOM     41  C   UNL     1      -0.581   0.046  -2.183  0.00  0.00    +0.004 C 
ATOM     42  C   UNL     1      -1.176   0.502  -0.849  0.00  0.00    -0.003 C 
ENDBRANCH  40  42
ENDBRANCH  39  40
ENDBRANCH  29  39
ENDBRANCH  28  35
ENDBRANCH  27  28
ENDBRANCH   1  27
TORSDOF 9
