REMARK  Name = ZINC48548205
REMARK  6 active torsions:
REMARK  status: ('A' for Active; 'I' for Inactive)
REMARK    1  A    between atoms: C_4  and  C_7
REMARK    2  A    between atoms: C_9  and  N_15
REMARK    3  A    between atoms: C_10  and  O_14
REMARK    4  A    between atoms: N_15  and  N_16
REMARK    5  A    between atoms: N_16  and  S_17
REMARK    6  A    between atoms: S_17  and  C_20
REMARK                            x       y       z     vdW  Elec       q    Type
REMARK                         _______ _______ _______ _____ _____    ______ ____
ROOT
ATOM      1  C   UNL     1       3.711  -0.707  -0.038  0.00  0.00    +0.254 C 
ATOM      2  C   UNL     1       4.079  -1.078  -1.455  0.00  0.00    +0.112 C 
ATOM      3  C   UNL     1       4.157  -2.421  -1.496  0.00  0.00    +0.201 C 
ATOM      4  C   UNL     1       3.857  -2.953  -0.167  0.00  0.00    +0.253 C 
ATOM      5  N   UNL     1       3.843  -4.220   0.149  0.00  0.00    -0.264 NA
ATOM      6  O   UNL     1       3.596  -1.936   0.686  0.00  0.00    -0.460 OA
ATOM      7  H   UNL     1       4.042  -4.890  -0.523  0.00  0.00    +0.190 HD
ENDROOT
BRANCH   1  11
ATOM      8  C   UNL     1      -0.017   1.378   0.010  0.00  0.00    +0.000 A 
ATOM      9  C   UNL     1       1.171   2.086   0.002  0.00  0.00    +0.000 A 
ATOM     10  C   UNL     1       2.377   1.411  -0.013  0.00  0.00    +0.007 A 
ATOM     11  C   UNL     1       2.396   0.029  -0.020  0.00  0.00    -0.001 A 
ATOM     12  C   UNL     1       1.208  -0.679  -0.012  0.00  0.00    +0.007 A 
ATOM     13  C   UNL     1       0.002  -0.004   0.002  0.00  0.00    +0.000 A 
ENDBRANCH   1  11
BRANCH   3  14
ATOM     14  O   UNL     1       4.466  -3.164  -2.596  0.00  0.00    -0.501 OA
ATOM     15  H   UNL     1       4.474  -4.118  -2.437  0.00  0.00    +0.292 HD
ENDBRANCH   3  14
BRANCH   2  16
ATOM     16  N   UNL     1       4.294  -0.208  -2.504  0.00  0.00    -0.259 N 
ATOM     17  H   UNL     1       4.212   0.748  -2.366  0.00  0.00    +0.168 HD
BRANCH  16  18
ATOM     18  N   UNL     1       4.630  -0.707  -3.769  0.00  0.00    -0.110 NA
ATOM     19  H   UNL     1       5.395  -1.296  -3.871  0.00  0.00    +0.172 HD
BRANCH  18  20
ATOM     20  S   UNL     1       3.724  -0.291  -5.091  0.00  0.00    +0.073 S 
ATOM     21  O   UNL     1       4.391  -0.826  -6.226  0.00  0.00    -0.152 OA
ATOM     22  O   UNL     1       2.376  -0.614  -4.777  0.00  0.00    -0.152 OA
BRANCH  20  23
ATOM     23  C   UNL     1       3.799   1.463  -5.243  0.00  0.00    +0.107 A 
ATOM     24  C   UNL     1       2.863   2.253  -4.602  0.00  0.00    +0.028 A 
ATOM     25  C   UNL     1       2.922   3.629  -4.722  0.00  0.00    +0.002 A 
ATOM     26  C   UNL     1       3.917   4.215  -5.482  0.00  0.00    +0.000 A 
ATOM     27  C   UNL     1       4.853   3.425  -6.122  0.00  0.00    +0.002 A 
ATOM     28  C   UNL     1       4.797   2.049  -5.999  0.00  0.00    +0.028 A 
ENDBRANCH  20  23
ENDBRANCH  18  20
ENDBRANCH  16  18
ENDBRANCH   2  16
TORSDOF 6
