REMARK  Name = ZINC32889558
REMARK  8 active torsions:
REMARK  status: ('A' for Active; 'I' for Inactive)
REMARK    1  A    between atoms: C_1  and  C_2
REMARK    2  A    between atoms: N_5  and  C_8
REMARK    3  A    between atoms: C_8  and  C_10
REMARK    4  A    between atoms: C_8  and  C_30
REMARK    5  A    between atoms: C_10  and  N_11
REMARK    6  A    between atoms: C_17  and  N_20
REMARK    7  A    between atoms: N_20  and  S_21
REMARK    8  A    between atoms: S_21  and  C_24
REMARK                            x       y       z     vdW  Elec       q    Type
REMARK                         _______ _______ _______ _____ _____    ______ ____
ROOT
ATOM      1  N   UNL     1       2.698   3.585   2.495  0.00  0.00    -0.300 N 
ATOM      2  C   UNL     1       2.537   2.373   3.062  0.00  0.00    +0.302 C 
ATOM      3  O   UNL     1       3.053   2.131   4.137  0.00  0.00    -0.253 OA
ATOM      4  N   UNL     1       1.804   1.429   2.439  0.00  0.00    -0.286 N 
ATOM      5  C   UNL     1       1.706   0.071   2.991  0.00  0.00    +0.111 C 
ATOM      6  C   UNL     1       2.100  -0.933   1.903  0.00  0.00    +0.039 C 
ATOM      7  C   UNL     1       1.240  -0.696   0.660  0.00  0.00    +0.079 C 
ATOM      8  C   UNL     1       1.488   0.717   0.127  0.00  0.00    +0.039 C 
ATOM      9  C   UNL     1       1.087   1.740   1.194  0.00  0.00    +0.111 C 
ATOM     10  H   UNL     1       2.170   3.830   1.562  0.00  0.00    +0.150 HD
ENDROOT
BRANCH   7  11
ATOM     11  N   UNL     1       1.591  -1.676  -0.371  0.00  0.00    -0.187 NA
ATOM     12  H   UNL     1       2.647  -1.891  -0.588  0.00  0.00    +0.148 HD
BRANCH  11  13
ATOM     13  S   UNL     1       0.420  -2.275  -1.377  0.00  0.00    +0.059 S 
ATOM     14  O   UNL     1       1.070  -3.168  -2.270  0.00  0.00    -0.153 OA
ATOM     15  O   UNL     1      -0.661  -2.678  -0.548  0.00  0.00    -0.153 OA
BRANCH  13  16
ATOM     16  C   UNL     1      -0.168  -0.929  -2.351  0.00  0.00    +0.105 A 
ATOM     17  C   UNL     1      -1.234  -0.169  -1.908  0.00  0.00    +0.028 A 
ATOM     18  C   UNL     1      -1.692   0.890  -2.670  0.00  0.00    +0.002 A 
ATOM     19  C   UNL     1      -1.090   1.182  -3.880  0.00  0.00    +0.000 A 
ATOM     20  C   UNL     1      -0.027   0.419  -4.325  0.00  0.00    +0.002 A 
ATOM     21  C   UNL     1       0.434  -0.637  -3.561  0.00  0.00    +0.028 A 
ENDBRANCH  13  16
ENDBRANCH  11  13
ENDBRANCH   7  11
BRANCH   1  22
ATOM     22  C   UNL     1       3.577   4.576   3.122  0.00  0.00    +0.095 C 
BRANCH  22  23
ATOM     23  C   UNL     1       3.583   5.855   2.283  0.00  0.00    -0.013 C 
BRANCH  23  28
ATOM     24  C   UNL     1      -1.537   8.393   2.175  0.00  0.00    +0.007 C 
ATOM     25  C   UNL     1      -0.078   8.055   2.486  0.00  0.00    -0.018 C 
ATOM     26  C   UNL     1       0.736   8.064   1.189  0.00  0.00    -0.015 C 
ATOM     27  C   UNL     1       2.182   7.666   1.496  0.00  0.00    -0.078 C 
ATOM     28  N   UNL     1       2.204   6.328   2.101  0.00  0.00    +0.386 N 
ATOM     29  C   UNL     1       1.469   6.307   3.372  0.00  0.00    -0.078 C 
ATOM     30  C   UNL     1       0.002   6.664   3.120  0.00  0.00    -0.015 C 
ATOM     31  H   UNL     1       1.697   5.639   1.409  0.00  0.00    -0.081 HD
ENDBRANCH  23  28
BRANCH  23  32
ATOM     32  C   UNL     1       4.388   6.915   2.989  0.00  0.00    -0.022 A 
ATOM     33  C   UNL     1       5.662   7.316   2.757  0.00  0.00    +0.009 A 
ATOM     34  C   UNL     1       6.202   8.320   3.539  0.00  0.00    +0.008 A 
ATOM     35  C   UNL     1       5.442   8.874   4.514  0.00  0.00    +0.045 A 
ATOM     36  S   UNL     1       3.909   7.975   4.343  0.00  0.00    -0.103 S 
ENDBRANCH  23  32
ENDBRANCH  22  23
ENDBRANCH   1  22
TORSDOF 7
