REMARK  Name = ZINC63135278
REMARK  11 active torsions:
REMARK  status: ('A' for Active; 'I' for Inactive)
REMARK    1  A    between atoms: C_1  and  C_2
REMARK    2  A    between atoms: C_2  and  C_3
REMARK    3  A    between atoms: C_3  and  C_4
REMARK    4  A    between atoms: C_4  and  C_5
REMARK    5  A    between atoms: C_7  and  C_11
REMARK    6  A    between atoms: C_11  and  C_13
REMARK    7  A    between atoms: C_11  and  S_14
REMARK    8  A    between atoms: S_14  and  C_15
REMARK    9  A    between atoms: C_18  and  C_27
REMARK   10  A    between atoms: N_19  and  C_20
REMARK   11  A    between atoms: C_20  and  C_21
REMARK                            x       y       z     vdW  Elec       q    Type
REMARK                         _______ _______ _______ _____ _____    ______ ____
ROOT
ATOM      1  C   UNL     1      -5.113  -6.171   3.504  0.00  0.00    +0.192 A 
ATOM      2  N   UNL     1      -5.433  -7.077   2.591  0.00  0.00    -0.122 NA
ATOM      3  N   UNL     1      -5.332  -8.259   3.086  0.00  0.00    -0.129 NA
ATOM      4  C   UNL     1      -4.939  -8.182   4.350  0.00  0.00    +0.163 A 
ATOM      5  N   UNL     1      -4.785  -6.839   4.644  0.00  0.00    -0.300 N 
ENDROOT
BRANCH   4   6
ATOM      6  C   UNL     1      -4.717  -9.259   5.222  0.00  0.00    +0.025 C 
ATOM      7  C   UNL     1      -4.757 -10.618   4.911  0.00  0.00    +0.006 A 
ATOM      8  C   UNL     1      -5.012 -11.315   3.710  0.00  0.00    +0.010 A 
ATOM      9  C   UNL     1      -4.984 -12.672   3.700  0.00  0.00    +0.001 A 
ATOM     10  C   UNL     1      -4.706 -13.407   4.854  0.00  0.00    +0.002 A 
ATOM     11  C   UNL     1      -4.452 -12.804   6.042  0.00  0.00    +0.026 A 
ATOM     12  C   UNL     1      -4.463 -11.388   6.131  0.00  0.00    +0.043 A 
ATOM     13  N   UNL     1      -4.251 -10.577   7.149  0.00  0.00    -0.380 N 
ATOM     14  C   UNL     1      -4.378  -9.189   6.695  0.00  0.00    +0.152 C 
ATOM     15  H   UNL     1      -4.040 -10.855   8.054  0.00  0.00    +0.160 HD
ENDBRANCH   4   6
BRANCH   1  16
ATOM     16  S   UNL     1      -5.106  -4.424   3.280  0.00  0.00    -0.078 S 
BRANCH  16  17
ATOM     17  C   UNL     1      -5.636  -4.199   1.560  0.00  0.00    +0.103 C 
ATOM     18  C   UNL     1      -7.078  -4.685   1.403  0.00  0.00    +0.024 C 
BRANCH  17  21
ATOM     19  C   UNL     1      -3.760  -1.818   0.189  0.00  0.00    +0.103 C 
ATOM     20  N   UNL     1      -4.176  -2.231   1.335  0.00  0.00    -0.346 N 
ATOM     21  C   UNL     1      -5.554  -2.716   1.191  0.00  0.00    +0.256 C 
ATOM     22  O   UNL     1      -5.878  -2.528  -0.196  0.00  0.00    -0.247 OA
ATOM     23  N   UNL     1      -4.715  -1.956  -0.776  0.00  0.00    -0.252 N 
ATOM     24  H   UNL     1      -4.615  -1.706  -1.708  0.00  0.00    +0.195 HD
ATOM     25  H   UNL     1      -3.664  -2.222   2.159  0.00  0.00    +0.163 HD
BRANCH  19  26
ATOM     26  C   UNL     1      -2.388  -1.246  -0.056  0.00  0.00    +0.074 C 
BRANCH  26  27
ATOM     27  C   UNL     1      -2.419   0.268   0.162  0.00  0.00    +0.007 C 
BRANCH  27  29
ATOM     28  C   UNL     1      -1.057   2.362   0.132  0.00  0.00    +0.004 C 
ATOM     29  C   UNL     1      -1.026   0.848  -0.087  0.00  0.00    -0.003 C 
ENDBRANCH  27  29
ENDBRANCH  26  27
ENDBRANCH  19  26
ENDBRANCH  17  21
ENDBRANCH  16  17
ENDBRANCH   1  16
BRANCH   5  30
ATOM     30  C   UNL     1      -4.359  -6.256   5.918  0.00  0.00    +0.157 C 
BRANCH  30  31
ATOM     31  C   UNL     1      -2.831  -6.200   5.969  0.00  0.00    +0.138 C 
ATOM     32  C   UNL     1      -2.372  -5.668   7.344  0.00  0.00    +0.035 C 
ATOM     33  C   UNL     1      -1.172  -4.760   6.962  0.00  0.00    +0.031 C 
ATOM     34  C   UNL     1      -1.646  -4.206   5.594  0.00  0.00    +0.160 C 
ATOM     35  O   UNL     1      -2.345  -5.297   4.969  0.00  0.00    -0.375 OA
ENDBRANCH  30  31
ENDBRANCH   5  30
TORSDOF 9
