REMARK  Name = ZINC26599894
REMARK  3 active torsions:
REMARK  status: ('A' for Active; 'I' for Inactive)
REMARK    1  A    between atoms: C_1  and  C_2
REMARK    2  A    between atoms: C_10  and  C_12
REMARK    3  A    between atoms: C_21  and  C_24
REMARK                            x       y       z     vdW  Elec       q    Type
REMARK                         _______ _______ _______ _____ _____    ______ ____
ROOT
ATOM      1  C   UNL     1       3.515   1.016  -0.023  0.00  0.00    +0.069 C 
ATOM      2  C   UNL     1       2.019   0.835  -0.011  0.00  0.00    +0.087 A 
ATOM      3  C   UNL     1       1.323  -0.371  -0.009  0.00  0.00    +0.049 A 
ATOM      4  C   UNL     1       0.002  -0.004   0.002  0.00  0.00    +0.226 A 
ATOM      5  O   UNL     1      -0.016   1.324   0.009  0.00  0.00    -0.339 OA
ATOM      6  N   UNL     1       1.112   1.779   0.001  0.00  0.00    -0.081 NA
ATOM      7  N   UNL     1      -1.002  -0.951   0.001  0.00  0.00    -0.286 N 
ATOM      8  C   UNL     1      -0.678  -2.252  -0.302  0.00  0.00    +0.019 C 
ATOM      9  C   UNL     1       0.597  -2.695  -0.334  0.00  0.00    +0.024 C 
ATOM     10  C   UNL     1       1.774  -1.796  -0.017  0.00  0.00    +0.092 C 
ATOM     11  C   UNL     1       0.890  -4.030  -0.666  0.00  0.00    +0.162 C 
ATOM     12  O   UNL     1       2.048  -4.401  -0.668  0.00  0.00    -0.292 OA
ATOM     13  C   UNL     1      -0.194  -5.010  -1.019  0.00  0.00    +0.088 C 
ATOM     14  C   UNL     1      -1.381  -4.244  -1.613  0.00  0.00    +0.032 C 
ATOM     15  C   UNL     1      -1.827  -3.189  -0.599  0.00  0.00    +0.059 C 
ATOM     16  H   UNL     1      -2.035  -0.657   0.238  0.00  0.00    +0.155 HD
ENDROOT
BRANCH  14  17
ATOM     17  C   UNL     1      -2.516  -5.197  -1.887  0.00  0.00    -0.043 A 
ATOM     18  C   UNL     1      -3.055  -5.943  -0.855  0.00  0.00    +0.005 A 
ATOM     19  C   UNL     1      -4.100  -6.814  -1.105  0.00  0.00    +0.020 A 
ATOM     20  C   UNL     1      -4.598  -6.947  -2.388  0.00  0.00    +0.041 A 
ATOM     21  C   UNL     1      -4.054  -6.204  -3.421  0.00  0.00    +0.020 A 
ATOM     22  C   UNL     1      -3.013  -5.330  -3.170  0.00  0.00    +0.005 A 
ATOM     23 CL   UNL     1      -5.904  -8.045  -2.704  0.00  0.00    -0.084 Cl
ENDBRANCH  14  17
BRANCH  10  24
ATOM     24  C   UNL     1       2.330  -2.155   1.338  0.00  0.00    -0.017 A 
ATOM     25  C   UNL     1       3.642  -2.583   1.467  0.00  0.00    +0.007 A 
ATOM     26  C   UNL     1       4.112  -2.898   2.733  0.00  0.00    +0.020 A 
ATOM     27  C   UNL     1       3.259  -2.785   3.815  0.00  0.00    +0.111 A 
ATOM     28  N   UNL     1       2.014  -2.379   3.654  0.00  0.00    -0.263 NA
ATOM     29  C   UNL     1       1.536  -2.066   2.465  0.00  0.00    +0.115 A 
ENDBRANCH  10  24
TORSDOF 2
