REMARK  Name = ZINC39466955
REMARK  5 active torsions:
REMARK  status: ('A' for Active; 'I' for Inactive)
REMARK    1  A    between atoms: C_4  and  C_7
REMARK    2  A    between atoms: C_7  and  P_8
REMARK    3  A    between atoms: C_17  and  S_26
REMARK    4  A    between atoms: S_26  and  O_29
REMARK    5  A    between atoms: O_29  and  C_30
REMARK                            x       y       z     vdW  Elec       q    Type
REMARK                         _______ _______ _______ _____ _____    ______ ____
ROOT
ATOM      1  P   UNL     1       3.800  -0.882   0.591  0.00  0.00    +0.262 P 
ATOM      2  O   UNL     1       3.990   0.497   1.095  0.00  0.00    -0.274 OA
ATOM      3  N   UNL     1       5.232  -1.703   0.608  0.00  0.00    -0.291 NA
ATOM      4  N   UNL     1       5.184  -3.081   0.586  0.00  0.00    +0.397 N 
ATOM      5  C   UNL     1       6.575  -3.538   0.725  0.00  0.00    -0.046 C 
ATOM      6  C   UNL     1       6.657  -5.058   0.701  0.00  0.00    +0.006 C 
ATOM      7  C   UNL     1       6.132  -5.597  -0.603  0.00  0.00    -0.003 C 
ATOM      8  C   UNL     1       5.702  -6.856  -0.666  0.00  0.00    +0.065 C 
ATOM      9  C   UNL     1       5.760  -7.703   0.539  0.00  0.00    +0.142 C 
ATOM     10  C   UNL     1       5.819  -7.139   1.741  0.00  0.00    +0.009 C 
ATOM     11  C   UNL     1       5.821  -5.634   1.848  0.00  0.00    +0.018 C 
ATOM     12  C   UNL     1       4.388  -5.116   1.714  0.00  0.00    -0.003 C 
ATOM     13  C   UNL     1       4.369  -3.583   1.695  0.00  0.00    -0.020 C 
ATOM     14  C   UNL     1       2.904  -3.152   1.556  0.00  0.00    +0.156 C 
ATOM     15  O   UNL     1       2.819  -1.716   1.586  0.00  0.00    -0.319 OA
ATOM     16 CL   UNL     1       5.079  -7.494  -2.155  0.00  0.00    -0.082 Cl
ATOM     17  H   UNL     1       6.080  -1.232   0.631  0.00  0.00    +0.111 HD
ATOM     18  H   UNL     1       4.795  -3.394  -0.291  0.00  0.00    -0.055 HD
ENDROOT
BRANCH   9  19
ATOM     19  S   UNL     1       5.751  -9.458   0.386  0.00  0.00    +0.152 S 
ATOM     20  O   UNL     1       6.648  -9.779  -0.669  0.00  0.00    -0.131 OA
ATOM     21  O   UNL     1       5.902  -9.981   1.699  0.00  0.00    -0.131 OA
BRANCH  19  22
ATOM     22  O   UNL     1       4.362  -9.862  -0.086  0.00  0.00    -0.342 OA
BRANCH  22  23
ATOM     23  C   UNL     1       3.407  -9.787   0.878  0.00  0.00    +0.157 A 
ATOM     24  C   UNL     1       3.140 -10.889   1.678  0.00  0.00    +0.048 A 
ATOM     25  C   UNL     1       2.169 -10.810   2.658  0.00  0.00    +0.004 A 
ATOM     26  C   UNL     1       1.464  -9.634   2.841  0.00  0.00    +0.000 A 
ATOM     27  C   UNL     1       1.728  -8.536   2.045  0.00  0.00    +0.004 A 
ATOM     28  C   UNL     1       2.702  -8.607   1.068  0.00  0.00    +0.048 A 
ENDBRANCH  22  23
ENDBRANCH  19  22
ENDBRANCH   9  19
BRANCH   1  29
ATOM     29  C   UNL     1       3.110  -0.847  -1.096  0.00  0.00    +0.147 C 
BRANCH  29  33
ATOM     30  C   UNL     1      -0.727   1.028  -1.029  0.00  0.00    +0.000 A 
ATOM     31  C   UNL     1       0.410   1.788  -1.228  0.00  0.00    +0.000 A 
ATOM     32  C   UNL     1       1.652   1.181  -1.250  0.00  0.00    +0.004 A 
ATOM     33  C   UNL     1       1.756  -0.186  -1.071  0.00  0.00    -0.037 A 
ATOM     34  C   UNL     1       0.619  -0.946  -0.871  0.00  0.00    +0.004 A 
ATOM     35  C   UNL     1      -0.623  -0.339  -0.851  0.00  0.00    +0.000 A 
ENDBRANCH  29  33
ENDBRANCH   1  29
TORSDOF 5
