REMARK  Name = ZINC34830899
REMARK  6 active torsions:
REMARK  status: ('A' for Active; 'I' for Inactive)
REMARK    1  A    between atoms: C_7  and  C_11
REMARK    2  A    between atoms: C_11  and  C_12
REMARK    3  A    between atoms: C_12  and  N_13
REMARK    4  A    between atoms: C_14  and  C_16
REMARK    5  A    between atoms: N_23  and  C_26
REMARK    6  A    between atoms: C_26  and  C_27
REMARK                            x       y       z     vdW  Elec       q    Type
REMARK                         _______ _______ _______ _____ _____    ______ ____
ROOT
ATOM      1  C   UNL     1      -2.104  -6.352  -2.609  0.00  0.00    +0.148 A 
ATOM      2  C   UNL     1      -2.709  -6.942  -3.742  0.00  0.00    +0.067 A 
ATOM      3  C   UNL     1      -3.457  -7.958  -3.255  0.00  0.00    +0.124 A 
ATOM      4  N   UNL     1      -3.300  -7.967  -1.884  0.00  0.00    -0.257 N 
ATOM      5  N   UNL     1      -2.507  -7.028  -1.545  0.00  0.00    -0.166 NA
ATOM      6  C   UNL     1      -3.990  -8.960  -1.051  0.00  0.00    +0.163 C 
ATOM      7  C   UNL     1      -5.309  -9.347  -1.717  0.00  0.00    +0.132 C 
ATOM      8  N   UNL     1      -5.157  -9.653  -3.134  0.00  0.00    -0.290 N 
ATOM      9  C   UNL     1      -4.319  -8.943  -3.930  0.00  0.00    +0.265 C 
ATOM     10  O   UNL     1      -4.282  -9.111  -5.134  0.00  0.00    -0.268 OA
ENDROOT
BRANCH   1  12
ATOM     11  N   UNL     1      -0.675  -4.736  -1.452  0.00  0.00    -0.310 N 
ATOM     12  C   UNL     1      -1.186  -5.195  -2.612  0.00  0.00    +0.264 C 
ATOM     13  O   UNL     1      -0.890  -4.656  -3.661  0.00  0.00    -0.268 OA
ATOM     14  H   UNL     1      -0.911  -5.166  -0.615  0.00  0.00    +0.149 HD
BRANCH  11  15
ATOM     15  C   UNL     1       0.236  -3.589  -1.455  0.00  0.00    +0.109 C 
BRANCH  15  16
ATOM     16  C   UNL     1       0.666  -3.275  -0.021  0.00  0.00    +0.056 C 
BRANCH  16  23
ATOM     17  C   UNL     1      -0.017   1.362   0.009  0.00  0.00    +0.001 A 
ATOM     18  C   UNL     1       1.170   2.083   0.002  0.00  0.00    +0.002 A 
ATOM     19  C   UNL     1       2.386   1.436  -0.013  0.00  0.00    +0.026 A 
ATOM     20  C   UNL     1       2.428   0.046  -0.021  0.00  0.00    +0.047 A 
ATOM     21  C   UNL     1       1.223  -0.681  -0.013  0.00  0.00    +0.003 A 
ATOM     22  C   UNL     1       0.002  -0.004   0.002  0.00  0.00    +0.010 A 
ATOM     23  C   UNL     1       1.604  -2.095  -0.025  0.00  0.00    -0.021 A 
ATOM     24  C   UNL     1       2.945  -2.141  -0.038  0.00  0.00    +0.087 A 
ATOM     25  N   UNL     1       3.455  -0.871  -0.036  0.00  0.00    -0.360 N 
ATOM     26  H   UNL     1       4.399  -0.650  -0.044  0.00  0.00    +0.165 HD
ENDBRANCH  16  23
ENDBRANCH  15  16
ENDBRANCH  11  15
ENDBRANCH   1  12
BRANCH   8  27
ATOM     27  C   UNL     1      -5.927 -10.756  -3.713  0.00  0.00    +0.143 C 
BRANCH  27  28
ATOM     28  C   UNL     1      -7.247 -10.235  -4.219  0.00  0.00    -0.029 A 
ATOM     29  C   UNL     1      -8.346 -10.206  -3.381  0.00  0.00    +0.007 A 
ATOM     30  C   UNL     1      -9.558  -9.728  -3.844  0.00  0.00    +0.022 A 
ATOM     31  C   UNL     1      -9.671  -9.279  -5.147  0.00  0.00    +0.059 A 
ATOM     32  C   UNL     1      -8.571  -9.308  -5.987  0.00  0.00    +0.060 A 
ATOM     33  C   UNL     1      -7.358  -9.781  -5.520  0.00  0.00    +0.026 A 
ATOM     34 CL   UNL     1      -8.712  -8.745  -7.623  0.00  0.00    -0.082 Cl
ATOM     35 CL   UNL     1     -11.193  -8.680  -5.730  0.00  0.00    -0.082 Cl
ENDBRANCH  27  28
ENDBRANCH   8  27
TORSDOF 6
