REMARK  Name = ZINC15278214
REMARK  8 active torsions:
REMARK  status: ('A' for Active; 'I' for Inactive)
REMARK    1  A    between atoms: C_1  and  C_2
REMARK    2  A    between atoms: C_2  and  C_3
REMARK    3  A    between atoms: C_6  and  C_9
REMARK    4  A    between atoms: C_15  and  C_17
REMARK    5  A    between atoms: C_17  and  S_18
REMARK    6  A    between atoms: S_18  and  C_19
REMARK    7  A    between atoms: C_22  and  C_25
REMARK    8  A    between atoms: N_23  and  C_24
REMARK                            x       y       z     vdW  Elec       q    Type
REMARK                         _______ _______ _______ _____ _____    ______ ____
ROOT
ATOM      1  C   UNL     1       0.311  -4.800   0.035  0.00  0.00    +0.173 C 
ENDROOT
BRANCH   1   8
ATOM      2  C   UNL     1       0.813 -10.838   0.105  0.00  0.00    +0.080 A 
ATOM      3  C   UNL     1       2.135 -10.774   0.448  0.00  0.00    +0.076 A 
ATOM      4  S   UNL     1       2.371  -9.003   0.527  0.00  0.00    -0.060 S 
ATOM      5  C   UNL     1       0.700  -8.536   0.099  0.00  0.00    +0.165 A 
ATOM      6  N   UNL     1       0.128  -9.716  -0.054  0.00  0.00    -0.225 NA
ATOM      7  N   UNL     1       0.147  -7.268  -0.031  0.00  0.00    -0.264 N 
ATOM      8  C   UNL     1       0.910  -6.176   0.176  0.00  0.00    +0.229 C 
ATOM      9  O   UNL     1       2.079  -6.301   0.477  0.00  0.00    -0.275 OA
ATOM     10  H   UNL     1      -0.787  -7.168  -0.271  0.00  0.00    +0.157 HD
BRANCH   2  14
ATOM     11  C   UNL     1      -1.087 -14.605  -0.422  0.00  0.00    -0.048 A 
ATOM     12  C   UNL     1      -1.810 -13.438  -0.598  0.00  0.00    +0.004 A 
ATOM     13  C   UNL     1      -1.198 -12.213  -0.428  0.00  0.00    +0.010 A 
ATOM     14  C   UNL     1       0.150 -12.152  -0.079  0.00  0.00    +0.001 A 
ATOM     15  C   UNL     1       0.874 -13.331   0.091  0.00  0.00    +0.010 A 
ATOM     16  C   UNL     1       0.251 -14.551  -0.076  0.00  0.00    +0.004 A 
BRANCH  11  18
ATOM     17  C   UNL     1      -1.627 -16.378  -2.070  0.00  0.00    +0.009 C 
ATOM     18  C   UNL     1      -1.760 -15.940  -0.610  0.00  0.00    +0.032 C 
ENDBRANCH  11  18
ENDBRANCH   2  14
ENDBRANCH   1   8
BRANCH   1  19
ATOM     19  S   UNL     1       1.578  -3.553   0.374  0.00  0.00    -0.077 S 
BRANCH  19  20
ATOM     20  C   UNL     1       0.632  -2.085   0.144  0.00  0.00    +0.192 A 
ATOM     21  N   UNL     1      -0.638  -2.018  -0.182  0.00  0.00    -0.122 NA
ATOM     22  N   UNL     1      -1.004  -0.788  -0.265  0.00  0.00    -0.130 NA
ATOM     23  C   UNL     1       0.002  -0.004   0.002  0.00  0.00    +0.178 A 
ATOM     24  N   UNL     1       1.081  -0.801   0.267  0.00  0.00    -0.306 N 
ATOM     25  C   UNL     1       2.437  -0.368   0.614  0.00  0.00    +0.153 C 
BRANCH  23  26
ATOM     26  C   UNL     1      -0.018   1.503   0.010  0.00  0.00    +0.278 C 
ATOM     27  C   UNL     1      -0.749   2.004   1.264  0.00  0.00    +0.281 C 
ATOM     28  O   UNL     1      -0.761   3.435   1.233  0.00  0.00    -0.484 OA
ATOM     29  C   UNL     1      -1.110   4.018   0.054  0.00  0.00    +0.162 A 
ATOM     30  C   UNL     1      -1.491   5.352   0.040  0.00  0.00    +0.049 A 
ATOM     31  C   UNL     1      -1.845   5.959  -1.150  0.00  0.00    +0.004 A 
ATOM     32  C   UNL     1      -1.820   5.239  -2.330  0.00  0.00    +0.004 A 
ATOM     33  C   UNL     1      -1.441   3.910  -2.324  0.00  0.00    +0.049 A 
ATOM     34  C   UNL     1      -1.086   3.294  -1.132  0.00  0.00    +0.163 A 
ATOM     35  O   UNL     1      -0.722   1.982  -1.141  0.00  0.00    -0.474 OA
ENDBRANCH  23  26
ENDBRANCH  19  20
ENDBRANCH   1  19
TORSDOF 6
