REMARK  Name = ZINC01813923
REMARK  11 active torsions:
REMARK  status: ('A' for Active; 'I' for Inactive)
REMARK    1  A    between atoms: C_1  and  C_2
REMARK    2  A    between atoms: C_6  and  N_8
REMARK    3  A    between atoms: C_17  and  S_18
REMARK    4  A    between atoms: S_18  and  C_19
REMARK    5  A    between atoms: C_19  and  C_20
REMARK    6  A    between atoms: C_20  and  C_21
REMARK    7  A    between atoms: C_21  and  C_22
REMARK    8  A    between atoms: C_22  and  N_23
REMARK    9  A    between atoms: C_36  and  C_39
REMARK   10  A    between atoms: C_39  and  C_40
REMARK   11  A    between atoms: C_39  and  C_41
REMARK                            x       y       z     vdW  Elec       q    Type
REMARK                         _______ _______ _______ _____ _____    ______ ____
ROOT
ATOM      1  N   UNL     1       0.053  -2.798   2.394  0.00  0.00    -0.255 N 
ATOM      2  C   UNL     1      -0.026  -4.141   2.372  0.00  0.00    +0.268 A 
ATOM      3  O   UNL     1      -0.110  -4.738   1.313  0.00  0.00    -0.267 OA
ATOM      4  C   UNL     1      -0.009  -4.860   3.609  0.00  0.00    +0.076 A 
ATOM      5  C   UNL     1      -0.081  -6.304   3.822  0.00  0.00    -0.018 A 
ATOM      6  C   UNL     1      -0.047  -6.740   5.100  0.00  0.00    +0.021 A 
ATOM      7  S   UNL     1       0.082  -5.273   6.082  0.00  0.00    -0.071 S 
ATOM      8  C   UNL     1       0.090  -4.075   4.772  0.00  0.00    +0.117 A 
ATOM      9  N   UNL     1       0.165  -2.751   4.726  0.00  0.00    -0.216 NA
ATOM     10  C   UNL     1       0.153  -2.113   3.573  0.00  0.00    +0.177 A 
ATOM     11  C   UNL     1      -0.104  -8.166   5.552  0.00  0.00    +0.203 C 
ATOM     12  O   UNL     1       0.118  -9.002   4.404  0.00  0.00    -0.371 OA
ATOM     13  C   UNL     1      -0.681  -8.642   3.274  0.00  0.00    +0.126 C 
ATOM     14  C   UNL     1      -0.193  -7.316   2.684  0.00  0.00    +0.068 C 
ENDROOT
BRANCH   1  20
ATOM     15  C   UNL     1      -2.490  -0.509  -1.138  0.00  0.00    +0.044 C 
ATOM     16  C   UNL     1      -1.182  -0.968  -0.548  0.00  0.00    -0.048 A 
ATOM     17  C   UNL     1       0.006  -0.688  -1.200  0.00  0.00    +0.003 A 
ATOM     18  C   UNL     1       1.208  -1.107  -0.662  0.00  0.00    +0.002 A 
ATOM     19  C   UNL     1       1.227  -1.807   0.529  0.00  0.00    +0.026 A 
ATOM     20  C   UNL     1       0.037  -2.089   1.186  0.00  0.00    +0.052 A 
ATOM     21  C   UNL     1      -1.169  -1.662   0.645  0.00  0.00    +0.029 A 
ENDBRANCH   1  20
BRANCH  13  22
ATOM     22  C   UNL     1      -0.576  -9.736   2.210  0.00  0.00    +0.012 C 
ATOM     23  C   UNL     1      -1.077 -11.061   2.789  0.00  0.00    +0.010 C 
ATOM     24  C   UNL     1      -1.430  -9.354   0.999  0.00  0.00    +0.010 C 
ENDBRANCH  13  22
BRANCH  10  25
ATOM     25  S   UNL     1       0.261  -0.354   3.550  0.00  0.00    -0.087 S 
BRANCH  25  26
ATOM     26  C   UNL     1       0.376   0.101   5.302  0.00  0.00    +0.077 C 
BRANCH  26  27
ATOM     27  C   UNL     1       0.477   1.622   5.428  0.00  0.00    +0.013 C 
BRANCH  27  28
ATOM     28  C   UNL     1       0.573   2.006   6.906  0.00  0.00    +0.020 C 
BRANCH  28  29
ATOM     29  C   UNL     1       0.674   3.528   7.032  0.00  0.00    +0.117 C 
BRANCH  29  30
ATOM     30  N   UNL     1       0.766   3.896   8.447  0.00  0.00    -0.234 N 
ATOM     31  C   UNL     1      -0.292   4.150   9.238  0.00  0.00    +0.254 C 
ATOM     32  O   UNL     1      -1.457   4.112   8.898  0.00  0.00    -0.270 OA
ATOM     33  C   UNL     1       0.201   4.483  10.592  0.00  0.00    +0.049 A 
ATOM     34  C   UNL     1      -0.410   4.823  11.787  0.00  0.00    +0.014 A 
ATOM     35  C   UNL     1       0.365   5.082  12.906  0.00  0.00    +0.001 A 
ATOM     36  C   UNL     1       1.744   5.003  12.837  0.00  0.00    +0.001 A 
ATOM     37  C   UNL     1       2.369   4.664  11.648  0.00  0.00    +0.014 A 
ATOM     38  C   UNL     1       1.606   4.402  10.521  0.00  0.00    +0.049 A 
ATOM     39  C   UNL     1       1.920   4.018   9.128  0.00  0.00    +0.254 C 
ATOM     40  O   UNL     1       3.033   3.844   8.675  0.00  0.00    -0.270 OA
ENDBRANCH  29  30
ENDBRANCH  28  29
ENDBRANCH  27  28
ENDBRANCH  26  27
ENDBRANCH  25  26
ENDBRANCH  10  25
TORSDOF 8
