REMARK  Name = ZINC12489304
REMARK  12 active torsions:
REMARK  status: ('A' for Active; 'I' for Inactive)
REMARK    1  A    between atoms: C_1  and  C_2
REMARK    2  A    between atoms: C_4  and  C_39
REMARK    3  A    between atoms: C_5  and  N_9
REMARK    4  A    between atoms: C_6  and  C_8
REMARK    5  A    between atoms: N_9  and  C_10
REMARK    6  A    between atoms: C_10  and  C_12
REMARK    7  A    between atoms: C_10  and  C_18
REMARK    8  A    between atoms: N_20  and  C_21
REMARK    9  A    between atoms: C_21  and  C_22
REMARK   10  A    between atoms: C_28  and  C_30
REMARK   11  A    between atoms: C_30  and  N_31
REMARK   12  A    between atoms: C_32  and  C_34
REMARK                            x       y       z     vdW  Elec       q    Type
REMARK                         _______ _______ _______ _____ _____    ______ ____
ROOT
ATOM      1  N   UNL     1      -0.484   0.957   2.392  0.00  0.00    -0.254 N 
ATOM      2  C   UNL     1      -0.939   1.552   1.272  0.00  0.00    +0.238 C 
ATOM      3  O   UNL     1      -1.789   2.414   1.345  0.00  0.00    -0.274 OA
ENDROOT
BRANCH   1   8
ATOM      4  C   UNL     1       3.490  -3.077   2.049  0.00  0.00    +0.044 C 
ATOM      5  C   UNL     1       2.434  -2.005   2.141  0.00  0.00    -0.050 A 
ATOM      6  C   UNL     1       2.802  -0.672   2.134  0.00  0.00    +0.008 A 
ATOM      7  C   UNL     1       1.837   0.312   2.217  0.00  0.00    -0.029 A 
ATOM      8  C   UNL     1       0.496  -0.038   2.308  0.00  0.00    +0.043 A 
ATOM      9  C   UNL     1       0.130  -1.377   2.320  0.00  0.00    -0.029 A 
ATOM     10  C   UNL     1       1.100  -2.357   2.231  0.00  0.00    +0.008 A 
ATOM     11  C   UNL     1      -1.323  -1.762   2.425  0.00  0.00    +0.046 C 
ATOM     12  C   UNL     1       2.238   1.765   2.209  0.00  0.00    +0.046 C 
ENDBRANCH   1   8
BRANCH   1  13
ATOM     13  C   UNL     1      -1.016   1.353   3.699  0.00  0.00    +0.197 C 
BRANCH  13  14
ATOM     14  C   UNL     1      -0.423   0.473   4.770  0.00  0.00    -0.018 A 
ATOM     15  C   UNL     1       0.944   0.461   4.975  0.00  0.00    +0.006 A 
ATOM     16  C   UNL     1       1.488  -0.341   5.960  0.00  0.00    +0.000 A 
ATOM     17  C   UNL     1       0.666  -1.140   6.733  0.00  0.00    +0.000 A 
ATOM     18  C   UNL     1      -0.701  -1.132   6.524  0.00  0.00    +0.000 A 
ATOM     19  C   UNL     1      -1.245  -0.325   5.543  0.00  0.00    +0.006 A 
ENDBRANCH  13  14
BRANCH  13  20
ATOM     20  C   UNL     1      -0.657   2.790   3.973  0.00  0.00    +0.239 C 
ATOM     21  O   UNL     1       0.093   3.381   3.225  0.00  0.00    -0.273 OA
ATOM     22  N   UNL     1      -1.169   3.419   5.050  0.00  0.00    -0.311 N 
ATOM     23  H   UNL     1      -1.768   2.946   5.648  0.00  0.00    +0.149 HD
BRANCH  22  24
ATOM     24  C   UNL     1      -0.820   4.816   5.317  0.00  0.00    +0.135 C 
BRANCH  24  25
ATOM     25  C   UNL     1      -1.530   5.286   6.588  0.00  0.00    +0.135 C 
ATOM     26  C   UNL     1      -1.169   6.756   6.878  0.00  0.00    +0.035 C 
ATOM     27  C   UNL     1      -2.533   7.486   6.888  0.00  0.00    +0.031 C 
ATOM     28  C   UNL     1      -3.523   6.322   7.148  0.00  0.00    +0.160 C 
ATOM     29  O   UNL     1      -2.954   5.223   6.405  0.00  0.00    -0.375 OA
ENDBRANCH  24  25
ENDBRANCH  22  24
ENDBRANCH  13  20
ENDBRANCH   1  13
BRANCH   2  30
ATOM     30  C   UNL     1      -0.392   1.145  -0.072  0.00  0.00    +0.201 C 
BRANCH  30  31
ATOM     31  N   UNL     1      -1.043   1.933  -1.123  0.00  0.00    -0.302 N 
ATOM     32  C   UNL     1      -0.710   1.739  -2.414  0.00  0.00    +0.251 C 
ATOM     33  O   UNL     1       0.132   0.910  -2.708  0.00  0.00    -0.270 OA
ATOM     34  H   UNL     1      -1.714   2.593  -0.889  0.00  0.00    +0.150 HD
BRANCH  32  35
ATOM     35  C   UNL     1      -1.361   2.526  -3.465  0.00  0.00    +0.074 A 
ATOM     36  C   UNL     1      -1.165   2.483  -4.837  0.00  0.00    +0.021 A 
ATOM     37  C   UNL     1      -1.917   3.340  -5.602  0.00  0.00    +0.008 A 
ATOM     38  C   UNL     1      -2.799   4.174  -4.992  0.00  0.00    +0.046 A 
ATOM     39  S   UNL     1      -2.616   3.785  -3.313  0.00  0.00    -0.092 S 
ENDBRANCH  32  35
ENDBRANCH  30  31
ENDBRANCH   2  30
TORSDOF 9
