REMARK  Name = ZINC21664221
REMARK  7 active torsions:
REMARK  status: ('A' for Active; 'I' for Inactive)
REMARK    1  A    between atoms: C_1  and  N_2
REMARK    2  A    between atoms: N_2  and  C_3
REMARK    3  A    between atoms: N_2  and  C_29
REMARK    4  A    between atoms: C_3  and  C_4
REMARK    5  A    between atoms: C_4  and  C_5
REMARK    6  A    between atoms: C_5  and  N_6
REMARK    7  A    between atoms: C_7  and  C_9
REMARK                            x       y       z     vdW  Elec       q    Type
REMARK                         _______ _______ _______ _____ _____    ______ ____
ROOT
ATOM      1  C   UNL     1      -2.478   7.545  -0.077  0.00  0.00    +0.078 C 
ATOM      2  C   UNL     1      -1.827   7.095   1.234  0.00  0.00    +0.032 C 
ATOM      3  C   UNL     1      -1.551   5.591   1.170  0.00  0.00    +0.108 C 
ATOM      4  N   UNL     1      -0.662   5.303   0.036  0.00  0.00    -0.308 N 
ATOM      5  C   UNL     1      -1.286   5.684  -1.237  0.00  0.00    +0.108 C 
ATOM      6  C   UNL     1      -1.554   7.190  -1.245  0.00  0.00    +0.032 C 
ATOM      7  C   UNL     1      -0.288   3.970   0.026  0.00  0.00    +0.184 A 
ATOM      8  N   UNL     1       0.912   3.455   0.012  0.00  0.00    -0.139 NA
ATOM      9  N   UNL     1       1.110   2.077   0.003  0.00  0.00    -0.169 N 
ATOM     10  C   UNL     1       2.302   1.414  -0.013  0.00  0.00    +0.279 A 
ATOM     11  O   UNL     1       3.348   2.045  -0.018  0.00  0.00    -0.265 OA
ATOM     12  C   UNL     1       2.332   0.013  -0.025  0.00  0.00    +0.040 A 
ATOM     13  C   UNL     1       1.151  -0.685  -0.015  0.00  0.00    +0.053 A 
ATOM     14  N   UNL     1       0.002  -0.004   0.002  0.00  0.00    -0.226 NA
ATOM     15  C   UNL     1      -0.016   1.303   0.009  0.00  0.00    +0.201 A 
ATOM     16  S   UNL     1      -1.319   2.513   0.035  0.00  0.00    -0.013 S 
ATOM     17  C   UNL     1       1.090  -2.188  -0.017  0.00  0.00    +0.056 C 
ATOM     18  C   UNL     1       2.427  -2.777  -0.462  0.00  0.00    +0.006 C 
ATOM     19  C   UNL     1       3.541  -2.131   0.370  0.00  0.00    +0.005 C 
ATOM     20  C   UNL     1       3.674  -0.669  -0.052  0.00  0.00    +0.042 C 
ENDROOT
BRANCH   1  22
ATOM     21  N   UNL     1      -3.263   9.658  -1.097  0.00  0.00    -0.315 N 
ATOM     22  C   UNL     1      -2.699   9.036  -0.043  0.00  0.00    +0.216 C 
ATOM     23  O   UNL     1      -2.368   9.676   0.933  0.00  0.00    -0.276 OA
ATOM     24  H   UNL     1      -3.563   9.077  -1.982  0.00  0.00    +0.149 HD
BRANCH  21  25
ATOM     25  C   UNL     1      -3.478  11.106  -1.064  0.00  0.00    +0.102 C 
BRANCH  25  26
ATOM     26  C   UNL     1      -4.128  11.556  -2.374  0.00  0.00    +0.000 C 
BRANCH  26  27
ATOM     27  C   UNL     1      -4.353  13.069  -2.340  0.00  0.00    -0.077 C 
BRANCH  27  29
ATOM     28  C   UNL     1      -4.064  13.308  -4.732  0.00  0.00    -0.096 C 
ATOM     29  N   UNL     1      -4.977  13.500  -3.597  0.00  0.00    +0.380 N 
ATOM     30  H   UNL     1      -5.864  12.872  -3.767  0.00  0.00    -0.082 HD
BRANCH  29  31
ATOM     31  C   UNL     1      -5.423  14.897  -3.512  0.00  0.00    -0.069 C 
ATOM     32  C   UNL     1      -6.446  15.037  -2.383  0.00  0.00    -0.015 C 
ATOM     33  C   UNL     1      -6.911  16.492  -2.293  0.00  0.00    -0.002 C 
ATOM     34  C   UNL     1      -7.555  16.904  -3.619  0.00  0.00    -0.000 C 
ATOM     35  C   UNL     1      -6.532  16.764  -4.748  0.00  0.00    -0.002 C 
ATOM     36  C   UNL     1      -6.067  15.309  -4.837  0.00  0.00    -0.015 C 
ENDBRANCH  29  31
ENDBRANCH  27  29
ENDBRANCH  26  27
ENDBRANCH  25  26
ENDBRANCH  21  25
ENDBRANCH   1  22
TORSDOF 6
