REMARK  Name = ZINC39225660
REMARK  11 active torsions:
REMARK  status: ('A' for Active; 'I' for Inactive)
REMARK    1  A    between atoms: C_1  and  C_2
REMARK    2  A    between atoms: C_2  and  N_3
REMARK    3  A    between atoms: C_7  and  C_9
REMARK    4  A    between atoms: C_9  and  N_10
REMARK    5  A    between atoms: C_11  and  C_13
REMARK    6  A    between atoms: C_13  and  C_15
REMARK    7  A    between atoms: C_13  and  N_19
REMARK    8  A    between atoms: C_15  and  C_16
REMARK    9  A    between atoms: C_16  and  C_17
REMARK   10  A    between atoms: C_16  and  C_18
REMARK   11  A    between atoms: C_29  and  C_31
REMARK                            x       y       z     vdW  Elec       q    Type
REMARK                         _______ _______ _______ _____ _____    ______ ____
ROOT
ATOM      1  C   UNL     1      -1.396  -1.401   4.916  0.00  0.00    +0.162 C 
ENDROOT
BRANCH   1   2
ATOM      2  N   UNL     1      -2.254  -1.876   6.004  0.00  0.00    -0.288 N 
ATOM      3  C   UNL     1      -2.232  -3.243   6.541  0.00  0.00    +0.111 C 
ATOM      4  C   UNL     1      -2.951  -3.162   7.907  0.00  0.00    +0.054 C 
ATOM      5  C   UNL     1      -3.845  -1.925   7.713  0.00  0.00    +0.115 C 
ATOM      6  C   UNL     1      -3.162  -1.115   6.645  0.00  0.00    +0.240 C 
ATOM      7  O   UNL     1      -3.395   0.049   6.396  0.00  0.00    -0.273 OA
ATOM      8  C   UNL     1      -3.945  -1.128   9.023  0.00  0.00    +0.037 C 
ATOM      9  C   UNL     1      -5.416  -0.631   9.009  0.00  0.00    +0.022 C 
ATOM     10  C   UNL     1      -6.144  -1.822   8.336  0.00  0.00    +0.109 C 
ATOM     11  N   UNL     1      -5.197  -2.315   7.315  0.00  0.00    -0.283 N 
ATOM     12  C   UNL     1      -5.524  -3.006   6.205  0.00  0.00    +0.255 C 
ATOM     13  O   UNL     1      -4.650  -3.424   5.469  0.00  0.00    -0.269 OA
BRANCH  12  14
ATOM     14  C   UNL     1      -6.931  -3.256   5.886  0.00  0.00    +0.092 A 
ATOM     15  C   UNL     1      -7.476  -3.942   4.809  0.00  0.00    +0.060 A 
ATOM     16  C   UNL     1      -8.849  -4.011   4.779  0.00  0.00    +0.028 A 
ATOM     17  C   UNL     1      -9.561  -3.423   5.772  0.00  0.00    +0.047 A 
ATOM     18  S   UNL     1      -8.392  -2.763   6.782  0.00  0.00    -0.091 S 
ATOM     19 CL   UNL     1      -6.487  -4.666   3.580  0.00  0.00    -0.082 Cl
ENDBRANCH  12  14
ENDBRANCH   1   2
BRANCH   1  21
ATOM     20  N   UNL     1      -1.114  -1.819   2.495  0.00  0.00    -0.315 N 
ATOM     21  C   UNL     1      -1.774  -2.100   3.636  0.00  0.00    +0.234 C 
ATOM     22  O   UNL     1      -2.672  -2.915   3.632  0.00  0.00    -0.274 OA
ATOM     23  H   UNL     1      -0.396  -1.167   2.497  0.00  0.00    +0.149 HD
BRANCH  20  24
ATOM     24  C   UNL     1      -1.482  -2.499   1.250  0.00  0.00    +0.089 C 
BRANCH  24  29
ATOM     25  N   UNL     1      -0.662  -0.533   0.020  0.00  0.00    +0.382 N 
ATOM     26  C   UNL     1      -1.202  -0.174  -1.309  0.00  0.00    -0.078 C 
ATOM     27  C   UNL     1      -0.870  -1.389  -2.212  0.00  0.00    -0.020 C 
ATOM     28  C   UNL     1      -1.079  -2.574  -1.232  0.00  0.00    -0.016 C 
ATOM     29  C   UNL     1      -0.585  -2.003   0.114  0.00  0.00    -0.051 C 
ATOM     30  H   UNL     1      -1.274  -0.179   0.739  0.00  0.00    -0.081 HD
BRANCH  25  32
ATOM     31  C   UNL     1       0.578   1.570   0.207  0.00  0.00    -0.017 C 
ATOM     32  C   UNL     1       0.679   0.044   0.181  0.00  0.00    -0.082 C 
ENDBRANCH  25  32
ENDBRANCH  24  29
ENDBRANCH  20  24
ENDBRANCH   1  21
BRANCH   1  33
ATOM     33  C   UNL     1       0.066  -1.703   5.250  0.00  0.00    +0.035 C 
BRANCH  33  34
ATOM     34  C   UNL     1       0.505  -0.846   6.439  0.00  0.00    -0.015 C 
ATOM     35  C   UNL     1      -0.238  -1.299   7.697  0.00  0.00    +0.007 C 
ATOM     36  C   UNL     1       2.012  -1.004   6.652  0.00  0.00    +0.007 C 
ENDBRANCH  33  34
ENDBRANCH   1  33
TORSDOF 8
