REMARK  Name = ZINC13064588
REMARK  11 active torsions:
REMARK  status: ('A' for Active; 'I' for Inactive)
REMARK    1  A    between atoms: C_1  and  C_2
REMARK    2  A    between atoms: C_2  and  C_3
REMARK    3  A    between atoms: C_3  and  C_5
REMARK    4  A    between atoms: C_3  and  N_72
REMARK    5  A    between atoms: N_9  and  C_10
REMARK    6  A    between atoms: C_15  and  C_16
REMARK    7  A    between atoms: C_15  and  N_72
REMARK    8  A    between atoms: C_25  and  C_26
REMARK    9  A    between atoms: C_25  and  N_72
REMARK   10  A    between atoms: C_30  and  C_39
REMARK   11  A    between atoms: C_31  and  C_38
REMARK                            x       y       z     vdW  Elec       q    Type
REMARK                         _______ _______ _______ _____ _____    ______ ____
ROOT
ATOM      1  N   UNL     1      -5.236   3.792  -0.914  0.00  0.00    +0.392 N 
ATOM      2  H   UNL     1      -5.019   2.938  -1.441  0.00  0.00    -0.080 HD
ENDROOT
BRANCH   1   3
ATOM      3  C   UNL     1      -6.664   4.123  -1.101  0.00  0.00    +0.003 C 
BRANCH   3   4
ATOM      4  C   UNL     1      -7.067   5.257  -0.195  0.00  0.00    +0.138 A 
ATOM      5  N   UNL     1      -6.714   5.422   1.057  0.00  0.00    -0.115 NA
ATOM      6  N   UNL     1      -7.259   6.509   1.484  0.00  0.00    -0.023 NA
ATOM      7  N   UNL     1      -7.957   7.037   0.540  0.00  0.00    -0.044 NA
ATOM      8  N   UNL     1      -7.864   6.295  -0.511  0.00  0.00    -0.228 N 
BRANCH   8   9
ATOM      9  C   UNL     1      -8.505   6.536  -1.806  0.00  0.00    +0.111 C 
ATOM     10  C   UNL     1      -8.073   7.909  -2.362  0.00  0.00    +0.027 C 
ATOM     11  C   UNL     1      -9.349   8.459  -3.048  0.00  0.00    +0.002 C 
ATOM     12  C   UNL     1     -10.477   7.995  -2.094  0.00  0.00    +0.002 C 
ATOM     13  C   UNL     1     -10.033   6.591  -1.636  0.00  0.00    +0.027 C 
ENDBRANCH   8   9
ENDBRANCH   3   4
BRANCH   3  15
ATOM     14  C   UNL     1      -7.183   1.773  -1.774  0.00  0.00    +0.002 C 
ATOM     15  C   UNL     1      -7.503   2.886  -0.774  0.00  0.00    -0.011 C 
ENDBRANCH   3  15
ENDBRANCH   1   3
BRANCH   1  16
ATOM     16  C   UNL     1      -4.391   4.895  -1.421  0.00  0.00    -0.041 C 
BRANCH  16  17
ATOM     17  C   UNL     1      -4.405   4.862  -2.927  0.00  0.00    -0.060 A 
ATOM     18  C   UNL     1      -3.545   4.018  -3.606  0.00  0.00    +0.005 A 
ATOM     19  C   UNL     1      -3.558   3.980  -4.988  0.00  0.00    +0.050 A 
ATOM     20  C   UNL     1      -4.424   4.796  -5.696  0.00  0.00    +0.166 A 
ATOM     21  C   UNL     1      -5.286   5.650  -5.013  0.00  0.00    +0.166 A 
ATOM     22  C   UNL     1      -5.272   5.679  -3.628  0.00  0.00    +0.051 A 
ATOM     23  O   UNL     1      -6.030   6.341  -5.925  0.00  0.00    -0.453 OA
ATOM     24  C   UNL     1      -5.331   6.201  -7.176  0.00  0.00    +0.466 C 
ATOM     25  O   UNL     1      -4.627   4.952  -7.037  0.00  0.00    -0.453 OA
ENDBRANCH  16  17
ENDBRANCH   1  16
BRANCH   1  26
ATOM     26  C   UNL     1      -4.955   3.558   0.518  0.00  0.00    -0.036 C 
BRANCH  26  27
ATOM     27  C   UNL     1      -3.622   2.866   0.643  0.00  0.00    +0.001 A 
ATOM     28  C   UNL     1      -2.504   3.592   0.892  0.00  0.00    +0.017 A 
ATOM     29  C   UNL     1      -1.224   2.890   1.002  0.00  0.00    -0.001 A 
ATOM     30  C   UNL     1      -0.035   3.587   1.242  0.00  0.00    +0.013 A 
ATOM     31  C   UNL     1       1.143   2.902   1.339  0.00  0.00    -0.047 A 
ATOM     32  C   UNL     1       1.171   1.521   1.202  0.00  0.00    -0.046 A 
ATOM     33  C   UNL     1       0.012   0.814   0.965  0.00  0.00    +0.030 A 
ATOM     34  C   UNL     1      -1.199   1.490   0.857  0.00  0.00    +0.049 A 
ATOM     35  N   UNL     1      -2.373   0.809   0.615  0.00  0.00    -0.322 N 
ATOM     36  H   UNL     1      -2.354  -0.156   0.518  0.00  0.00    +0.169 HD
ATOM     37  C   UNL     1      -3.543   1.463   0.510  0.00  0.00    +0.251 A 
ATOM     38  O   UNL     1      -4.561   0.829   0.295  0.00  0.00    -0.268 OA
ATOM     39  C   UNL     1       2.482   0.787   1.312  0.00  0.00    +0.044 C 
ATOM     40  C   UNL     1       2.424   3.653   1.598  0.00  0.00    +0.044 C 
ENDBRANCH  26  27
ENDBRANCH   1  26
TORSDOF 8
