REMARK  Name = ZINC33937393
REMARK  9 active torsions:
REMARK  status: ('A' for Active; 'I' for Inactive)
REMARK    1  A    between atoms: C_1  and  C_2
REMARK    2  A    between atoms: C_2  and  C_3
REMARK    3  A    between atoms: C_3  and  C_5
REMARK    4  A    between atoms: C_3  and  N_17
REMARK    5  A    between atoms: N_9  and  C_10
REMARK    6  A    between atoms: C_10  and  C_11
REMARK    7  A    between atoms: N_17  and  C_18
REMARK    8  A    between atoms: N_17  and  C_34
REMARK    9  A    between atoms: C_18  and  C_19
REMARK                            x       y       z     vdW  Elec       q    Type
REMARK                         _______ _______ _______ _____ _____    ______ ____
ROOT
ATOM      1  N   UNL     1      -0.939   1.070   1.667  0.00  0.00    +0.391 N 
ATOM      2  H   UNL     1      -0.231   1.558   2.196  0.00  0.00    -0.080 HD
ENDROOT
BRANCH   1   3
ATOM      3  C   UNL     1      -1.831   0.353   2.588  0.00  0.00    -0.067 C 
ATOM      4  C   UNL     1      -2.406   1.337   3.610  0.00  0.00    -0.015 C 
ATOM      5  C   UNL     1      -3.335   0.590   4.569  0.00  0.00    -0.002 C 
ATOM      6  C   UNL     1      -2.547  -0.500   5.298  0.00  0.00    -0.000 C 
ATOM      7  C   UNL     1      -1.973  -1.483   4.276  0.00  0.00    -0.002 C 
ATOM      8  C   UNL     1      -1.043  -0.737   3.316  0.00  0.00    -0.015 C 
ENDBRANCH   1   3
BRANCH   1   9
ATOM      9  C   UNL     1      -0.298   0.109   0.759  0.00  0.00    +0.003 C 
BRANCH   9  10
ATOM     10  C   UNL     1       0.949   0.723   0.177  0.00  0.00    +0.138 A 
ATOM     11  N   UNL     1       1.073   1.937  -0.302  0.00  0.00    -0.115 NA
ATOM     12  N   UNL     1       2.289   2.084  -0.704  0.00  0.00    -0.023 NA
ATOM     13  N   UNL     1       2.943   0.995  -0.494  0.00  0.00    -0.044 NA
ATOM     14  N   UNL     1       2.153   0.134   0.053  0.00  0.00    -0.228 N 
BRANCH  14  15
ATOM     15  C   UNL     1       2.500  -1.230   0.459  0.00  0.00    +0.178 C 
BRANCH  15  16
ATOM     16  C   UNL     1       2.248  -2.189  -0.707  0.00  0.00    +0.140 C 
ATOM     17  C   UNL     1       2.694  -3.624  -0.329  0.00  0.00    +0.035 C 
ATOM     18  C   UNL     1       1.807  -4.469  -1.283  0.00  0.00    +0.031 C 
ATOM     19  C   UNL     1       0.511  -3.633  -1.351  0.00  0.00    +0.160 C 
ATOM     20  O   UNL     1       0.841  -2.290  -0.975  0.00  0.00    -0.375 OA
ENDBRANCH  15  16
ENDBRANCH  14  15
ENDBRANCH   9  10
BRANCH   9  22
ATOM     21  C   UNL     1      -2.444  -1.041   0.200  0.00  0.00    +0.002 C 
ATOM     22  C   UNL     1      -1.265  -0.249  -0.370  0.00  0.00    -0.011 C 
ENDBRANCH   9  22
ENDBRANCH   1   9
BRANCH   1  23
ATOM     23  C   UNL     1      -1.718   2.038   0.884  0.00  0.00    -0.036 C 
BRANCH  23  24
ATOM     24  C   UNL     1      -2.004   3.253   1.728  0.00  0.00    +0.001 A 
ATOM     25  C   UNL     1      -1.205   3.545   2.785  0.00  0.00    +0.017 A 
ATOM     26  C   UNL     1      -1.508   4.731   3.585  0.00  0.00    +0.002 A 
ATOM     27  C   UNL     1      -0.718   5.080   4.688  0.00  0.00    +0.059 A 
ATOM     28  C   UNL     1      -1.029   6.202   5.423  0.00  0.00    +0.167 A 
ATOM     29  C   UNL     1      -2.130   6.994   5.071  0.00  0.00    +0.168 A 
ATOM     30  C   UNL     1      -2.915   6.657   3.983  0.00  0.00    +0.075 A 
ATOM     31  C   UNL     1      -2.614   5.528   3.232  0.00  0.00    +0.053 A 
ATOM     32  N   UNL     1      -3.387   5.176   2.144  0.00  0.00    -0.322 N 
ATOM     33  H   UNL     1      -4.149   5.726   1.901  0.00  0.00    +0.169 HD
ATOM     34  C   UNL     1      -3.097   4.086   1.413  0.00  0.00    +0.251 A 
ATOM     35  O   UNL     1      -3.799   3.808   0.456  0.00  0.00    -0.268 OA
ATOM     36  O   UNL     1      -2.215   8.033   5.952  0.00  0.00    -0.453 OA
ATOM     37  C   UNL     1      -1.413   7.646   7.083  0.00  0.00    +0.466 C 
ATOM     38  O   UNL     1      -0.434   6.752   6.523  0.00  0.00    -0.453 OA
ENDBRANCH  23  24
ENDBRANCH   1  23
TORSDOF 8
