REMARK  Name = ZINC27496712
REMARK  4 active torsions:
REMARK  status: ('A' for Active; 'I' for Inactive)
REMARK    1  A    between atoms: C_9  and  C_11
REMARK    2  A    between atoms: N_21  and  N_22
REMARK    3  A    between atoms: C_23  and  C_25
REMARK    4  A    between atoms: C_28  and  N_31
REMARK                            x       y       z     vdW  Elec       q    Type
REMARK                         _______ _______ _______ _____ _____    ______ ____
ROOT
ATOM      1  C   UNL     1       3.749  -3.286  -0.068  0.00  0.00    +0.079 A 
ATOM      2  C   UNL     1       3.116  -4.550   0.032  0.00  0.00    +0.028 A 
ATOM      3  C   UNL     1       3.922  -5.692   0.028  0.00  0.00    +0.019 A 
ATOM      4  C   UNL     1       3.372  -6.987   0.123  0.00  0.00    +0.026 A 
ATOM      5  C   UNL     1       4.200  -8.067   0.115  0.00  0.00    +0.019 A 
ATOM      6  C   UNL     1       5.584  -7.920   0.014  0.00  0.00    +0.019 A 
ATOM      7  C   UNL     1       6.172  -6.680  -0.081  0.00  0.00    +0.048 A 
ATOM      8  C   UNL     1       5.376  -5.537  -0.079  0.00  0.00    +0.138 A 
ATOM      9  O   UNL     1       5.914  -4.311  -0.171  0.00  0.00    -0.437 OA
ATOM     10  C   UNL     1       5.146  -3.210  -0.173  0.00  0.00    +0.223 A 
ATOM     11  N   UNL     1       5.729  -2.008  -0.272  0.00  0.00    -0.273 N 
ATOM     12 BR   UNL     1       3.460  -9.802   0.242  0.00  0.00    -0.050 Br
ATOM     13  H   UNL     1       5.196  -1.202  -0.188  0.00  0.00    +0.188 HD
ENDROOT
BRANCH   1  22
ATOM     14  C   UNL     1      -0.022   1.370  -0.086  0.00  0.00    +0.002 A 
ATOM     15  C   UNL     1       1.164   2.094  -0.053  0.00  0.00    +0.002 A 
ATOM     16  C   UNL     1       2.370   1.457  -0.037  0.00  0.00    +0.030 A 
ATOM     17  C   UNL     1       2.419   0.054  -0.053  0.00  0.00    +0.089 A 
ATOM     18  C   UNL     1       1.213  -0.679  -0.086  0.00  0.00    +0.066 A 
ATOM     19  C   UNL     1      -0.002  -0.008  -0.102  0.00  0.00    +0.028 A 
ATOM     20  N   UNL     1       1.572  -2.009  -0.095  0.00  0.00    -0.338 N 
ATOM     21  H   UNL     1       0.970  -2.769  -0.116  0.00  0.00    +0.167 HD
ATOM     22  C   UNL     1       2.942  -2.055  -0.069  0.00  0.00    +0.144 A 
ATOM     23  N   UNL     1       3.426  -0.833  -0.045  0.00  0.00    -0.228 NA
ENDBRANCH   1  22
BRANCH  11  24
ATOM     24  N   UNL     1       6.999  -1.923  -0.479  0.00  0.00    -0.223 N 
ATOM     25  C   UNL     1       7.586  -0.713  -0.579  0.00  0.00    +0.262 C 
ATOM     26  O   UNL     1       6.918   0.296  -0.473  0.00  0.00    -0.269 OA
ATOM     27  H   UNL     1       7.532  -2.729  -0.563  0.00  0.00    +0.175 HD
BRANCH  25  28
ATOM     28  C   UNL     1       9.040  -0.615  -0.816  0.00  0.00    +0.038 A 
ATOM     29  C   UNL     1       9.810  -1.774  -0.943  0.00  0.00    +0.015 A 
ATOM     30  C   UNL     1      11.168  -1.675  -1.165  0.00  0.00    +0.033 A 
ATOM     31  C   UNL     1      11.767  -0.431  -1.260  0.00  0.00    +0.126 A 
ATOM     32  C   UNL     1      11.011   0.721  -1.135  0.00  0.00    +0.033 A 
ATOM     33  C   UNL     1       9.651   0.637  -0.919  0.00  0.00    +0.015 A 
BRANCH  31  34
ATOM     34  N   UNL     1      13.225  -0.333  -1.498  0.00  0.00    +0.056 N 
ATOM     35  O   UNL     1      13.948  -1.427  -1.617  0.00  0.00    -0.126 OA
ATOM     36  O   UNL     1      13.799   0.849  -1.589  0.00  0.00    -0.126 OA
ENDBRANCH  31  34
ENDBRANCH  25  28
ENDBRANCH  11  24
TORSDOF 4
