REMARK  Name = ZINC12920162
REMARK  9 active torsions:
REMARK  status: ('A' for Active; 'I' for Inactive)
REMARK    1  A    between atoms: C_1  and  C_2
REMARK    2  A    between atoms: C_2  and  C_3
REMARK    3  A    between atoms: C_2  and  C_4
REMARK    4  A    between atoms: C_2  and  C_5
REMARK    5  A    between atoms: C_7  and  N_18
REMARK    6  A    between atoms: N_8  and  C_10
REMARK    7  A    between atoms: C_19  and  C_21
REMARK    8  A    between atoms: C_21  and  O_22
REMARK    9  A    between atoms: O_22  and  C_23
REMARK                            x       y       z     vdW  Elec       q    Type
REMARK                         _______ _______ _______ _____ _____    ______ ____
ROOT
ATOM      1  N   UNL     1       1.399  -2.536   8.476  0.00  0.00    -0.268 N 
ATOM      2  C   UNL     1       1.416  -2.234   7.163  0.00  0.00    +0.256 C 
ATOM      3  O   UNL     1       2.141  -2.848   6.409  0.00  0.00    -0.272 OA
ATOM      4  H   UNL     1       0.820  -2.045   9.079  0.00  0.00    +0.156 HD
ENDROOT
BRANCH   1   7
ATOM      5  C   UNL     1       3.693  -5.218   9.113  0.00  0.00    +0.070 A 
ATOM      6  C   UNL     1       3.072  -4.321   8.239  0.00  0.00    +0.069 A 
ATOM      7  C   UNL     1       2.215  -3.555   8.968  0.00  0.00    +0.124 A 
ATOM      8  N   UNL     1       2.302  -3.957  10.256  0.00  0.00    -0.246 N 
ATOM      9  N   UNL     1       3.231  -5.004  10.319  0.00  0.00    -0.174 NA
BRANCH   8  10
ATOM     10  C   UNL     1       1.555  -3.399  11.386  0.00  0.00    +0.132 C 
ATOM     11  C   UNL     1       0.697  -4.498  12.035  0.00  0.00    +0.051 C 
ATOM     12  C   UNL     1       0.161  -4.011  13.403  0.00  0.00    +0.168 C 
ATOM     13  S   UNL     1       1.448  -2.811  13.937  0.00  0.00    -0.029 S 
ATOM     14  O   UNL     1       0.864  -1.519  14.034  0.00  0.00    -0.174 OA
ATOM     15  O   UNL     1       2.148  -3.348  15.051  0.00  0.00    -0.174 OA
ATOM     16  C   UNL     1       2.546  -2.863  12.458  0.00  0.00    +0.192 C 
ENDBRANCH   8  10
BRANCH   5  18
ATOM     17  C   UNL     1       6.063  -5.570   8.474  0.00  0.00    +0.017 C 
ATOM     18  C   UNL     1       4.719  -6.254   8.733  0.00  0.00    +0.006 C 
ATOM     19  C   UNL     1       4.871  -7.264   9.872  0.00  0.00    +0.017 C 
ATOM     20  C   UNL     1       4.264  -6.980   7.465  0.00  0.00    +0.017 C 
ENDBRANCH   5  18
ENDBRANCH   1   7
BRANCH   2  21
ATOM     21  C   UNL     1       0.535  -1.133   6.631  0.00  0.00    +0.324 C 
BRANCH  21  22
ATOM     22  O   UNL     1       0.731  -1.005   5.222  0.00  0.00    -0.483 OA
BRANCH  22  23
ATOM     23  C   UNL     1       0.005  -0.049   4.582  0.00  0.00    +0.122 A 
ATOM     24  C   UNL     1      -0.873   0.739   5.316  0.00  0.00    +0.049 A 
ATOM     25  C   UNL     1      -1.642   1.729   4.730  0.00  0.00    +0.050 A 
ATOM     26  C   UNL     1      -1.505   1.913   3.357  0.00  0.00    +0.136 A 
ATOM     27  C   UNL     1      -0.610   1.110   2.608  0.00  0.00    +0.027 A 
ATOM     28  C   UNL     1       0.160   0.115   3.212  0.00  0.00    +0.057 A 
ATOM     29  C   UNL     1      -0.725   1.575   1.242  0.00  0.00    +0.001 A 
ATOM     30  C   UNL     1      -1.635   2.572   1.252  0.00  0.00    +0.109 A 
ATOM     31  O   UNL     1      -2.089   2.763   2.506  0.00  0.00    -0.459 OA
ATOM     32  C   UNL     1      -2.054   3.338   0.019  0.00  0.00    +0.075 C 
ATOM     33  C   UNL     1      -1.014   3.101  -1.081  0.00  0.00    +0.008 C 
ATOM     34  C   UNL     1      -0.762   1.597  -1.228  0.00  0.00    +0.005 C 
ATOM     35  C   UNL     1      -0.013   1.086   0.008  0.00  0.00    +0.039 C 
ENDBRANCH  22  23
ENDBRANCH  21  22
ENDBRANCH   2  21
TORSDOF 6
