REMARK  Name = ZINC39667002
REMARK  9 active torsions:
REMARK  status: ('A' for Active; 'I' for Inactive)
REMARK    1  A    between atoms: C_1  and  C_2
REMARK    2  A    between atoms: C_5  and  C_9
REMARK    3  A    between atoms: C_6  and  C_8
REMARK    4  A    between atoms: C_9  and  C_10
REMARK    5  A    between atoms: C_10  and  N_11
REMARK    6  A    between atoms: C_12  and  C_14
REMARK    7  A    between atoms: C_25  and  C_27
REMARK    8  A    between atoms: C_30  and  O_33
REMARK    9  A    between atoms: O_33  and  C_34
REMARK                            x       y       z     vdW  Elec       q    Type
REMARK                         _______ _______ _______ _____ _____    ______ ____
ROOT
ATOM      1  C   UNL     1      -2.223  -9.096   0.152  0.00  0.00    +0.100 C 
ATOM      2  C   UNL     1      -1.389  -9.303   1.437  0.00  0.00    +0.121 C 
ATOM      3  N   UNL     1      -2.393  -9.506   2.507  0.00  0.00    -0.296 N 
ATOM      4  C   UNL     1      -3.444 -10.339   1.873  0.00  0.00    +0.115 C 
ATOM      5  C   UNL     1      -3.569  -9.781   0.442  0.00  0.00    -0.004 C 
ATOM      6  C   UNL     1      -3.808 -10.916  -0.549  0.00  0.00    -0.010 C 
ATOM      7  C   UNL     1      -5.178 -11.543  -0.279  0.00  0.00    -0.082 C 
ATOM      8  N   UNL     1      -6.223 -10.521  -0.415  0.00  0.00    +0.379 N 
ATOM      9  C   UNL     1      -6.039  -9.479   0.603  0.00  0.00    -0.082 C 
ATOM     10  C   UNL     1      -4.705  -8.764   0.370  0.00  0.00    -0.010 C 
ATOM     11  C   UNL     1      -2.360  -9.040   3.771  0.00  0.00    +0.247 C 
ATOM     12  O   UNL     1      -1.489  -8.261   4.109  0.00  0.00    -0.270 OA
ATOM     13  H   UNL     1      -6.167 -10.105  -1.333  0.00  0.00    -0.086 HD
ATOM     14  H   UNL     1      -7.128 -10.949  -0.297  0.00  0.00    -0.086 HD
ENDROOT
BRANCH  11  15
ATOM     15  C   UNL     1      -3.380  -9.474   4.745  0.00  0.00    +0.037 A 
ATOM     16  C   UNL     1      -4.095 -10.655   4.532  0.00  0.00    +0.016 A 
ATOM     17  C   UNL     1      -5.045 -11.057   5.443  0.00  0.00    +0.047 A 
ATOM     18  C   UNL     1      -5.295 -10.289   6.574  0.00  0.00    +0.130 A 
ATOM     19  C   UNL     1      -4.587  -9.113   6.790  0.00  0.00    +0.047 A 
ATOM     20  C   UNL     1      -3.630  -8.707   5.886  0.00  0.00    +0.016 A 
BRANCH  18  21
ATOM     21  O   UNL     1      -6.234 -10.688   7.469  0.00  0.00    -0.406 OA
BRANCH  21  22
ATOM     22  C   UNL     1      -6.439  -9.851   8.609  0.00  0.00    +0.575 C 
ATOM     23  F   UNL     1      -6.839  -8.579   8.188  0.00  0.00    -0.133 F 
ATOM     24  F   UNL     1      -7.434 -10.407   9.422  0.00  0.00    -0.133 F 
ATOM     25  F   UNL     1      -5.247  -9.749   9.335  0.00  0.00    -0.133 F 
ENDBRANCH  21  22
ENDBRANCH  18  21
ENDBRANCH  11  15
BRANCH   1  27
ATOM     26  N   UNL     1      -2.686  -7.194  -1.360  0.00  0.00    -0.315 N 
ATOM     27  C   UNL     1      -2.427  -7.626  -0.110  0.00  0.00    +0.218 C 
ATOM     28  O   UNL     1      -2.359  -6.832   0.804  0.00  0.00    -0.275 OA
ATOM     29  H   UNL     1      -2.740  -7.829  -2.091  0.00  0.00    +0.149 HD
BRANCH  26  30
ATOM     30  C   UNL     1      -2.884  -5.765  -1.615  0.00  0.00    +0.109 C 
BRANCH  30  31
ATOM     31  C   UNL     1      -3.160  -5.546  -3.104  0.00  0.00    +0.054 C 
BRANCH  31  36
ATOM     32  C   UNL     1      -3.944   0.091  -4.106  0.00  0.00    +0.044 C 
ATOM     33  C   UNL     1      -3.740  -1.379  -3.844  0.00  0.00    -0.050 A 
ATOM     34  C   UNL     1      -4.830  -2.201  -3.629  0.00  0.00    +0.003 A 
ATOM     35  C   UNL     1      -4.643  -3.550  -3.389  0.00  0.00    +0.004 A 
ATOM     36  C   UNL     1      -3.365  -4.076  -3.366  0.00  0.00    -0.043 A 
ATOM     37  C   UNL     1      -2.274  -3.255  -3.582  0.00  0.00    -0.047 A 
ATOM     38  C   UNL     1      -2.462  -1.907  -3.826  0.00  0.00    +0.007 A 
ATOM     39  C   UNL     1      -0.881  -3.829  -3.556  0.00  0.00    +0.044 C 
ENDBRANCH  31  36
ENDBRANCH  30  31
ENDBRANCH  26  30
ENDBRANCH   1  27
TORSDOF 7
