REMARK  Name = ZINC10157207
REMARK  5 active torsions:
REMARK  status: ('A' for Active; 'I' for Inactive)
REMARK    1  A    between atoms: C_1  and  C_2
REMARK    2  A    between atoms: C_4  and  C_22
REMARK    3  A    between atoms: N_13  and  C_14
REMARK    4  A    between atoms: C_18  and  C_20
REMARK    5  A    between atoms: C_18  and  C_21
REMARK                            x       y       z     vdW  Elec       q    Type
REMARK                         _______ _______ _______ _____ _____    ______ ____
ROOT
ATOM      1  C   UNL     1       2.499   1.091  -0.015  0.00  0.00    +0.066 C 
ATOM      2  C   UNL     1       1.169   1.800   0.001  0.00  0.00    +0.044 A 
ATOM      3  C   UNL     1      -0.013   1.076   0.008  0.00  0.00    +0.046 A 
ATOM      4  C   UNL     1      -1.214   1.768   0.017  0.00  0.00    +0.044 A 
ATOM      5  N   UNL     1      -1.195   3.091   0.031  0.00  0.00    -0.216 NA
ATOM      6  C   UNL     1      -0.049   3.752   0.023  0.00  0.00    +0.252 A 
ATOM      7  N   UNL     1       1.115   3.122   0.008  0.00  0.00    -0.216 NA
ATOM      8  N   UNL     1      -0.068   5.145   0.030  0.00  0.00    -0.200 N 
ATOM      9  C   UNL     1      -1.169   5.899   0.045  0.00  0.00    +0.061 A 
ATOM     10  C   UNL     1      -0.759   7.230   0.046  0.00  0.00    +0.080 A 
ATOM     11  C   UNL     1       0.691   7.229   0.034  0.00  0.00    +0.152 A 
ATOM     12  N   UNL     1       1.067   5.968   0.030  0.00  0.00    -0.148 NA
ATOM     13  N   UNL     1       1.524   8.345   0.031  0.00  0.00    -0.330 N 
ATOM     14  C   UNL     1       2.979   8.173   0.019  0.00  0.00    +0.127 C 
ATOM     15  C   UNL     1      -1.723   8.336   0.054  0.00  0.00    +0.169 C 
ATOM     16  O   UNL     1      -1.394   9.486   0.257  0.00  0.00    -0.292 OA
ATOM     17  C   UNL     1      -3.167   7.934  -0.210  0.00  0.00    +0.086 C 
ATOM     18  C   UNL     1      -3.466   6.655   0.579  0.00  0.00    -0.022 C 
ATOM     19  C   UNL     1      -2.618   5.489   0.062  0.00  0.00    +0.063 C 
ATOM     20  C   UNL     1      -3.151   6.890   2.058  0.00  0.00    +0.011 C 
ATOM     21  C   UNL     1      -4.947   6.305   0.429  0.00  0.00    +0.011 C 
ATOM     22  C   UNL     1      -2.524   1.023   0.019  0.00  0.00    +0.066 C 
ATOM     23  H   UNL     1       1.141   9.236   0.038  0.00  0.00    +0.147 HD
ENDROOT
TORSDOF 0
