REMARK  Name = ZINC10048378
REMARK  11 active torsions:
REMARK  status: ('A' for Active; 'I' for Inactive)
REMARK    1  A    between atoms: C_1  and  C_2
REMARK    2  A    between atoms: C_6  and  N_8
REMARK    3  A    between atoms: N_8  and  C_9
REMARK    4  A    between atoms: C_9  and  C_10
REMARK    5  A    between atoms: C_10  and  C_12
REMARK    6  A    between atoms: C_10  and  C_13
REMARK    7  A    between atoms: C_13  and  N_14
REMARK    8  A    between atoms: C_23  and  C_32
REMARK    9  A    between atoms: N_24  and  C_25
REMARK   10  A    between atoms: C_30  and  C_31
REMARK   11  A    between atoms: N_33  and  C_36
REMARK                            x       y       z     vdW  Elec       q    Type
REMARK                         _______ _______ _______ _____ _____    ______ ____
ROOT
ATOM      1  N   UNL     1       1.906   9.700   0.279  0.00  0.00    -0.259 N 
ATOM      2  C   UNL     1       1.815  10.462  -0.830  0.00  0.00    +0.283 A 
ATOM      3  O   UNL     1       1.976   9.967  -1.932  0.00  0.00    -0.265 OA
ATOM      4  C   UNL     1       1.528  11.831  -0.702  0.00  0.00    +0.157 A 
ATOM      5  C   UNL     1       1.355  12.374   0.571  0.00  0.00    +0.170 A 
ATOM      6  N   UNL     1       1.103  13.671   0.421  0.00  0.00    -0.193 NA
ATOM      7  C   UNL     1       1.105  13.986  -0.866  0.00  0.00    +0.223 A 
ATOM      8  N   UNL     1       1.364  12.877  -1.597  0.00  0.00    -0.277 N 
ATOM      9  C   UNL     1       1.361  13.231  -2.935  0.00  0.00    +0.116 A 
ATOM     10  C   UNL     1       1.104  14.533  -3.024  0.00  0.00    +0.040 A 
ATOM     11  N   UNL     1       0.940  15.029  -1.743  0.00  0.00    -0.282 N 
ATOM     12  C   UNL     1       1.009  15.330  -4.300  0.00  0.00    +0.065 C 
ATOM     13  N   UNL     1       1.467  11.539   1.673  0.00  0.00    -0.279 N 
ATOM     14  C   UNL     1       1.738  10.231   1.502  0.00  0.00    +0.333 A 
ATOM     15  O   UNL     1       1.832   9.513   2.479  0.00  0.00    -0.246 OA
ATOM     16  C   UNL     1       1.290  12.081   3.022  0.00  0.00    +0.155 C 
ENDROOT
BRANCH  11  17
ATOM     17  C   UNL     1       0.657  16.357  -1.403  0.00  0.00    +0.053 A 
ATOM     18  C   UNL     1      -0.661  16.782  -1.293  0.00  0.00    +0.026 A 
ATOM     19  C   UNL     1      -0.937  18.092  -0.957  0.00  0.00    +0.002 A 
ATOM     20  C   UNL     1       0.098  18.982  -0.728  0.00  0.00    +0.000 A 
ATOM     21  C   UNL     1       1.411  18.562  -0.837  0.00  0.00    +0.005 A 
ATOM     22  C   UNL     1       1.693  17.251  -1.167  0.00  0.00    -0.027 A 
ATOM     23  C   UNL     1       3.124  16.793  -1.279  0.00  0.00    +0.046 C 
ENDBRANCH  11  17
BRANCH   1  24
ATOM     24  C   UNL     1       2.200   8.270   0.149  0.00  0.00    +0.134 C 
BRANCH  24  25
ATOM     25  C   UNL     1       0.890   7.489   0.032  0.00  0.00    +0.023 C 
ATOM     26  C   UNL     1       0.179   7.876  -1.266  0.00  0.00    +0.011 C 
BRANCH  25  27
ATOM     27  C   UNL     1       1.190   5.989   0.022  0.00  0.00    +0.106 C 
BRANCH  27  28
ATOM     28  N   UNL     1      -0.069   5.239   0.030  0.00  0.00    -0.344 N 
ATOM     29  H   UNL     1      -0.916   5.713   0.041  0.00  0.00    +0.146 HD
BRANCH  28  35
ATOM     30  C   UNL     1      -2.514   0.976   0.019  0.00  0.00    +0.044 C 
ATOM     31  C   UNL     1      -1.220   1.749   0.017  0.00  0.00    -0.049 A 
ATOM     32  C   UNL     1      -0.013   1.076   0.008  0.00  0.00    +0.003 A 
ATOM     33  C   UNL     1       1.176   1.782   0.000  0.00  0.00    +0.002 A 
ATOM     34  C   UNL     1       1.161   3.163   0.008  0.00  0.00    +0.023 A 
ATOM     35  C   UNL     1      -0.050   3.842   0.023  0.00  0.00    +0.027 A 
ATOM     36  C   UNL     1      -1.243   3.130   0.031  0.00  0.00    +0.026 A 
ENDBRANCH  28  35
ENDBRANCH  27  28
ENDBRANCH  25  27
ENDBRANCH  24  25
ENDBRANCH   1  24
TORSDOF 6
