REMARK  Name = ZINC13323934
REMARK  4 active torsions:
REMARK  status: ('A' for Active; 'I' for Inactive)
REMARK    1  A    between atoms: C_6  and  N_7
REMARK    2  A    between atoms: C_11  and  C_14
REMARK    3  A    between atoms: N_19  and  C_22
REMARK    4  A    between atoms: C_22  and  C_23
REMARK                            x       y       z     vdW  Elec       q    Type
REMARK                         _______ _______ _______ _____ _____    ______ ____
ROOT
ATOM      1  C   UNL     1       6.194   1.693  -0.049  0.00  0.00    +0.255 C 
ATOM      2  O   UNL     1       5.032   1.351   0.066  0.00  0.00    -0.269 OA
ATOM      3  N   UNL     1       7.162   0.763  -0.165  0.00  0.00    -0.295 N 
ATOM      4  C   UNL     1       6.827  -0.664  -0.288  0.00  0.00    +0.123 C 
ATOM      5  C   UNL     1       7.637  -1.445   0.752  0.00  0.00    +0.104 C 
ATOM      6  N   UNL     1       9.063  -1.126   0.598  0.00  0.00    -0.294 NA
ATOM      7  C   UNL     1       9.322   0.295   0.863  0.00  0.00    +0.104 C 
ATOM      8  C   UNL     1       8.581   1.148  -0.179  0.00  0.00    +0.123 C 
ENDROOT
BRANCH   1  16
ATOM      9  C   UNL     1       6.550   7.838   0.831  0.00  0.00    +0.033 A 
ATOM     10  C   UNL     1       5.961   6.641   1.084  0.00  0.00    +0.013 A 
ATOM     11  C   UNL     1       6.436   5.454   0.469  0.00  0.00    +0.008 A 
ATOM     12  C   UNL     1       7.540   5.597  -0.405  0.00  0.00    +0.024 A 
ATOM     13  C   UNL     1       8.127   6.819  -0.652  0.00  0.00    +0.048 A 
ATOM     14  C   UNL     1       7.633   7.949  -0.033  0.00  0.00    +0.127 A 
ATOM     15  S   UNL     1       7.841   3.940  -0.966  0.00  0.00    -0.082 S 
ATOM     16  C   UNL     1       6.541   3.120  -0.060  0.00  0.00    +0.093 A 
ATOM     17  C   UNL     1       5.950   4.141   0.617  0.00  0.00    +0.068 A 
ATOM     18 CL   UNL     1       4.598   3.827   1.660  0.00  0.00    -0.082 Cl
BRANCH  14  19
ATOM     19  N   UNL     1       8.252   9.270  -0.287  0.00  0.00    +0.056 N 
ATOM     20  O   UNL     1       7.815  10.257   0.258  0.00  0.00    -0.126 OA
ATOM     21  O   UNL     1       9.194   9.362  -1.039  0.00  0.00    -0.126 OA
ENDBRANCH  14  19
ENDBRANCH   1  16
BRANCH   6  22
ATOM     22  C   UNL     1       9.890  -1.982   1.459  0.00  0.00    +0.138 C 
BRANCH  22  23
ATOM     23  C   UNL     1      11.342  -1.802   1.100  0.00  0.00    +0.037 A 
ATOM     24  C   UNL     1      12.227  -1.256   2.006  0.00  0.00    +0.093 A 
ATOM     25  C   UNL     1      13.568  -1.098   1.655  0.00  0.00    +0.259 A 
ATOM     26  O   UNL     1      14.356  -0.616   2.454  0.00  0.00    -0.267 OA
ATOM     27  N   UNL     1      13.999  -1.484   0.417  0.00  0.00    -0.264 N 
ATOM     28  C   UNL     1      15.280  -1.394  -0.072  0.00  0.00    +0.104 A 
ATOM     29  C   UNL     1      15.576  -1.806  -1.304  0.00  0.00    +0.067 A 
ATOM     30  S   UNL     1      13.990  -2.381  -1.889  0.00  0.00    -0.059 S 
ATOM     31  C   UNL     1      13.054  -2.016  -0.419  0.00  0.00    +0.158 A 
ATOM     32  N   UNL     1      11.795  -2.172  -0.095  0.00  0.00    -0.338 N 
ATOM     33  H   UNL     1      11.181  -2.560  -0.738  0.00  0.00    +0.168 HD
ENDBRANCH  22  23
ENDBRANCH   6  22
TORSDOF 4
