REMARK  Name = ZINC28815069
REMARK  12 active torsions:
REMARK  status: ('A' for Active; 'I' for Inactive)
REMARK    1  A    between atoms: C_1  and  C_2
REMARK    2  A    between atoms: C_3  and  C_4
REMARK    3  A    between atoms: C_5  and  C_6
REMARK    4  A    between atoms: C_7  and  C_8
REMARK    5  A    between atoms: C_8  and  N_9
REMARK    6  A    between atoms: N_9  and  C_10
REMARK    7  A    between atoms: N_9  and  S_30
REMARK    8  A    between atoms: C_15  and  C_28
REMARK    9  A    between atoms: N_19  and  C_21
REMARK   10  A    between atoms: C_21  and  C_22
REMARK   11  A    between atoms: N_26  and  C_27
REMARK   12  A    between atoms: S_30  and  C_33
REMARK                            x       y       z     vdW  Elec       q    Type
REMARK                         _______ _______ _______ _____ _____    ______ ____
ROOT
ATOM      1  C   UNL     1       0.028  -2.416   0.503  0.00  0.00    +0.102 C 
ATOM      2  C   UNL     1       1.454  -2.083   0.057  0.00  0.00    +0.059 C 
ATOM      3  C   UNL     1       1.592  -0.592  -0.126  0.00  0.00    -0.024 A 
ATOM      4  C   UNL     1       2.866  -0.063  -0.203  0.00  0.00    +0.024 A 
ATOM      5  C   UNL     1       3.051   1.308  -0.385  0.00  0.00    +0.052 A 
ATOM      6  C   UNL     1       1.938   2.147  -0.490  0.00  0.00    +0.021 A 
ATOM      7  C   UNL     1       0.673   1.616  -0.409  0.00  0.00    +0.024 A 
ATOM      8  C   UNL     1       0.488   0.242  -0.223  0.00  0.00    +0.033 A 
ATOM      9  N   UNL     1      -0.819  -0.223  -0.133  0.00  0.00    -0.322 N 
ATOM     10  C   UNL     1      -0.942  -1.655  -0.409  0.00  0.00    +0.126 C 
ENDROOT
BRANCH   5  11
ATOM     11  C   UNL     1       4.373   1.853  -0.464  0.00  0.00    +0.099 C 
ATOM     12  N   UNL     1       5.422   2.285  -0.527  0.00  0.00    -0.191 NA
ENDBRANCH   5  11
BRANCH   1  13
ATOM     13  N   UNL     1      -0.204  -3.857   0.382  0.00  0.00    -0.167 NA
BRANCH  13  14
ATOM     14  S   UNL     1      -0.626  -4.744   1.716  0.00  0.00    +0.079 S 
ATOM     15  O   UNL     1      -0.115  -6.053   1.511  0.00  0.00    -0.151 OA
ATOM     16  O   UNL     1      -0.282  -3.960   2.849  0.00  0.00    -0.151 OA
BRANCH  14  17
ATOM     17  C   UNL     1      -2.383  -4.883   1.714  0.00  0.00    +0.194 A 
ATOM     18  C   UNL     1      -2.983  -5.947   1.068  0.00  0.00    +0.049 A 
ATOM     19  C   UNL     1      -4.366  -6.048   1.074  0.00  0.00    +0.005 A 
ATOM     20  C   UNL     1      -5.096  -5.070   1.732  0.00  0.00    +0.020 A 
ATOM     21  C   UNL     1      -4.426  -4.035   2.356  0.00  0.00    +0.113 A 
ATOM     22  N   UNL     1      -3.109  -3.974   2.334  0.00  0.00    -0.236 NA
ENDBRANCH  14  17
ENDBRANCH  13  14
BRANCH  13  23
ATOM     23  C   UNL     1      -0.064  -4.515  -0.920  0.00  0.00    +0.137 C 
BRANCH  23  25
ATOM     24  C   UNL     1      -1.384  -3.881  -2.898  0.00  0.00    -0.003 C 
ATOM     25  C   UNL     1      -1.364  -4.413  -1.677  0.00  0.00    -0.010 C 
BRANCH  24  27
ATOM     26  C   UNL     1      -2.667  -3.244  -4.870  0.00  0.00    -0.000 C 
ATOM     27  C   UNL     1      -2.647  -3.783  -3.634  0.00  0.00    -0.000 C 
BRANCH  26  30
ATOM     28  C   UNL     1      -0.170  -1.724  -7.324  0.00  0.00    +0.035 C 
ATOM     29  C   UNL     1      -1.447  -2.225  -6.699  0.00  0.00    -0.030 C 
ATOM     30  C   UNL     1      -1.427  -2.757  -5.478  0.00  0.00    -0.005 C 
ENDBRANCH  26  30
ENDBRANCH  24  27
ENDBRANCH  23  25
ENDBRANCH  13  23
ENDBRANCH   1  13
BRANCH   9  31
ATOM     31  C   UNL     1      -1.716   0.559  -0.995  0.00  0.00    +0.160 C 
BRANCH  31  32
ATOM     32  C   UNL     1      -3.102  -0.030  -0.943  0.00  0.00    +0.053 A 
ATOM     33  C   UNL     1      -3.631  -0.915  -1.809  0.00  0.00    +0.106 A 
ATOM     34  N   UNL     1      -4.883  -1.187  -1.411  0.00  0.00    -0.352 N 
ATOM     35  C   UNL     1      -5.149  -0.504  -0.331  0.00  0.00    +0.173 A 
ATOM     36  N   UNL     1      -4.062   0.227  -0.002  0.00  0.00    -0.337 N 
ATOM     37  C   UNL     1      -3.936   1.129   1.146  0.00  0.00    +0.150 C 
ATOM     38  H   UNL     1      -5.501  -1.894  -1.984  0.00  0.00    +0.166 HD
ENDBRANCH  31  32
ENDBRANCH   9  31
TORSDOF 10
