REMARK  Name = ZINC09085405
REMARK  6 active torsions:
REMARK  status: ('A' for Active; 'I' for Inactive)
REMARK    1  A    between atoms: C_2  and  C_3
REMARK    2  A    between atoms: C_3  and  N_4
REMARK    3  A    between atoms: C_14  and  S_15
REMARK    4  A    between atoms: S_15  and  C_16
REMARK    5  A    between atoms: C_16  and  C_17
REMARK    6  A    between atoms: C_19  and  N_27
REMARK                            x       y       z     vdW  Elec       q    Type
REMARK                         _______ _______ _______ _____ _____    ______ ____
ROOT
ATOM      1  N   UNL     1       1.122   6.760   2.522  0.00  0.00    -0.283 N 
ATOM      2  C   UNL     1       1.107   8.102   2.355  0.00  0.00    +0.263 A 
ATOM      3  O   UNL     1       1.105   8.857   3.310  0.00  0.00    -0.267 OA
ATOM      4  C   UNL     1       1.086   8.616   0.979  0.00  0.00    +0.065 A 
ATOM      5  C   UNL     1       1.064   9.983   0.705  0.00  0.00    +0.017 A 
ATOM      6  C   UNL     1       1.046  10.413  -0.592  0.00  0.00    +0.021 A 
ATOM      7  C   UNL     1       1.050   9.502  -1.643  0.00  0.00    +0.043 A 
ATOM      8  C   UNL     1       1.071   8.146  -1.400  0.00  0.00    +0.048 A 
ATOM      9  C   UNL     1       1.090   7.682  -0.082  0.00  0.00    +0.080 A 
ATOM     10  N   UNL     1       1.111   6.359   0.204  0.00  0.00    -0.223 NA
ATOM     11  C   UNL     1       1.129   5.926   1.440  0.00  0.00    +0.173 A 
ATOM     12 CL   UNL     1       1.027  10.081  -3.279  0.00  0.00    -0.083 Cl
ENDROOT
BRANCH   1  13
ATOM     13  C   UNL     1       1.137   6.196   3.874  0.00  0.00    +0.154 C 
BRANCH  13  15
ATOM     14  C   UNL     1       2.961   6.567   5.454  0.00  0.00    +0.005 C 
ATOM     15  C   UNL     1       2.563   6.023   4.330  0.00  0.00    -0.013 C 
ENDBRANCH  13  15
ENDBRANCH   1  13
BRANCH  11  16
ATOM     16  S   UNL     1       1.157   4.186   1.720  0.00  0.00    -0.083 S 
BRANCH  16  17
ATOM     17  C   UNL     1       1.149   3.593   0.011  0.00  0.00    +0.116 C 
BRANCH  17  18
ATOM     18  C   UNL     1       1.170   2.086   0.002  0.00  0.00    +0.007 A 
ATOM     19  C   UNL     1      -0.017   1.378   0.010  0.00  0.00    +0.040 A 
ATOM     20  C   UNL     1       0.002  -0.004   0.002  0.00  0.00    +0.127 A 
ATOM     21  C   UNL     1       1.208  -0.681  -0.012  0.00  0.00    +0.042 A 
ATOM     22  C   UNL     1       2.397   0.022  -0.018  0.00  0.00    +0.022 A 
ATOM     23  C   UNL     1       2.381   1.409  -0.013  0.00  0.00    +0.133 A 
ATOM     24  O   UNL     1       3.544   2.113  -0.025  0.00  0.00    -0.466 OA
ATOM     25  C   UNL     1       4.734   1.401   0.326  0.00  0.00    +0.394 C 
ATOM     26  O   UNL     1       4.759   0.167  -0.401  0.00  0.00    -0.339 OA
ATOM     27  C   UNL     1       3.706  -0.726  -0.025  0.00  0.00    +0.202 C 
BRANCH  20  28
ATOM     28  N   UNL     1      -1.270  -0.760   0.009  0.00  0.00    +0.056 N 
ATOM     29  O   UNL     1      -2.333  -0.165   0.021  0.00  0.00    -0.126 OA
ATOM     30  O   UNL     1      -1.254  -1.978   0.002  0.00  0.00    -0.126 OA
ENDBRANCH  20  28
ENDBRANCH  17  18
ENDBRANCH  16  17
ENDBRANCH  11  16
TORSDOF 6
