REMARK  Name = ZINC13680507
REMARK  6 active torsions:
REMARK  status: ('A' for Active; 'I' for Inactive)
REMARK    1  A    between atoms: C_4  and  C_8
REMARK    2  A    between atoms: C_8  and  S_9
REMARK    3  A    between atoms: S_9  and  N_12
REMARK    4  A    between atoms: C_16  and  C_19
REMARK    5  A    between atoms: N_21  and  C_22
REMARK    6  A    between atoms: C_24  and  N_29
REMARK                            x       y       z     vdW  Elec       q    Type
REMARK                         _______ _______ _______ _____ _____    ______ ____
ROOT
ATOM      1  N   UNL     1       4.448   0.589  -1.592  0.00  0.00    -0.180 NA
ATOM      2  C   UNL     1       4.492  -0.879  -1.538  0.00  0.00    +0.109 C 
ATOM      3  C   UNL     1       5.430  -1.385  -2.638  0.00  0.00    +0.018 C 
ATOM      4  C   UNL     1       6.795  -0.709  -2.490  0.00  0.00    +0.015 C 
ATOM      5  C   UNL     1       6.637   0.805  -2.649  0.00  0.00    +0.091 C 
ATOM      6  C   UNL     1       5.713   1.336  -1.554  0.00  0.00    +0.121 C 
ENDROOT
BRANCH   5   7
ATOM      7  C   UNL     1       7.986   1.467  -2.535  0.00  0.00    +0.222 C 
ATOM      8  O   UNL     1       8.188   2.284  -1.662  0.00  0.00    -0.275 OA
ATOM      9  N   UNL     1       8.967   1.150  -3.402  0.00  0.00    -0.284 N 
ATOM     10  H   UNL     1       8.827   0.449  -4.059  0.00  0.00    +0.155 HD
BRANCH   9  11
ATOM     11  C   UNL     1      10.189   1.831  -3.356  0.00  0.00    +0.054 A 
ATOM     12  C   UNL     1      10.705   2.253  -2.138  0.00  0.00    +0.057 A 
ATOM     13  C   UNL     1      11.911   2.924  -2.095  0.00  0.00    +0.128 A 
ATOM     14  C   UNL     1      12.606   3.177  -3.264  0.00  0.00    +0.034 A 
ATOM     15  C   UNL     1      12.096   2.758  -4.479  0.00  0.00    +0.024 A 
ATOM     16  C   UNL     1      10.892   2.081  -4.529  0.00  0.00    +0.062 A 
ATOM     17 CL   UNL     1      10.255   1.550  -6.054  0.00  0.00    -0.082 Cl
BRANCH  13  18
ATOM     18  N   UNL     1      12.461   3.374  -0.797  0.00  0.00    +0.056 N 
ATOM     19  O   UNL     1      11.850   3.152   0.233  0.00  0.00    -0.126 OA
ATOM     20  O   UNL     1      13.525   3.966  -0.758  0.00  0.00    -0.126 OA
ENDBRANCH  13  18
ENDBRANCH   9  11
ENDBRANCH   5   7
BRANCH   1  21
ATOM     21  S   UNL     1       3.000   1.386  -1.701  0.00  0.00    +0.036 S 
ATOM     22  O   UNL     1       2.121   0.458  -2.321  0.00  0.00    -0.158 OA
ATOM     23  O   UNL     1       3.313   2.620  -2.331  0.00  0.00    -0.158 OA
BRANCH  21  24
ATOM     24  C   UNL     1       2.495   1.672   0.018  0.00  0.00    +0.223 C 
BRANCH  24  28
ATOM     25  C   UNL     1      -1.247   3.734   0.077  0.00  0.00    +0.003 A 
ATOM     26  C   UNL     1      -0.064   4.449   0.063  0.00  0.00    +0.020 A 
ATOM     27  C   UNL     1       1.148   3.782   0.043  0.00  0.00    +0.047 A 
ATOM     28  C   UNL     1       1.176   2.399   0.039  0.00  0.00    +0.012 A 
ATOM     29  C   UNL     1      -0.008   1.684   0.054  0.00  0.00    +0.047 A 
ATOM     30  C   UNL     1      -1.220   2.352   0.068  0.00  0.00    +0.020 A 
ATOM     31 CL   UNL     1       0.026  -0.052   0.047  0.00  0.00    -0.083 Cl
ATOM     32 CL   UNL     1       2.633   4.681   0.025  0.00  0.00    -0.083 Cl
ENDBRANCH  24  28
ENDBRANCH  21  24
ENDBRANCH   1  21
TORSDOF 6
