REMARK  Name = ZINC40141424
REMARK  6 active torsions:
REMARK  status: ('A' for Active; 'I' for Inactive)
REMARK    1  A    between atoms: C_1  and  C_2
REMARK    2  A    between atoms: C_2  and  C_3
REMARK    3  A    between atoms: C_3  and  C_5
REMARK    4  A    between atoms: C_3  and  O_19
REMARK    5  A    between atoms: N_7  and  N_8
REMARK    6  A    between atoms: O_19  and  C_20
REMARK                            x       y       z     vdW  Elec       q    Type
REMARK                         _______ _______ _______ _____ _____    ______ ____
ROOT
ATOM      1  C   UNL     1       0.644  -1.999  -1.448  0.00  0.00    +0.273 C 
ATOM      2  O   UNL     1       1.657  -2.664  -1.429  0.00  0.00    -0.270 OA
ATOM      3  N   UNL     1      -0.551  -2.595  -1.630  0.00  0.00    -0.203 N 
ATOM      4  H   UNL     1      -1.361  -2.063  -1.645  0.00  0.00    +0.177 HD
ENDROOT
BRANCH   3   5
ATOM      5  N   UNL     1      -0.622  -3.984  -1.797  0.00  0.00    -0.174 NA
ATOM      6  C   UNL     1      -1.784  -4.564  -1.974  0.00  0.00    +0.152 C 
ATOM      7  C   UNL     1      -2.052  -6.010  -2.160  0.00  0.00    +0.028 A 
ATOM      8  C   UNL     1      -1.232  -7.132  -2.205  0.00  0.00    +0.012 A 
ATOM      9  C   UNL     1      -1.790  -8.380  -2.398  0.00  0.00    +0.001 A 
ATOM     10  C   UNL     1      -3.160  -8.512  -2.545  0.00  0.00    +0.002 A 
ATOM     11  C   UNL     1      -3.982  -7.404  -2.502  0.00  0.00    +0.024 A 
ATOM     12  C   UNL     1      -3.439  -6.139  -2.309  0.00  0.00    +0.043 A 
ATOM     13  N   UNL     1      -4.029  -4.882  -2.227  0.00  0.00    -0.280 N 
ATOM     14  C   UNL     1      -3.112  -3.921  -2.025  0.00  0.00    +0.269 C 
ATOM     15  O   UNL     1      -3.337  -2.731  -1.908  0.00  0.00    -0.268 OA
ATOM     16  H   UNL     1      -4.983  -4.721  -2.302  0.00  0.00    +0.155 HD
ENDBRANCH   3   5
BRANCH   1  17
ATOM     17  C   UNL     1       0.721  -0.504  -1.268  0.00  0.00    +0.260 C 
BRANCH  17  19
ATOM     18  C   UNL     1      -0.014   1.414   0.154  0.00  0.00    +0.008 C 
ATOM     19  C   UNL     1       0.018  -0.111   0.033  0.00  0.00    +0.051 C 
ENDBRANCH  17  19
BRANCH  17  20
ATOM     20  O   UNL     1       2.090  -0.101  -1.210  0.00  0.00    -0.480 OA
BRANCH  20  21
ATOM     21  C   UNL     1       2.421   1.054  -1.846  0.00  0.00    +0.122 A 
ATOM     22  C   UNL     1       3.749   1.442  -1.935  0.00  0.00    +0.047 A 
ATOM     23  C   UNL     1       4.083   2.616  -2.582  0.00  0.00    +0.019 A 
ATOM     24  C   UNL     1       3.093   3.405  -3.140  0.00  0.00    +0.018 A 
ATOM     25  C   UNL     1       1.767   3.020  -3.052  0.00  0.00    +0.019 A 
ATOM     26  C   UNL     1       1.430   1.843  -2.412  0.00  0.00    +0.047 A 
ATOM     27 BR   UNL     1       3.553   5.012  -4.025  0.00  0.00    -0.050 Br
ENDBRANCH  20  21
ENDBRANCH  17  20
ENDBRANCH   1  17
TORSDOF 5
