REMARK  Name = ZINC22966976
REMARK  5 active torsions:
REMARK  status: ('A' for Active; 'I' for Inactive)
REMARK    1  A    between atoms: C_1  and  C_2
REMARK    2  A    between atoms: C_4  and  C_7
REMARK    3  A    between atoms: C_10  and  C_13
REMARK    4  A    between atoms: N_15  and  N_16
REMARK    5  A    between atoms: C_23  and  C_26
REMARK                            x       y       z     vdW  Elec       q    Type
REMARK                         _______ _______ _______ _____ _____    ______ ____
ROOT
ATOM      1  C   UNL     1       1.938   6.426  -3.601  0.00  0.00    +0.262 C 
ATOM      2  O   UNL     1       2.106   7.061  -2.578  0.00  0.00    -0.268 OA
ATOM      3  N   UNL     1       2.569   5.248  -3.775  0.00  0.00    -0.215 N 
ATOM      4  H   UNL     1       2.417   4.674  -4.700  0.00  0.00    +0.176 HD
ENDROOT
BRANCH   3   5
ATOM      5  N   UNL     1       3.419   4.755  -2.776  0.00  0.00    -0.212 N 
ATOM      6  C   UNL     1       4.646   5.312  -2.612  0.00  0.00    +0.223 A 
ATOM      7  N   UNL     1       5.467   4.879  -1.693  0.00  0.00    -0.228 NA
ATOM      8  C   UNL     1       5.125   3.877  -0.886  0.00  0.00    +0.116 A 
ATOM      9  C   UNL     1       3.877   3.241  -0.981  0.00  0.00    +0.081 A 
ATOM     10  C   UNL     1       3.002   3.739  -1.998  0.00  0.00    +0.280 A 
ATOM     11  O   UNL     1       1.897   3.250  -2.158  0.00  0.00    -0.265 OA
ATOM     12  C   UNL     1       3.659   2.163  -0.023  0.00  0.00    +0.004 A 
ATOM     13  C   UNL     1       4.642   1.869   0.862  0.00  0.00    +0.056 A 
ATOM     14  S   UNL     1       5.931   3.028   0.447  0.00  0.00    -0.076 S 
BRANCH  12  15
ATOM     15  C   UNL     1       2.384   1.407  -0.014  0.00  0.00    -0.017 A 
ATOM     16  C   UNL     1       1.167   2.088   0.002  0.00  0.00    +0.008 A 
ATOM     17  C   UNL     1      -0.017   1.379   0.010  0.00  0.00    +0.001 A 
ATOM     18  C   UNL     1       0.002  -0.004   0.002  0.00  0.00    +0.000 A 
ATOM     19  C   UNL     1       1.206  -0.685  -0.013  0.00  0.00    +0.001 A 
ATOM     20  C   UNL     1       2.397   0.013  -0.021  0.00  0.00    +0.008 A 
ENDBRANCH  12  15
ENDBRANCH   3   5
BRANCH   1  24
ATOM     21  C   UNL     1      -0.642   7.924  -6.631  0.00  0.00    +0.039 A 
ATOM     22  C   UNL     1      -0.449   8.653  -5.455  0.00  0.00    +0.014 A 
ATOM     23  C   UNL     1       0.387   8.168  -4.474  0.00  0.00    +0.014 A 
ATOM     24  C   UNL     1       1.041   6.947  -4.654  0.00  0.00    +0.038 A 
ATOM     25  C   UNL     1       0.852   6.221  -5.832  0.00  0.00    +0.014 A 
ATOM     26  C   UNL     1       0.012   6.704  -6.811  0.00  0.00    +0.014 A 
BRANCH  21  30
ATOM     27  C   UNL     1      -3.279   8.492 -10.823  0.00  0.00    +0.091 C 
ATOM     28  C   UNL     1      -2.666   8.700  -9.462  0.00  0.00    +0.169 A 
ATOM     29  N   UNL     1      -1.812   7.872  -8.843  0.00  0.00    -0.192 NA
ATOM     30  C   UNL     1      -1.539   8.445  -7.685  0.00  0.00    +0.258 A 
ATOM     31  O   UNL     1      -2.229   9.595  -7.653  0.00  0.00    -0.333 OA
ATOM     32  N   UNL     1      -2.865   9.719  -8.678  0.00  0.00    -0.061 NA
ENDBRANCH  21  30
ENDBRANCH   1  24
TORSDOF 4
