REMARK  Name = ZINC67240828
REMARK  8 active torsions:
REMARK  status: ('A' for Active; 'I' for Inactive)
REMARK    1  A    between atoms: C_1  and  C_2
REMARK    2  A    between atoms: C_2  and  C_3
REMARK    3  A    between atoms: C_6  and  N_9
REMARK    4  A    between atoms: N_18  and  C_21
REMARK    5  A    between atoms: C_21  and  C_22
REMARK    6  A    between atoms: N_24  and  C_25
REMARK    7  A    between atoms: C_27  and  C_32
REMARK    8  A    between atoms: C_30  and  C_31
REMARK                            x       y       z     vdW  Elec       q    Type
REMARK                         _______ _______ _______ _____ _____    ______ ____
ROOT
ATOM      1  N   UNL     1       2.735  -1.902   4.586  0.00  0.00    -0.207 N 
ATOM      2  C   UNL     1       4.082  -2.118   4.630  0.00  0.00    +0.255 C 
ATOM      3  O   UNL     1       4.907  -1.728   3.831  0.00  0.00    -0.272 OA
ATOM      4  C   UNL     1       4.338  -2.931   5.860  0.00  0.00    +0.246 C 
ATOM      5  C   UNL     1       3.175  -2.322   6.738  0.00  0.00    +0.216 C 
ATOM      6  C   UNL     1       2.119  -2.174   5.781  0.00  0.00    +0.251 C 
ATOM      7  O   UNL     1       0.928  -2.272   5.986  0.00  0.00    -0.273 OA
ATOM      8  N   UNL     1       3.575  -2.776   7.997  0.00  0.00    -0.214 N 
ATOM      9  N   UNL     1       4.994  -2.584   7.940  0.00  0.00    -0.082 NA
ATOM     10  N   UNL     1       5.446  -2.640   6.752  0.00  0.00    -0.156 NA
ENDROOT
BRANCH   1  14
ATOM     11  C   UNL     1       0.716  -0.549   1.199  0.00  0.00    -0.048 A 
ATOM     12  C   UNL     1       2.084  -0.746   1.154  0.00  0.00    +0.005 A 
ATOM     13  C   UNL     1       2.756  -1.194   2.275  0.00  0.00    +0.024 A 
ATOM     14  C   UNL     1       2.056  -1.446   3.447  0.00  0.00    +0.044 A 
ATOM     15  C   UNL     1       0.683  -1.247   3.489  0.00  0.00    +0.024 A 
ATOM     16  C   UNL     1       0.017  -0.794   2.366  0.00  0.00    +0.005 A 
BRANCH  11  18
ATOM     17  C   UNL     1      -0.044   1.470  -0.024  0.00  0.00    +0.009 C 
ATOM     18  C   UNL     1      -0.013  -0.060  -0.026  0.00  0.00    +0.032 C 
ENDBRANCH  11  18
ENDBRANCH   1  14
BRANCH   8  19
ATOM     19  C   UNL     1       2.759  -3.309   9.091  0.00  0.00    +0.224 C 
BRANCH  19  20
ATOM     20  C   UNL     1       2.635  -4.803   8.943  0.00  0.00    +0.236 C 
ATOM     21  O   UNL     1       3.176  -5.368   8.016  0.00  0.00    -0.274 OA
ATOM     22  N   UNL     1       1.923  -5.513   9.841  0.00  0.00    -0.284 N 
ATOM     23  H   UNL     1       1.558  -5.074  10.626  0.00  0.00    +0.155 HD
BRANCH  22  24
ATOM     24  C   UNL     1       1.712  -6.881   9.643  0.00  0.00    +0.037 A 
ATOM     25  C   UNL     1       1.752  -7.413   8.360  0.00  0.00    +0.027 A 
ATOM     26  C   UNL     1       1.543  -8.764   8.167  0.00  0.00    -0.049 A 
ATOM     27  C   UNL     1       1.292  -9.588   9.249  0.00  0.00    +0.004 A 
ATOM     28  C   UNL     1       1.251  -9.062  10.527  0.00  0.00    +0.005 A 
ATOM     29  C   UNL     1       1.466  -7.712  10.728  0.00  0.00    -0.029 A 
ATOM     30  C   UNL     1       1.427  -7.141  12.122  0.00  0.00    +0.045 C 
ATOM     31  C   UNL     1       1.587  -9.341   6.776  0.00  0.00    +0.044 C 
ENDBRANCH  22  24
ENDBRANCH  19  20
ENDBRANCH   8  19
TORSDOF 5
