REMARK  Name = ZINC20572294
REMARK  7 active torsions:
REMARK  status: ('A' for Active; 'I' for Inactive)
REMARK    1  A    between atoms: C_1  and  C_2
REMARK    2  A    between atoms: N_12  and  S_13
REMARK    3  A    between atoms: S_13  and  C_16
REMARK    4  A    between atoms: C_19  and  N_22
REMARK    5  A    between atoms: N_22  and  C_23
REMARK    6  A    between atoms: C_23  and  N_25
REMARK    7  A    between atoms: N_25  and  C_26
REMARK                            x       y       z     vdW  Elec       q    Type
REMARK                         _______ _______ _______ _____ _____    ______ ____
ROOT
ATOM      1  C   UNL     1      -7.572   8.879   0.204  0.00  0.00    +0.109 A 
ATOM      2  C   UNL     1      -6.287   9.385   0.140  0.00  0.00    +0.030 A 
ATOM      3  C   UNL     1      -5.205   8.527   0.138  0.00  0.00    +0.025 A 
ATOM      4  C   UNL     1      -5.409   7.154   0.202  0.00  0.00    +0.033 A 
ATOM      5  C   UNL     1      -6.701   6.649   0.261  0.00  0.00    +0.025 A 
ATOM      6  C   UNL     1      -7.779   7.513   0.268  0.00  0.00    +0.030 A 
ENDROOT
BRANCH   1   7
ATOM      7  S   UNL     1      -8.950   9.977   0.206  0.00  0.00    +0.075 S 
ATOM      8  O   UNL     1     -10.024   9.280   0.823  0.00  0.00    -0.150 OA
ATOM      9  O   UNL     1      -8.474  11.225   0.691  0.00  0.00    -0.150 OA
BRANCH   7  20
ATOM     10  C   UNL     1      -7.799  10.933  -3.101  0.00  0.00    +0.030 C 
ATOM     11  C   UNL     1      -8.883  11.379  -2.118  0.00  0.00    +0.095 C 
ATOM     12  C   UNL     1     -10.062  11.990  -2.887  0.00  0.00    +0.029 C 
ATOM     13  C   UNL     1     -10.573  10.967  -3.901  0.00  0.00    +0.039 C 
ATOM     14  C   UNL     1     -10.832   9.644  -3.231  0.00  0.00    -0.022 A 
ATOM     15  C   UNL     1     -11.679   8.736  -3.846  0.00  0.00    +0.043 A 
ATOM     16  C   UNL     1     -11.920   7.501  -3.263  0.00  0.00    +0.124 A 
ATOM     17  C   UNL     1     -11.329   7.176  -2.054  0.00  0.00    +0.040 A 
ATOM     18  C   UNL     1     -10.490   8.080  -1.433  0.00  0.00    +0.028 A 
ATOM     19  C   UNL     1     -10.239   9.315  -2.022  0.00  0.00    +0.055 A 
ATOM     20  N   UNL     1      -9.387  10.218  -1.373  0.00  0.00    -0.200 N 
ATOM     21  F   UNL     1     -12.743   6.619  -3.870  0.00  0.00    -0.205 F 
ENDBRANCH   7  20
ENDBRANCH   1   7
BRANCH   4  22
ATOM     22  N   UNL     1      -4.315   6.282   0.200  0.00  0.00    -0.297 N 
ATOM     23  H   UNL     1      -4.352   5.354  -0.388  0.00  0.00    +0.154 HD
BRANCH  22  24
ATOM     24  C   UNL     1      -3.215   6.580   0.920  0.00  0.00    +0.139 C 
ATOM     25  S   UNL     1      -3.206   7.955   1.940  0.00  0.00    -0.018 S 
BRANCH  24  26
ATOM     26  N   UNL     1      -2.122   5.796   0.836  0.00  0.00    -0.296 N 
ATOM     27  H   UNL     1      -2.114   4.936   0.150  0.00  0.00    +0.154 HD
BRANCH  26  28
ATOM     28  C   UNL     1      -1.002   6.074   1.620  0.00  0.00    +0.040 A 
ATOM     29  C   UNL     1      -1.152   6.476   2.930  0.00  0.00    +0.024 A 
ATOM     30  C   UNL     1      -0.041   6.756   3.720  0.00  0.00    +0.002 A 
ATOM     31  C   UNL     1       1.222   6.641   3.224  0.00  0.00    +0.008 A 
ATOM     32  C   UNL     1       1.419   6.229   1.895  0.00  0.00    -0.016 A 
ATOM     33  C   UNL     1       0.295   5.947   1.079  0.00  0.00    +0.003 A 
ATOM     34  C   UNL     1       0.493   5.540  -0.250  0.00  0.00    +0.010 A 
ATOM     35  C   UNL     1       1.759   5.428  -0.739  0.00  0.00    +0.001 A 
ATOM     36  C   UNL     1       2.865   5.711   0.061  0.00  0.00    +0.001 A 
ATOM     37  C   UNL     1       2.710   6.107   1.354  0.00  0.00    +0.008 A 
ENDBRANCH  26  28
ENDBRANCH  24  26
ENDBRANCH  22  24
ENDBRANCH   4  22
TORSDOF 6
