REMARK  Name = ZINC20610973
REMARK  4 active torsions:
REMARK  status: ('A' for Active; 'I' for Inactive)
REMARK    1  A    between atoms: C_1  and  O_2
REMARK    2  A    between atoms: O_2  and  C_3
REMARK    3  A    between atoms: C_13  and  C_18
REMARK    4  A    between atoms: N_22  and  C_25
REMARK                            x       y       z     vdW  Elec       q    Type
REMARK                         _______ _______ _______ _____ _____    ______ ____
ROOT
ATOM      1  C   UNL     1       2.666   2.236  -4.057  0.00  0.00    +0.121 A 
ATOM      2  C   UNL     1       3.451   2.224  -5.206  0.00  0.00    +0.047 A 
ATOM      3  C   UNL     1       3.771   1.036  -5.824  0.00  0.00    +0.030 A 
ATOM      4  C   UNL     1       3.309  -0.167  -5.301  0.00  0.00    +0.047 A 
ATOM      5  C   UNL     1       2.514  -0.160  -4.138  0.00  0.00    +0.006 A 
ATOM      6  C   UNL     1       2.202   1.054  -3.518  0.00  0.00    +0.056 A 
ATOM      7  C   UNL     1       2.203  -1.555  -3.861  0.00  0.00    -0.022 A 
ATOM      8  C   UNL     1       2.794  -2.300  -4.818  0.00  0.00    +0.011 A 
ATOM      9  N   UNL     1       3.458  -1.485  -5.686  0.00  0.00    -0.359 N 
ATOM     10  H   UNL     1       3.960  -1.786  -6.460  0.00  0.00    +0.166 HD
ATOM     11  C   UNL     1       2.698  -3.808  -4.858  0.00  0.00    +0.018 C 
ATOM     12  N   UNL     1       2.268  -4.285  -3.535  0.00  0.00    +0.388 N 
ATOM     13  C   UNL     1       1.044  -3.589  -3.116  0.00  0.00    -0.076 C 
ATOM     14  C   UNL     1       1.381  -2.139  -2.741  0.00  0.00    +0.018 C 
ATOM     15  H   UNL     1       2.090  -5.277  -3.579  0.00  0.00    -0.084 HD
ATOM     16  H   UNL     1       2.999  -4.108  -2.862  0.00  0.00    -0.084 HD
ENDROOT
BRANCH  11  17
ATOM     17  C   UNL     1       4.045  -4.392  -5.198  0.00  0.00    +0.073 A 
ATOM     18  C   UNL     1       4.229  -5.069  -6.367  0.00  0.00    +0.260 A 
ATOM     19  N   UNL     1       5.464  -5.593  -6.657  0.00  0.00    -0.274 N 
ATOM     20  C   UNL     1       6.487  -5.442  -5.796  0.00  0.00    +0.337 A 
ATOM     21  N   UNL     1       6.325  -4.777  -4.637  0.00  0.00    -0.229 N 
ATOM     22  C   UNL     1       5.130  -4.242  -4.317  0.00  0.00    +0.267 A 
ATOM     23  O   UNL     1       4.990  -3.636  -3.269  0.00  0.00    -0.267 OA
ATOM     24  O   UNL     1       7.574  -5.913  -6.069  0.00  0.00    -0.246 OA
ATOM     25  O   UNL     1       3.205  -5.224  -7.233  0.00  0.00    -0.267 OA
ATOM     26  H   UNL     1       5.600  -6.075  -7.487  0.00  0.00    +0.173 HD
BRANCH  21  27
ATOM     27  C   UNL     1       7.408  -4.635  -3.759  0.00  0.00    +0.054 A 
ATOM     28  C   UNL     1       7.638  -5.590  -2.778  0.00  0.00    +0.027 A 
ATOM     29  C   UNL     1       8.706  -5.448  -1.915  0.00  0.00    +0.017 A 
ATOM     30  C   UNL     1       9.547  -4.355  -2.026  0.00  0.00    +0.018 A 
ATOM     31  C   UNL     1       9.320  -3.401  -3.002  0.00  0.00    +0.017 A 
ATOM     32  C   UNL     1       8.256  -3.542  -3.873  0.00  0.00    +0.027 A 
ATOM     33 BR   UNL     1      11.008  -4.163  -0.841  0.00  0.00    -0.050 Br
ENDBRANCH  21  27
ENDBRANCH  11  17
BRANCH   1  35
ATOM     34  C   UNL     1       2.871   4.606  -4.068  0.00  0.00    +0.277 C 
ATOM     35  O   UNL     1       2.359   3.418  -3.459  0.00  0.00    -0.495 OA
ENDBRANCH   1  35
TORSDOF 3
