REMARK  Name = ZINC35890998
REMARK  13 active torsions:
REMARK  status: ('A' for Active; 'I' for Inactive)
REMARK    1  A    between atoms: C_1  and  C_2
REMARK    2  A    between atoms: C_2  and  N_3
REMARK    3  A    between atoms: N_3  and  C_4
REMARK    4  A    between atoms: C_4  and  C_5
REMARK    5  A    between atoms: C_10  and  C_12
REMARK    6  A    between atoms: C_12  and  C_14
REMARK    7  A    between atoms: C_12  and  O_33
REMARK    8  A    between atoms: C_14  and  N_15
REMARK    9  A    between atoms: N_15  and  C_16
REMARK   10  A    between atoms: N_15  and  C_26
REMARK   11  A    between atoms: C_16  and  C_17
REMARK   12  A    between atoms: C_26  and  C_27
REMARK   13  A    between atoms: O_33  and  C_34
REMARK                            x       y       z     vdW  Elec       q    Type
REMARK                         _______ _______ _______ _____ _____    ______ ____
ROOT
ATOM      1  C   UNL     1      -1.485  -0.392   2.555  0.00  0.00    +0.242 C 
ENDROOT
BRANCH   1   3
ATOM      2  N   UNL     1      -1.704   0.314   0.194  0.00  0.00    -0.291 N 
ATOM      3  C   UNL     1      -2.149  -0.459   1.204  0.00  0.00    +0.255 C 
ATOM      4  O   UNL     1      -3.085  -1.210   1.026  0.00  0.00    -0.272 OA
BRANCH   2   6
ATOM      5  C   UNL     1      -0.942   2.564   0.777  0.00  0.00    +0.024 C 
ATOM      6  C   UNL     1      -0.515   1.149   0.381  0.00  0.00    +0.105 C 
ENDBRANCH   2   6
BRANCH   2   7
ATOM      7  C   UNL     1      -2.409   0.320  -1.090  0.00  0.00    +0.182 C 
BRANCH   7   8
ATOM      8  C   UNL     1      -1.831  -0.744  -1.986  0.00  0.00    +0.122 A 
ATOM      9  C   UNL     1      -2.252  -2.019  -2.065  0.00  0.00    +0.046 A 
ATOM     10  C   UNL     1      -1.434  -2.662  -3.023  0.00  0.00    +0.041 A 
ATOM     11  C   UNL     1      -0.562  -1.740  -3.472  0.00  0.00    +0.195 A 
ATOM     12  O   UNL     1      -0.811  -0.580  -2.844  0.00  0.00    -0.466 OA
ENDBRANCH   7   8
ENDBRANCH   2   7
ENDBRANCH   1   3
BRANCH   1  13
ATOM     13  C   UNL     1      -0.128  -1.096   2.492  0.00  0.00    -0.023 C 
BRANCH  13  14
ATOM     14  N   UNL     1       0.607  -0.855   3.740  0.00  0.00    +0.387 N 
ATOM     15  H   UNL     1       0.643   0.136   3.924  0.00  0.00    -0.081 HD
BRANCH  14  16
ATOM     16  C   UNL     1      -0.076  -1.534   4.850  0.00  0.00    -0.043 C 
BRANCH  16  17
ATOM     17  C   UNL     1       0.643  -1.236   6.140  0.00  0.00    -0.060 A 
ATOM     18  C   UNL     1       1.669  -2.060   6.565  0.00  0.00    +0.005 A 
ATOM     19  C   UNL     1       2.332  -1.790   7.748  0.00  0.00    +0.050 A 
ATOM     20  C   UNL     1       1.968  -0.692   8.511  0.00  0.00    +0.166 A 
ATOM     21  C   UNL     1       0.935   0.138   8.083  0.00  0.00    +0.166 A 
ATOM     22  C   UNL     1       0.279  -0.136   6.894  0.00  0.00    +0.051 A 
ATOM     23  O   UNL     1       0.771   1.137   8.999  0.00  0.00    -0.453 OA
ATOM     24  C   UNL     1       1.436   0.680  10.191  0.00  0.00    +0.466 C 
ATOM     25  O   UNL     1       2.451  -0.213   9.694  0.00  0.00    -0.453 OA
ENDBRANCH  16  17
ENDBRANCH  14  16
BRANCH  14  26
ATOM     26  C   UNL     1       1.974  -1.379   3.613  0.00  0.00    -0.046 C 
BRANCH  26  27
ATOM     27  C   UNL     1       2.733  -0.572   2.558  0.00  0.00    +0.102 C 
ATOM     28  C   UNL     1       4.146  -1.164   2.362  0.00  0.00    +0.032 C 
ATOM     29  C   UNL     1       5.017   0.111   2.197  0.00  0.00    +0.030 C 
ATOM     30  C   UNL     1       4.284   1.093   3.145  0.00  0.00    +0.160 C 
ATOM     31  O   UNL     1       2.887   0.782   3.001  0.00  0.00    -0.378 OA
ENDBRANCH  26  27
ENDBRANCH  14  26
ENDBRANCH  13  14
ENDBRANCH   1  13
BRANCH   1  32
ATOM     32  O   UNL     1      -2.312  -1.036   3.526  0.00  0.00    -0.481 OA
BRANCH  32  33
ATOM     33  C   UNL     1      -3.304  -0.293   4.082  0.00  0.00    +0.124 A 
ATOM     34  C   UNL     1      -4.068  -0.817   5.115  0.00  0.00    +0.046 A 
ATOM     35  C   UNL     1      -5.077  -0.061   5.680  0.00  0.00    +0.006 A 
ATOM     36  C   UNL     1      -5.327   1.218   5.217  0.00  0.00    +0.038 A 
ATOM     37  C   UNL     1      -4.566   1.744   4.186  0.00  0.00    +0.127 A 
ATOM     38  C   UNL     1      -3.551   0.991   3.622  0.00  0.00    +0.084 A 
ATOM     39  F   UNL     1      -4.812   2.993   3.735  0.00  0.00    -0.205 F 
ENDBRANCH  32  33
ENDBRANCH   1  32
TORSDOF 12
