REMARK  Name = ZINC59271205
REMARK  5 active torsions:
REMARK  status: ('A' for Active; 'I' for Inactive)
REMARK    1  A    between atoms: N_11  and  C_12
REMARK    2  A    between atoms: C_12  and  C_14
REMARK    3  A    between atoms: C_17  and  C_19
REMARK    4  A    between atoms: C_19  and  O_20
REMARK    5  A    between atoms: O_20  and  C_21
REMARK                            x       y       z     vdW  Elec       q    Type
REMARK                         _______ _______ _______ _____ _____    ______ ____
ROOT
ATOM      1  C   UNL     1       4.926  -3.246  -0.166  0.00  0.00    +0.305 C 
ATOM      2  O   UNL     1       5.519  -2.181  -0.165  0.00  0.00    -0.265 OA
ENDROOT
BRANCH   1  13
ATOM      3  C   UNL     1      -0.018   1.375  -0.018  0.00  0.00    +0.002 A 
ATOM      4  C   UNL     1       1.167   2.090  -0.015  0.00  0.00    +0.002 A 
ATOM      5  C   UNL     1       2.379   1.429  -0.020  0.00  0.00    +0.028 A 
ATOM      6  C   UNL     1       2.409   0.041  -0.029  0.00  0.00    +0.065 A 
ATOM      7  C   UNL     1       1.214  -0.680  -0.032  0.00  0.00    +0.065 A 
ATOM      8  C   UNL     1       0.001  -0.005  -0.026  0.00  0.00    +0.028 A 
ATOM      9  N   UNL     1       1.548  -2.030  -0.040  0.00  0.00    -0.326 N 
ATOM     10  H   UNL     1       0.922  -2.771  -0.044  0.00  0.00    +0.169 HD
ATOM     11  C   UNL     1       2.905  -2.134  -0.043  0.00  0.00    +0.199 A 
ATOM     12  N   UNL     1       3.448  -0.885  -0.036  0.00  0.00    -0.326 N 
ATOM     13  N   UNL     1       3.590  -3.269  -0.051  0.00  0.00    -0.140 NA
ATOM     14  H   UNL     1       4.395  -0.677  -0.036  0.00  0.00    +0.169 HD
ENDBRANCH   1  13
BRANCH   1  15
ATOM     15  C   UNL     1       5.675  -4.506  -0.291  0.00  0.00    +0.192 A 
ATOM     16  C   UNL     1       7.029  -4.624  -0.408  0.00  0.00    +0.055 A 
ATOM     17  C   UNL     1       7.308  -5.998  -0.501  0.00  0.00    +0.049 A 
ATOM     18  C   UNL     1       6.125  -6.648  -0.437  0.00  0.00    +0.143 A 
ATOM     19  O   UNL     1       5.144  -5.745  -0.304  0.00  0.00    -0.452 OA
BRANCH  18  20
ATOM     20  C   UNL     1       5.941  -8.143  -0.498  0.00  0.00    +0.303 C 
BRANCH  20  21
ATOM     21  O   UNL     1       5.993  -8.683   0.824  0.00  0.00    -0.484 OA
BRANCH  21  22
ATOM     22  C   UNL     1       5.843 -10.029   0.946  0.00  0.00    +0.121 A 
ATOM     23  C   UNL     1       5.655 -10.812  -0.183  0.00  0.00    +0.047 A 
ATOM     24  C   UNL     1       5.503 -12.180  -0.056  0.00  0.00    +0.019 A 
ATOM     25  C   UNL     1       5.537 -12.767   1.196  0.00  0.00    +0.018 A 
ATOM     26  C   UNL     1       5.724 -11.987   2.323  0.00  0.00    +0.019 A 
ATOM     27  C   UNL     1       5.883 -10.621   2.200  0.00  0.00    +0.047 A 
ATOM     28 BR   UNL     1       5.328 -14.639   1.367  0.00  0.00    -0.050 Br
ENDBRANCH  21  22
ENDBRANCH  20  21
ENDBRANCH  18  20
ENDBRANCH   1  15
TORSDOF 5
