REMARK  Name = ZINC58949899
REMARK  6 active torsions:
REMARK  status: ('A' for Active; 'I' for Inactive)
REMARK    1  A    between atoms: C_1  and  C_2
REMARK    2  A    between atoms: C_6  and  C_7
REMARK    3  A    between atoms: C_12  and  C_16
REMARK    4  A    between atoms: C_12  and  C_17
REMARK    5  A    between atoms: C_19  and  N_24
REMARK    6  A    between atoms: C_20  and  C_21
REMARK                            x       y       z     vdW  Elec       q    Type
REMARK                         _______ _______ _______ _____ _____    ______ ____
ROOT
ATOM      1  C   UNL     1       0.002  -0.087   2.701  0.00  0.00    +0.102 C 
ATOM      2  C   UNL     1      -1.194  -0.652   3.428  0.00  0.00    +0.046 C 
ATOM      3  C   UNL     1      -1.080  -1.766   4.173  0.00  0.00    +0.115 C 
ATOM      4  C   UNL     1      -2.277  -2.338   4.895  0.00  0.00    +0.081 C 
ATOM      5  C   UNL     1      -3.230  -1.208   5.288  0.00  0.00    -0.021 C 
ATOM      6  C   UNL     1      -3.656  -0.468   4.016  0.00  0.00    +0.086 C 
ATOM      7  C   UNL     1      -2.425   0.022   3.303  0.00  0.00    +0.164 C 
ATOM      8  O   UNL     1      -2.494   1.015   2.607  0.00  0.00    -0.292 OA
ATOM      9  C   UNL     1      -2.517  -0.238   6.233  0.00  0.00    +0.012 C 
ATOM     10  C   UNL     1      -4.463  -1.793   5.980  0.00  0.00    +0.012 C 
ATOM     11  O   UNL     1       0.100  -2.405   4.297  0.00  0.00    -0.446 OA
ATOM     12  C   UNL     1       1.251  -1.760   4.047  0.00  0.00    +0.193 C 
ATOM     13  C   UNL     1       1.271  -0.640   3.286  0.00  0.00    +0.083 C 
ENDROOT
BRANCH   1  19
ATOM     14  C   UNL     1      -0.140   1.852   0.323  0.00  0.00    +0.044 C 
ATOM     15  C   UNL     1      -0.143   0.353   0.159  0.00  0.00    -0.039 A 
ATOM     16  C   UNL     1      -0.205  -0.214  -1.100  0.00  0.00    +0.011 A 
ATOM     17  C   UNL     1      -0.206  -1.565  -1.212  0.00  0.00    +0.046 A 
ATOM     18  S   UNL     1      -0.117  -2.078   0.495  0.00  0.00    -0.100 S 
ATOM     19  C   UNL     1      -0.079  -0.457   1.243  0.00  0.00    +0.005 A 
ENDBRANCH   1  19
BRANCH  13  20
ATOM     20  C   UNL     1       2.494   0.009   3.041  0.00  0.00    +0.243 C 
ATOM     21  O   UNL     1       2.790   1.010   3.669  0.00  0.00    -0.271 OA
ATOM     22  N   UNL     1       3.340  -0.477   2.111  0.00  0.00    -0.325 N 
ATOM     23  H   UNL     1       3.106  -1.274   1.610  0.00  0.00    +0.145 HD
ATOM     24  H   UNL     1       4.184  -0.029   1.942  0.00  0.00    +0.145 HD
ENDBRANCH  13  20
BRANCH  12  25
ATOM     25  N   UNL     1       2.421  -2.243   4.571  0.00  0.00    -0.329 N 
ATOM     26  H   UNL     1       2.405  -2.996   5.182  0.00  0.00    +0.145 HD
ATOM     27  H   UNL     1       3.266  -1.831   4.331  0.00  0.00    +0.145 HD
ENDBRANCH  12  25
TORSDOF 3
