REMARK  Name = ZINC12813117
REMARK  10 active torsions:
REMARK  status: ('A' for Active; 'I' for Inactive)
REMARK    1  A    between atoms: C_1  and  C_2
REMARK    2  A    between atoms: C_5  and  C_8
REMARK    3  A    between atoms: C_8  and  C_10
REMARK    4  A    between atoms: C_8  and  N_15
REMARK    5  A    between atoms: N_15  and  C_16
REMARK    6  A    between atoms: C_16  and  C_17
REMARK    7  A    between atoms: N_19  and  C_20
REMARK    8  A    between atoms: C_22  and  S_27
REMARK    9  A    between atoms: C_25  and  C_26
REMARK   10  A    between atoms: S_27  and  N_30
REMARK                            x       y       z     vdW  Elec       q    Type
REMARK                         _______ _______ _______ _____ _____    ______ ____
ROOT
ATOM      1  C   UNL     1      -2.192  -6.621   1.839  0.00  0.00    +0.231 C 
ATOM      2  O   UNL     1      -2.414  -5.908   2.795  0.00  0.00    -0.274 OA
ATOM      3  N   UNL     1      -2.756  -7.843   1.765  0.00  0.00    -0.284 N 
ATOM      4  H   UNL     1      -2.644  -8.381   0.966  0.00  0.00    +0.155 HD
ENDROOT
BRANCH   3   5
ATOM      5  C   UNL     1      -3.501  -8.336   2.842  0.00  0.00    +0.038 A 
ATOM      6  C   UNL     1      -3.263  -7.865   4.127  0.00  0.00    +0.052 A 
ATOM      7  C   UNL     1      -4.001  -8.354   5.187  0.00  0.00    +0.107 A 
ATOM      8  C   UNL     1      -4.975  -9.311   4.971  0.00  0.00    +0.029 A 
ATOM      9  C   UNL     1      -5.214  -9.782   3.693  0.00  0.00    +0.007 A 
ATOM     10  C   UNL     1      -4.485  -9.293   2.627  0.00  0.00    -0.029 A 
ATOM     11  C   UNL     1      -4.751  -9.801   1.234  0.00  0.00    +0.045 C 
BRANCH   7  12
ATOM     12  S   UNL     1      -3.700  -7.757   6.817  0.00  0.00    +0.061 S 
ATOM     13  O   UNL     1      -4.148  -8.768   7.709  0.00  0.00    -0.153 OA
ATOM     14  O   UNL     1      -2.366  -7.266   6.830  0.00  0.00    -0.153 OA
BRANCH  12  15
ATOM     15  N   UNL     1      -4.689  -6.449   7.051  0.00  0.00    -0.172 NA
ATOM     16  C   UNL     1      -4.241  -5.090   6.706  0.00  0.00    +0.137 C 
ATOM     17  C   UNL     1      -5.319  -4.432   5.838  0.00  0.00    +0.177 C 
ATOM     18  O   UNL     1      -6.583  -4.536   6.497  0.00  0.00    -0.377 OA
ATOM     19  C   UNL     1      -7.031  -5.879   6.695  0.00  0.00    +0.177 C 
ATOM     20  C   UNL     1      -6.043  -6.612   7.602  0.00  0.00    +0.137 C 
ENDBRANCH  12  15
ENDBRANCH   7  12
ENDBRANCH   3   5
BRANCH   1  21
ATOM     21  C   UNL     1      -1.288  -6.140   0.734  0.00  0.00    +0.178 C 
BRANCH  21  22
ATOM     22  N   UNL     1      -0.805  -4.789   1.049  0.00  0.00    -0.297 NA
ATOM     23  H   UNL     1      -0.345  -4.769   1.946  0.00  0.00    +0.123 HD
BRANCH  22  24
ATOM     24  C   UNL     1       0.082  -4.287  -0.009  0.00  0.00    +0.122 C 
BRANCH  24  29
ATOM     25  C   UNL     1       0.019   1.491   0.009  0.00  0.00    +0.044 C 
ATOM     26  C   UNL     1       0.036  -0.015   0.004  0.00  0.00    -0.050 A 
ATOM     27  C   UNL     1       0.046  -0.703  -1.195  0.00  0.00    +0.004 A 
ATOM     28  C   UNL     1       0.061  -2.085  -1.199  0.00  0.00    +0.006 A 
ATOM     29  C   UNL     1       0.066  -2.780  -0.004  0.00  0.00    -0.026 A 
ATOM     30  C   UNL     1       0.057  -2.093   1.195  0.00  0.00    +0.006 A 
ATOM     31  C   UNL     1       0.046  -0.710   1.199  0.00  0.00    +0.004 A 
ENDBRANCH  24  29
BRANCH  24  32
ATOM     32  C   UNL     1       1.486  -4.776   0.238  0.00  0.00    +0.011 A 
ATOM     33  C   UNL     1       2.406  -5.215  -0.654  0.00  0.00    +0.013 A 
ATOM     34  C   UNL     1       3.646  -5.619  -0.195  0.00  0.00    +0.008 A 
ATOM     35  C   UNL     1       3.904  -5.563   1.135  0.00  0.00    +0.045 A 
ATOM     36  S   UNL     1       2.370  -4.918   1.782  0.00  0.00    -0.100 S 
ENDBRANCH  24  32
ENDBRANCH  22  24
ENDBRANCH  21  22
ENDBRANCH   1  21
TORSDOF 8
