REMARK  Name = ZINC09162998
REMARK  11 active torsions:
REMARK  status: ('A' for Active; 'I' for Inactive)
REMARK    1  A    between atoms: C_1  and  C_2
REMARK    2  A    between atoms: C_5  and  N_9
REMARK    3  A    between atoms: C_6  and  C_8
REMARK    4  A    between atoms: C_10  and  S_14
REMARK    5  A    between atoms: S_14  and  C_15
REMARK    6  A    between atoms: C_15  and  C_17
REMARK    7  A    between atoms: C_15  and  C_18
REMARK    8  A    between atoms: N_20  and  C_21
REMARK    9  A    between atoms: C_24  and  N_27
REMARK   10  A    between atoms: N_27  and  C_28
REMARK   11  A    between atoms: N_27  and  C_29
REMARK                            x       y       z     vdW  Elec       q    Type
REMARK                         _______ _______ _______ _____ _____    ______ ____
ROOT
ATOM      1  C   UNL     1       5.156   3.602   0.129  0.00  0.00    +0.137 C 
ATOM      2  C   UNL     1       4.774   4.346  -1.153  0.00  0.00    +0.029 C 
ENDROOT
BRANCH   1   3
ATOM      3  C   UNL     1       6.655   3.465   0.202  0.00  0.00    +0.230 C 
ATOM      4  O   UNL     1       7.192   2.454  -0.200  0.00  0.00    -0.274 OA
ATOM      5  N   UNL     1       7.399   4.465   0.714  0.00  0.00    -0.285 N 
ATOM      6  H   UNL     1       6.966   5.246   1.094  0.00  0.00    +0.155 HD
BRANCH   5   7
ATOM      7  C   UNL     1       8.797   4.378   0.698  0.00  0.00    +0.034 A 
ATOM      8  C   UNL     1       9.418   3.148   0.876  0.00  0.00    +0.025 A 
ATOM      9  C   UNL     1      10.796   3.061   0.855  0.00  0.00    +0.025 A 
ATOM     10  C   UNL     1      11.561   4.205   0.665  0.00  0.00    +0.029 A 
ATOM     11  C   UNL     1      10.940   5.435   0.493  0.00  0.00    +0.025 A 
ATOM     12  C   UNL     1       9.562   5.521   0.509  0.00  0.00    +0.025 A 
BRANCH  10  13
ATOM     13  N   UNL     1      12.957   4.117   0.648  0.00  0.00    -0.336 N 
ATOM     14  C   UNL     1      13.767   5.335   0.566  0.00  0.00    +0.129 C 
ATOM     15  C   UNL     1      13.610   2.807   0.712  0.00  0.00    +0.129 C 
ENDBRANCH  10  13
ENDBRANCH   5   7
ENDBRANCH   1   3
BRANCH   1  16
ATOM     16  S   UNL     1       4.399   1.958   0.121  0.00  0.00    -0.072 S 
BRANCH  16  18
ATOM     17  N   UNL     1       1.639   1.554   0.201  0.00  0.00    -0.187 N 
ATOM     18  C   UNL     1       2.696   2.405   0.184  0.00  0.00    +0.215 A 
ATOM     19  N   UNL     1       2.208   3.626   0.222  0.00  0.00    -0.101 NA
ATOM     20  N   UNL     1       0.925   3.598   0.262  0.00  0.00    -0.022 NA
ATOM     21  N   UNL     1       0.502   2.380   0.246  0.00  0.00    -0.038 NA
BRANCH  17  26
ATOM     22  C   UNL     1       1.776  -4.119   0.088  0.00  0.00    +0.044 C 
ATOM     23  C   UNL     1       1.740  -2.613   0.118  0.00  0.00    -0.050 A 
ATOM     24  C   UNL     1       2.470  -1.886  -0.804  0.00  0.00    +0.005 A 
ATOM     25  C   UNL     1       2.434  -0.506  -0.783  0.00  0.00    +0.028 A 
ATOM     26  C   UNL     1       1.673   0.153   0.173  0.00  0.00    +0.073 A 
ATOM     27  C   UNL     1       0.941  -0.579   1.098  0.00  0.00    -0.025 A 
ATOM     28  C   UNL     1       0.976  -1.960   1.068  0.00  0.00    +0.008 A 
ATOM     29  C   UNL     1       0.107   0.132   2.133  0.00  0.00    +0.046 C 
ENDBRANCH  17  26
ENDBRANCH  16  18
ENDBRANCH   1  16
TORSDOF 6
