REMARK  Name = ZINC09428979
REMARK  9 active torsions:
REMARK  status: ('A' for Active; 'I' for Inactive)
REMARK    1  A    between atoms: C_1  and  C_2
REMARK    2  A    between atoms: C_7  and  S_15
REMARK    3  A    between atoms: C_12  and  C_14
REMARK    4  A    between atoms: S_15  and  N_18
REMARK    5  A    between atoms: N_18  and  C_19
REMARK    6  A    between atoms: C_19  and  C_21
REMARK    7  A    between atoms: C_19  and  C_28
REMARK    8  A    between atoms: C_21  and  C_22
REMARK    9  A    between atoms: N_30  and  C_31
REMARK                            x       y       z     vdW  Elec       q    Type
REMARK                         _______ _______ _______ _____ _____    ______ ____
ROOT
ATOM      1  N   UNL     1      -1.697   0.870  -6.397  0.00  0.00    -0.178 NA
ATOM      2  H   UNL     1      -2.407   0.244  -6.611  0.00  0.00    +0.149 HD
ENDROOT
BRANCH   1   3
ATOM      3  S   UNL     1      -1.327   2.094  -7.448  0.00  0.00    +0.059 S 
ATOM      4  O   UNL     1      -2.198   1.950  -8.562  0.00  0.00    -0.153 OA
ATOM      5  O   UNL     1      -1.266   3.287  -6.678  0.00  0.00    -0.153 OA
BRANCH   3  11
ATOM      6  C   UNL     1       5.944   0.778  -7.546  0.00  0.00    +0.029 C 
ATOM      7  C   UNL     1       5.043   1.817  -8.216  0.00  0.00    +0.083 C 
ATOM      8  C   UNL     1       4.025   2.370  -7.207  0.00  0.00    +0.059 C 
ATOM      9  C   UNL     1       2.677   2.003  -7.786  0.00  0.00    -0.022 A 
ATOM     10  C   UNL     1       1.397   2.243  -7.324  0.00  0.00    +0.034 A 
ATOM     11  C   UNL     1       0.304   1.795  -8.043  0.00  0.00    +0.106 A 
ATOM     12  C   UNL     1       0.495   1.116  -9.233  0.00  0.00    +0.030 A 
ATOM     13  C   UNL     1       1.770   0.881  -9.701  0.00  0.00    +0.026 A 
ATOM     14  C   UNL     1       2.878   1.325  -8.977  0.00  0.00    +0.040 A 
ATOM     15  N   UNL     1       4.239   1.192  -9.270  0.00  0.00    -0.268 N 
ATOM     16  C   UNL     1       4.738   0.578 -10.361  0.00  0.00    +0.217 C 
ATOM     17  O   UNL     1       3.988   0.143 -11.209  0.00  0.00    -0.276 OA
ATOM     18  C   UNL     1       6.229   0.432 -10.528  0.00  0.00    +0.109 C 
ENDBRANCH   3  11
ENDBRANCH   1   3
BRANCH   1  19
ATOM     19  C   UNL     1      -0.953   0.731  -5.143  0.00  0.00    +0.166 C 
BRANCH  19  20
ATOM     20  C   UNL     1      -1.710   1.411  -4.031  0.00  0.00    +0.232 C 
ATOM     21  O   UNL     1      -2.768   1.958  -4.264  0.00  0.00    -0.274 OA
ATOM     22  N   UNL     1      -1.213   1.412  -2.779  0.00  0.00    -0.311 N 
ATOM     23  H   UNL     1      -0.367   0.975  -2.593  0.00  0.00    +0.149 HD
BRANCH  22  24
ATOM     24  C   UNL     1      -1.949   2.073  -1.698  0.00  0.00    +0.073 C 
ATOM     25  C   UNL     1      -1.563   1.443  -0.358  0.00  0.00    +0.022 C 
ATOM     26  C   UNL     1      -2.332   2.134   0.770  0.00  0.00    +0.002 C 
ATOM     27  C   UNL     1      -1.983   3.623   0.787  0.00  0.00    +0.000 C 
ATOM     28  C   UNL     1      -2.369   4.253  -0.552  0.00  0.00    +0.002 C 
ATOM     29  C   UNL     1      -1.600   3.563  -1.681  0.00  0.00    +0.022 C 
ENDBRANCH  22  24
ENDBRANCH  19  20
BRANCH  19  30
ATOM     30  C   UNL     1      -0.784  -0.753  -4.811  0.00  0.00    +0.065 C 
BRANCH  30  31
ATOM     31  C   UNL     1       0.090  -1.404  -5.851  0.00  0.00    -0.045 A 
ATOM     32  C   UNL     1      -0.471  -1.901  -7.013  0.00  0.00    +0.004 A 
ATOM     33  C   UNL     1       0.332  -2.494  -7.970  0.00  0.00    +0.000 A 
ATOM     34  C   UNL     1       1.694  -2.598  -7.761  0.00  0.00    +0.000 A 
ATOM     35  C   UNL     1       2.255  -2.106  -6.597  0.00  0.00    +0.000 A 
ATOM     36  C   UNL     1       1.453  -1.508  -5.642  0.00  0.00    +0.004 A 
ENDBRANCH  30  31
ENDBRANCH  19  30
ENDBRANCH   1  19
TORSDOF 7
