REMARK  Name = ZINC08837382
REMARK  5 active torsions:
REMARK  status: ('A' for Active; 'I' for Inactive)
REMARK    1  A    between atoms: C_1  and  C_2
REMARK    2  A    between atoms: C_5  and  C_8
REMARK    3  A    between atoms: C_11  and  C_14
REMARK    4  A    between atoms: C_18  and  N_20
REMARK    5  A    between atoms: C_31  and  C_33
REMARK                            x       y       z     vdW  Elec       q    Type
REMARK                         _______ _______ _______ _____ _____    ______ ____
ROOT
ATOM      1  C   UNL     1       1.202   3.026  -0.919  0.00  0.00    +0.069 C 
ATOM      2  N   UNL     1       0.134   2.827  -1.613  0.00  0.00    -0.181 NA
ATOM      3  N   UNL     1      -0.745   1.904  -1.051  0.00  0.00    -0.183 N 
ATOM      4  C   UNL     1      -0.175   1.412   0.213  0.00  0.00    +0.137 C 
ATOM      5  C   UNL     1       1.163   2.169   0.325  0.00  0.00    +0.087 C 
ATOM      6  C   UNL     1      -1.958   1.514  -1.593  0.00  0.00    +0.239 A 
ATOM      7  N   UNL     1      -2.685   0.626  -0.942  0.00  0.00    -0.213 NA
ATOM      8  C   UNL     1      -3.863   0.222  -1.433  0.00  0.00    +0.077 A 
ATOM      9  C   UNL     1      -4.661  -0.720  -0.767  0.00  0.00    +0.030 A 
ATOM     10  C   UNL     1      -5.853  -1.096  -1.309  0.00  0.00    +0.022 A 
ATOM     11  C   UNL     1      -6.293  -0.560  -2.518  0.00  0.00    +0.042 A 
ATOM     12  C   UNL     1      -5.542   0.358  -3.193  0.00  0.00    +0.032 A 
ATOM     13  C   UNL     1      -4.313   0.766  -2.663  0.00  0.00    +0.028 A 
ATOM     14  C   UNL     1      -3.490   1.717  -3.318  0.00  0.00    +0.084 A 
ATOM     15  N   UNL     1      -2.343   2.054  -2.745  0.00  0.00    -0.212 NA
ATOM     16 CL   UNL     1      -7.818  -1.067  -3.175  0.00  0.00    -0.084 Cl
ENDROOT
BRANCH   1  21
ATOM     17  C   UNL     1       5.460   6.622  -2.341  0.00  0.00    +0.044 C 
ATOM     18  C   UNL     1       4.344   5.680  -1.968  0.00  0.00    -0.050 A 
ATOM     19  C   UNL     1       3.244   5.553  -2.798  0.00  0.00    +0.004 A 
ATOM     20  C   UNL     1       2.219   4.693  -2.463  0.00  0.00    +0.010 A 
ATOM     21  C   UNL     1       2.293   3.949  -1.284  0.00  0.00    -0.002 A 
ATOM     22  C   UNL     1       3.404   4.086  -0.448  0.00  0.00    +0.010 A 
ATOM     23  C   UNL     1       4.424   4.946  -0.798  0.00  0.00    +0.004 A 
ENDBRANCH   1  21
BRANCH   4  24
ATOM     24  C   UNL     1      -1.075   1.752   1.373  0.00  0.00    -0.023 A 
ATOM     25  C   UNL     1      -1.763   2.951   1.386  0.00  0.00    +0.005 A 
ATOM     26  C   UNL     1      -2.589   3.263   2.449  0.00  0.00    +0.003 A 
ATOM     27  C   UNL     1      -2.727   2.376   3.501  0.00  0.00    +0.033 A 
ATOM     28  C   UNL     1      -2.040   1.176   3.487  0.00  0.00    +0.127 A 
ATOM     29  C   UNL     1      -1.218   0.862   2.421  0.00  0.00    +0.038 A 
BRANCH  28  30
ATOM     30  N   UNL     1      -2.188   0.226   4.613  0.00  0.00    +0.056 N 
ATOM     31  O   UNL     1      -2.915   0.502   5.551  0.00  0.00    -0.126 OA
ATOM     32  O   UNL     1      -1.582  -0.830   4.601  0.00  0.00    -0.126 OA
ENDBRANCH  28  30
ENDBRANCH   4  24
BRANCH  14  33
ATOM     33  C   UNL     1      -3.904   2.321  -4.604  0.00  0.00    +0.001 A 
ATOM     34  C   UNL     1      -2.983   2.453  -5.644  0.00  0.00    +0.010 A 
ATOM     35  C   UNL     1      -3.376   3.012  -6.843  0.00  0.00    +0.001 A 
ATOM     36  C   UNL     1      -4.678   3.452  -7.010  0.00  0.00    +0.000 A 
ATOM     37  C   UNL     1      -5.594   3.328  -5.981  0.00  0.00    +0.001 A 
ATOM     38  C   UNL     1      -5.215   2.766  -4.780  0.00  0.00    +0.010 A 
ENDBRANCH  14  33
TORSDOF 4
