REMARK  Name = ZINC35971173
REMARK  11 active torsions:
REMARK  status: ('A' for Active; 'I' for Inactive)
REMARK    1  A    between atoms: C_1  and  C_2
REMARK    2  A    between atoms: C_5  and  C_9
REMARK    3  A    between atoms: C_6  and  C_8
REMARK    4  A    between atoms: N_14  and  C_17
REMARK    5  A    between atoms: C_17  and  C_19
REMARK    6  A    between atoms: C_17  and  C_20
REMARK    7  A    between atoms: N_22  and  C_23
REMARK    8  A    between atoms: C_23  and  C_24
REMARK    9  A    between atoms: C_24  and  C_25
REMARK   10  A    between atoms: C_24  and  C_26
REMARK   11  A    between atoms: N_27  and  C_31
REMARK                            x       y       z     vdW  Elec       q    Type
REMARK                         _______ _______ _______ _____ _____    ______ ____
ROOT
ATOM      1  C   UNL     1       0.169  -4.240   0.422  0.00  0.00    +0.142 C 
ATOM      2  C   UNL     1       1.591  -4.580   0.821  0.00  0.00    +0.058 C 
ATOM      3  C   UNL     1       2.263  -5.463   0.055  0.00  0.00    +0.042 C 
ATOM      4  C   UNL     1       3.633  -5.611   0.677  0.00  0.00    +0.160 C 
ATOM      5  N   UNL     1       3.615  -4.718   1.845  0.00  0.00    -0.281 N 
ATOM      6  C   UNL     1       2.402  -4.139   1.887  0.00  0.00    +0.247 C 
ATOM      7  O   UNL     1       2.050  -3.338   2.734  0.00  0.00    -0.270 OA
ATOM      8  N   UNL     1       1.683  -6.033  -1.043  0.00  0.00    -0.260 N 
ATOM      9  C   UNL     1       0.431  -5.770  -1.440  0.00  0.00    +0.307 C 
ATOM     10  O   UNL     1      -0.001  -6.326  -2.431  0.00  0.00    -0.252 OA
ATOM     11  N   UNL     1      -0.364  -4.907  -0.778  0.00  0.00    -0.288 N 
ATOM     12  C   UNL     1       2.473  -6.984  -1.828  0.00  0.00    +0.139 C 
ATOM     13  H   UNL     1      -1.267  -4.731  -1.084  0.00  0.00    +0.151 HD
ENDROOT
BRANCH   1  18
ATOM     14  C   UNL     1      -0.125   1.467  -0.436  0.00  0.00    +0.044 C 
ATOM     15  C   UNL     1      -0.049  -0.021  -0.212  0.00  0.00    -0.050 A 
ATOM     16  C   UNL     1       1.159  -0.680  -0.353  0.00  0.00    +0.004 A 
ATOM     17  C   UNL     1       1.229  -2.045  -0.147  0.00  0.00    +0.006 A 
ATOM     18  C   UNL     1       0.092  -2.752   0.199  0.00  0.00    -0.020 A 
ATOM     19  C   UNL     1      -1.114  -2.093   0.340  0.00  0.00    -0.045 A 
ATOM     20  C   UNL     1      -1.184  -0.727   0.139  0.00  0.00    +0.007 A 
ATOM     21  C   UNL     1      -2.354  -2.863   0.717  0.00  0.00    +0.044 C 
ENDBRANCH   1  18
BRANCH   5  22
ATOM     22  C   UNL     1       4.715  -4.500   2.789  0.00  0.00    +0.159 C 
ATOM     23  C   UNL     1       5.111  -3.022   2.777  0.00  0.00    +0.038 C 
BRANCH  22  24
ATOM     24  C   UNL     1       4.272  -4.890   4.176  0.00  0.00    +0.233 C 
ATOM     25  O   UNL     1       3.148  -5.310   4.358  0.00  0.00    -0.274 OA
ATOM     26  N   UNL     1       5.124  -4.773   5.213  0.00  0.00    -0.314 N 
ATOM     27  H   UNL     1       6.022  -4.438   5.067  0.00  0.00    +0.149 HD
BRANCH  26  28
ATOM     28  C   UNL     1       4.694  -5.153   6.561  0.00  0.00    +0.107 C 
BRANCH  28  29
ATOM     29  C   UNL     1       5.842  -4.925   7.546  0.00  0.00    -0.000 C 
ATOM     30  C   UNL     1       6.154  -3.430   7.628  0.00  0.00    +0.009 C 
ATOM     31  C   UNL     1       5.436  -5.437   8.930  0.00  0.00    +0.009 C 
ENDBRANCH  28  29
ENDBRANCH  26  28
ENDBRANCH  22  24
ENDBRANCH   5  22
TORSDOF 5
