REMARK  Name = ZINC20765053
REMARK  6 active torsions:
REMARK  status: ('A' for Active; 'I' for Inactive)
REMARK    1  A    between atoms: C_1  and  O_2
REMARK    2  A    between atoms: O_2  and  C_3
REMARK    3  A    between atoms: C_6  and  C_9
REMARK    4  A    between atoms: C_11  and  C_24
REMARK    5  A    between atoms: C_14  and  C_17
REMARK    6  A    between atoms: C_22  and  O_23
REMARK                            x       y       z     vdW  Elec       q    Type
REMARK                         _______ _______ _______ _____ _____    ______ ____
ROOT
ATOM      1  C   UNL     1       4.129  -0.125   1.428  0.00  0.00    +0.047 C 
ATOM      2  N   UNL     1       4.373  -0.916   0.451  0.00  0.00    -0.264 NA
ATOM      3  C   UNL     1       3.603  -0.949  -0.787  0.00  0.00    +0.208 C 
ATOM      4  N   UNL     1       2.305  -0.290  -0.608  0.00  0.00    -0.284 NA
ATOM      5  C   UNL     1       2.490   1.047  -0.016  0.00  0.00    +0.095 C 
ATOM      6  C   UNL     1       3.001   0.869   1.417  0.00  0.00    +0.079 C 
ATOM      7  H   UNL     1       1.808  -0.186  -1.584  0.00  0.00    +0.125 HD
ENDROOT
BRANCH   3   8
ATOM      8  C   UNL     1       3.380  -2.383  -1.195  0.00  0.00    +0.045 A 
ATOM      9  C   UNL     1       4.301  -3.355  -0.842  0.00  0.00    +0.131 A 
ATOM     10  C   UNL     1       4.095  -4.671  -1.217  0.00  0.00    +0.039 A 
ATOM     11  C   UNL     1       2.970  -5.015  -1.944  0.00  0.00    +0.004 A 
ATOM     12  C   UNL     1       2.051  -4.044  -2.297  0.00  0.00    +0.020 A 
ATOM     13  C   UNL     1       2.253  -2.729  -1.917  0.00  0.00    +0.050 A 
ATOM     14 CL   UNL     1       1.094  -1.512  -2.354  0.00  0.00    -0.083 Cl
ATOM     15  F   UNL     1       5.400  -3.019  -0.132  0.00  0.00    -0.205 F 
ENDBRANCH   3   8
BRANCH   1  19
ATOM     16  C   UNL     1       6.625  -0.315   4.857  0.00  0.00    +0.120 A 
ATOM     17  C   UNL     1       6.861  -1.161   3.780  0.00  0.00    +0.046 A 
ATOM     18  C   UNL     1       6.054  -1.103   2.665  0.00  0.00    +0.013 A 
ATOM     19  C   UNL     1       4.995  -0.191   2.619  0.00  0.00    -0.004 A 
ATOM     20  C   UNL     1       4.764   0.661   3.702  0.00  0.00    +0.013 A 
ATOM     21  C   UNL     1       5.573   0.592   4.815  0.00  0.00    +0.046 A 
BRANCH  16  23
ATOM     22  C   UNL     1       7.123   0.522   7.024  0.00  0.00    +0.277 C 
ATOM     23  O   UNL     1       7.423  -0.376   5.953  0.00  0.00    -0.495 OA
ENDBRANCH  16  23
ENDBRANCH   1  19
BRANCH   5  24
ATOM     24  C   UNL     1       1.175   1.782   0.000  0.00  0.00    +0.011 A 
ATOM     25  C   UNL     1      -0.013   1.076   0.008  0.00  0.00    +0.009 A 
ATOM     26  C   UNL     1      -1.219   1.750   0.017  0.00  0.00    +0.001 A 
ATOM     27  C   UNL     1      -1.242   3.133   0.030  0.00  0.00    +0.004 A 
ATOM     28  C   UNL     1      -0.057   3.844   0.022  0.00  0.00    +0.046 A 
ATOM     29  C   UNL     1       1.155   3.169   0.008  0.00  0.00    +0.122 A 
BRANCH  29  30
ATOM     30  O   UNL     1       2.322   3.866  -0.000  0.00  0.00    -0.506 OA
ATOM     31  H   UNL     1       2.305   4.966   0.005  0.00  0.00    +0.292 HD
ENDBRANCH  29  30
ENDBRANCH   5  24
TORSDOF 5
