REMARK  Name = ZINC13582575
REMARK  8 active torsions:
REMARK  status: ('A' for Active; 'I' for Inactive)
REMARK    1  A    between atoms: C_1  and  C_2
REMARK    2  A    between atoms: C_3  and  C_13
REMARK    3  A    between atoms: N_15  and  N_16
REMARK    4  A    between atoms: C_17  and  C_18
REMARK    5  A    between atoms: C_17  and  C_19
REMARK    6  A    between atoms: C_22  and  O_25
REMARK    7  A    between atoms: O_25  and  C_26
REMARK    8  A    between atoms: C_26  and  C_27
REMARK                            x       y       z     vdW  Elec       q    Type
REMARK                         _______ _______ _______ _____ _____    ______ ____
ROOT
ATOM      1  C   UNL     1       0.847   1.633  -1.773  0.00  0.00    +0.285 C 
ATOM      2  O   UNL     1       1.821   0.942  -2.006  0.00  0.00    -0.267 OA
ATOM      3  N   UNL     1      -0.162   1.145  -1.024  0.00  0.00    -0.201 N 
ATOM      4  H   UNL     1      -0.940   1.695  -0.842  0.00  0.00    +0.178 HD
ENDROOT
BRANCH   1   7
ATOM      5  C   UNL     1       3.035   3.025  -3.520  0.00  0.00    +0.068 C 
ATOM      6  C   UNL     1       1.724   3.618  -3.072  0.00  0.00    +0.076 A 
ATOM      7  C   UNL     1       0.772   3.005  -2.308  0.00  0.00    +0.172 A 
ATOM      8  N   UNL     1      -0.244   3.866  -2.123  0.00  0.00    -0.124 NA
ATOM      9  N   UNL     1       0.013   4.974  -2.726  0.00  0.00    -0.058 NA
ATOM     10  N   UNL     1       1.263   4.858  -3.351  0.00  0.00    -0.192 N 
ATOM     11  C   UNL     1       1.911   5.838  -4.111  0.00  0.00    +0.240 A 
ATOM     12  C   UNL     1       1.396   7.180  -4.398  0.00  0.00    +0.206 A 
ATOM     13  N   UNL     1       2.273   7.807  -5.133  0.00  0.00    -0.032 NA
ATOM     14  O   UNL     1       3.363   6.929  -5.351  0.00  0.00    -0.239 OA
ATOM     15  N   UNL     1       3.076   5.715  -4.680  0.00  0.00    -0.027 NA
ATOM     16  N   UNL     1       0.182   7.697  -3.961  0.00  0.00    -0.337 N 
ATOM     17  H   UNL     1      -0.408   7.154  -3.415  0.00  0.00    +0.144 HD
ATOM     18  H   UNL     1      -0.075   8.601  -4.202  0.00  0.00    +0.144 HD
ENDBRANCH   1   7
BRANCH   3  19
ATOM     19  N   UNL     1      -0.090  -0.158  -0.516  0.00  0.00    -0.184 NA
ATOM     20  C   UNL     1      -1.108  -0.669   0.107  0.00  0.00    +0.063 C 
ATOM     21  C   UNL     1      -0.972  -1.993   0.813  0.00  0.00    +0.068 C 
BRANCH  20  22
ATOM     22  C   UNL     1      -2.397   0.047   0.123  0.00  0.00    -0.002 A 
ATOM     23  C   UNL     1      -3.202   0.014   1.265  0.00  0.00    +0.013 A 
ATOM     24  C   UNL     1      -4.403   0.689   1.278  0.00  0.00    +0.046 A 
ATOM     25  C   UNL     1      -4.820   1.391   0.154  0.00  0.00    +0.121 A 
ATOM     26  C   UNL     1      -4.026   1.421  -0.985  0.00  0.00    +0.046 A 
ATOM     27  C   UNL     1      -2.820   0.754  -1.005  0.00  0.00    +0.013 A 
BRANCH  25  28
ATOM     28  O   UNL     1      -6.007   2.051   0.169  0.00  0.00    -0.487 OA
BRANCH  28  29
ATOM     29  C   UNL     1      -6.774   1.978   1.373  0.00  0.00    +0.264 C 
BRANCH  29  30
ATOM     30  C   UNL     1      -8.049   2.764   1.204  0.00  0.00    -0.010 A 
ATOM     31  C   UNL     1      -8.085   4.104   1.542  0.00  0.00    +0.008 A 
ATOM     32  C   UNL     1      -9.253   4.826   1.383  0.00  0.00    +0.015 A 
ATOM     33  C   UNL     1     -10.389   4.205   0.895  0.00  0.00    +0.018 A 
ATOM     34  C   UNL     1     -10.354   2.862   0.562  0.00  0.00    +0.015 A 
ATOM     35  C   UNL     1      -9.184   2.143   0.717  0.00  0.00    +0.008 A 
ATOM     36 BR   UNL     1     -11.989   5.190   0.683  0.00  0.00    -0.050 Br
ENDBRANCH  29  30
ENDBRANCH  28  29
ENDBRANCH  25  28
ENDBRANCH  20  22
ENDBRANCH   3  19
TORSDOF 6
