REMARK  Name = ZINC01876425
REMARK  7 active torsions:
REMARK  status: ('A' for Active; 'I' for Inactive)
REMARK    1  A    between atoms: C_3  and  C_9
REMARK    2  A    between atoms: C_9  and  O_10
REMARK    3  A    between atoms: O_10  and  C_11
REMARK    4  A    between atoms: C_14  and  C_18
REMARK    5  A    between atoms: N_19  and  N_20
REMARK    6  A    between atoms: C_21  and  C_23
REMARK    7  A    between atoms: C_26  and  N_29
REMARK                            x       y       z     vdW  Elec       q    Type
REMARK                         _______ _______ _______ _____ _____    ______ ____
ROOT
ATOM      1  C   UNL     1       4.456   4.429  -0.019  0.00  0.00    +0.153 A 
ATOM      2  C   UNL     1       5.015   4.849   1.182  0.00  0.00    +0.084 A 
ATOM      3  C   UNL     1       6.096   5.705   1.180  0.00  0.00    +0.033 A 
ATOM      4  C   UNL     1       6.630   6.150  -0.033  0.00  0.00    -0.003 A 
ATOM      5  C   UNL     1       6.064   5.726  -1.238  0.00  0.00    +0.028 A 
ATOM      6  C   UNL     1       4.987   4.865  -1.227  0.00  0.00    +0.062 A 
ATOM      7 BR   UNL     1       4.225   4.284  -2.857  0.00  0.00    -0.046 Br
ATOM      8 CL   UNL     1       4.351   4.295   2.687  0.00  0.00    -0.080 Cl
ENDROOT
BRANCH   4   9
ATOM      9  C   UNL     1       7.785   7.065  -0.040  0.00  0.00    +0.138 C 
ATOM     10  N   UNL     1       8.280   7.478  -1.167  0.00  0.00    -0.187 NA
BRANCH  10  11
ATOM     11  N   UNL     1       9.378   8.347  -1.174  0.00  0.00    -0.202 N 
ATOM     12  C   UNL     1       9.891   8.776  -2.345  0.00  0.00    +0.282 C 
ATOM     13  O   UNL     1       9.401   8.407  -3.394  0.00  0.00    -0.267 OA
ATOM     14  H   UNL     1       9.769   8.641  -0.337  0.00  0.00    +0.178 HD
BRANCH  12  15
ATOM     15  C   UNL     1      11.052   9.695  -2.352  0.00  0.00    +0.127 A 
ATOM     16  C   UNL     1      11.574  10.139  -3.565  0.00  0.00    +0.035 A 
ATOM     17  C   UNL     1      12.661  10.999  -3.556  0.00  0.00    +0.036 A 
ATOM     18  C   UNL     1      13.187  11.386  -2.333  0.00  0.00    +0.144 A 
ATOM     19  C   UNL     1      12.617  10.906  -1.165  0.00  0.00    +0.144 A 
ATOM     20  N   UNL     1      11.583  10.094  -1.203  0.00  0.00    -0.248 NA
BRANCH  18  21
ATOM     21  N   UNL     1      14.348  12.303  -2.276  0.00  0.00    +0.058 N 
ATOM     22  O   UNL     1      14.841  12.719  -3.299  0.00  0.00    -0.126 OA
ATOM     23  O   UNL     1      14.802  12.637  -1.207  0.00  0.00    -0.126 OA
ENDBRANCH  18  21
ENDBRANCH  12  15
ENDBRANCH  10  11
ENDBRANCH   4   9
BRANCH   1  24
ATOM     24  O   UNL     1       3.390   3.586  -0.013  0.00  0.00    -0.485 OA
BRANCH  24  25
ATOM     25  C   UNL     1       3.671   2.185  -0.023  0.00  0.00    +0.266 C 
BRANCH  25  28
ATOM     26  C   UNL     1      -0.017   1.379   0.010  0.00  0.00    +0.020 A 
ATOM     27  C   UNL     1       1.171   2.087   0.002  0.00  0.00    +0.010 A 
ATOM     28  C   UNL     1       2.377   1.413  -0.013  0.00  0.00    +0.008 A 
ATOM     29  C   UNL     1       2.397   0.029  -0.021  0.00  0.00    +0.049 A 
ATOM     30  C   UNL     1       1.210  -0.679  -0.013  0.00  0.00    +0.040 A 
ATOM     31  C   UNL     1       0.002  -0.004   0.002  0.00  0.00    +0.042 A 
ATOM     32 CL   UNL     1      -1.489  -0.893   0.012  0.00  0.00    -0.083 Cl
ATOM     33 CL   UNL     1       3.913  -0.817  -0.041  0.00  0.00    -0.083 Cl
ENDBRANCH  25  28
ENDBRANCH  24  25
ENDBRANCH   1  24
TORSDOF 7
