REMARK  Name = ZINC20898683
REMARK  5 active torsions:
REMARK  status: ('A' for Active; 'I' for Inactive)
REMARK    1  A    between atoms: C_1  and  C_2
REMARK    2  A    between atoms: C_2  and  C_3
REMARK    3  A    between atoms: C_6  and  N_9
REMARK    4  A    between atoms: C_12  and  C_14
REMARK    5  A    between atoms: C_15  and  C_22
REMARK                            x       y       z     vdW  Elec       q    Type
REMARK                         _______ _______ _______ _____ _____    ______ ____
ROOT
ATOM      1  N   UNL     1      -1.503   9.216   1.044  0.00  0.00    -0.218 N 
ATOM      2  C   UNL     1      -2.593   8.483   1.460  0.00  0.00    +0.133 A 
ATOM      3  C   UNL     1      -2.238   7.181   1.406  0.00  0.00    +0.033 A 
ATOM      4  C   UNL     1      -0.905   7.117   0.948  0.00  0.00    +0.067 A 
ATOM      5  N   UNL     1      -0.474   8.327   0.735  0.00  0.00    -0.170 NA
ATOM      6  C   UNL     1      -0.109   5.854   0.739  0.00  0.00    +0.068 C 
ATOM      7  C   UNL     1      -3.022   5.951   1.740  0.00  0.00    +0.112 C 
ATOM      8  S   UNL     1      -4.770   6.098   1.359  0.00  0.00    -0.138 S 
ATOM      9  C   UNL     1      -5.424   7.325   2.499  0.00  0.00    +0.166 C 
ATOM     10  C   UNL     1      -4.934   8.691   2.220  0.00  0.00    +0.228 C 
ATOM     11  O   UNL     1      -5.756   9.569   2.371  0.00  0.00    -0.275 OA
ATOM     12  N   UNL     1      -3.761   9.101   1.837  0.00  0.00    -0.269 N 
ATOM     13  H   UNL     1      -3.823  10.199   1.852  0.00  0.00    +0.156 HD
ENDROOT
BRANCH   7  14
ATOM     14  C   UNL     1      -2.454   4.790   0.964  0.00  0.00    -0.026 A 
ATOM     15  C   UNL     1      -2.626   4.726  -0.406  0.00  0.00    +0.009 A 
ATOM     16  C   UNL     1      -2.108   3.663  -1.122  0.00  0.00    +0.050 A 
ATOM     17  C   UNL     1      -1.413   2.659  -0.467  0.00  0.00    +0.166 A 
ATOM     18  C   UNL     1      -1.239   2.724   0.913  0.00  0.00    +0.167 A 
ATOM     19  C   UNL     1      -1.762   3.792   1.624  0.00  0.00    +0.054 A 
ATOM     20  O   UNL     1      -0.526   1.629   1.317  0.00  0.00    -0.453 OA
ATOM     21  C   UNL     1       0.079   1.105   0.120  0.00  0.00    +0.466 C 
ATOM     22  O   UNL     1      -0.813   1.524  -0.930  0.00  0.00    -0.453 OA
ENDBRANCH   7  14
BRANCH   1  26
ATOM     23  C   UNL     1      -1.313  13.370   0.760  0.00  0.00    -0.047 A 
ATOM     24  C   UNL     1      -1.891  12.780   1.869  0.00  0.00    +0.006 A 
ATOM     25  C   UNL     1      -1.956  11.404   1.966  0.00  0.00    +0.028 A 
ATOM     26  C   UNL     1      -1.439  10.613   0.949  0.00  0.00    +0.067 A 
ATOM     27  C   UNL     1      -0.854  11.208  -0.161  0.00  0.00    +0.028 A 
ATOM     28  C   UNL     1      -0.798  12.585  -0.255  0.00  0.00    +0.006 A 
BRANCH  23  30
ATOM     29  C   UNL     1       0.061  15.367   1.284  0.00  0.00    +0.009 C 
ATOM     30  C   UNL     1      -1.244  14.872   0.657  0.00  0.00    +0.032 C 
ENDBRANCH  23  30
ENDBRANCH   1  26
TORSDOF 3
