REMARK  Name = ZINC36584015
REMARK  16 active torsions:
REMARK  status: ('A' for Active; 'I' for Inactive)
REMARK    1  A    between atoms: C_1  and  C_2
REMARK    2  A    between atoms: C_2  and  C_3
REMARK    3  A    between atoms: C_2  and  C_4
REMARK    4  A    between atoms: C_2  and  N_5
REMARK    5  A    between atoms: C_6  and  C_8
REMARK    6  A    between atoms: C_8  and  C_10
REMARK    7  A    between atoms: C_8  and  N_19
REMARK    8  A    between atoms: C_13  and  O_18
REMARK    9  A    between atoms: C_14  and  O_16
REMARK   10  A    between atoms: O_16  and  C_17
REMARK   11  A    between atoms: N_19  and  C_30
REMARK   12  A    between atoms: C_20  and  C_22
REMARK   13  A    between atoms: C_22  and  C_23
REMARK   14  A    between atoms: C_30  and  C_31
REMARK   15  A    between atoms: C_30  and  C_32
REMARK   16  A    between atoms: C_30  and  C_33
REMARK                            x       y       z     vdW  Elec       q    Type
REMARK                         _______ _______ _______ _____ _____    ______ ____
ROOT
ATOM      1  C   UNL     1       2.960  -1.046  -3.026  0.00  0.00    +0.193 C 
ENDROOT
BRANCH   1   2
ATOM      2  C   UNL     1       2.756  -1.458  -4.461  0.00  0.00    -0.015 A 
ATOM      3  C   UNL     1       3.024  -0.562  -5.480  0.00  0.00    +0.010 A 
ATOM      4  C   UNL     1       2.838  -0.935  -6.798  0.00  0.00    +0.049 A 
ATOM      5  C   UNL     1       2.383  -2.208  -7.101  0.00  0.00    +0.158 A 
ATOM      6  C   UNL     1       2.113  -3.109  -6.075  0.00  0.00    +0.162 A 
ATOM      7  C   UNL     1       2.306  -2.731  -4.756  0.00  0.00    +0.055 A 
BRANCH   6   8
ATOM      8  O   UNL     1       1.666  -4.360  -6.367  0.00  0.00    -0.491 OA
ATOM      9  C   UNL     1       1.410  -5.231  -5.264  0.00  0.00    +0.277 C 
ENDBRANCH   6   8
BRANCH   5  10
ATOM     10  O   UNL     1       2.199  -2.576  -8.397  0.00  0.00    -0.503 OA
ATOM     11  H   UNL     1       2.980  -2.972  -8.808  0.00  0.00    +0.292 HD
ENDBRANCH   5  10
ENDBRANCH   1   2
BRANCH   1  13
ATOM     12  N   UNL     1       0.719  -1.880  -2.392  0.00  0.00    -0.309 N 
ATOM     13  C   UNL     1       1.621  -0.879  -2.356  0.00  0.00    +0.239 C 
ATOM     14  O   UNL     1       1.354   0.157  -1.783  0.00  0.00    -0.273 OA
ATOM     15  H   UNL     1       0.932  -2.708  -2.850  0.00  0.00    +0.149 HD
BRANCH  12  17
ATOM     16  C   UNL     1      -1.321  -0.532  -2.366  0.00  0.00    +0.031 C 
ATOM     17  C   UNL     1      -0.583  -1.717  -1.741  0.00  0.00    +0.026 C 
ATOM     18  C   UNL     1      -0.377  -1.459  -0.247  0.00  0.00    +0.031 C 
ATOM     19  C   UNL     1      -1.410  -2.990  -1.929  0.00  0.00    +0.031 C 
ENDBRANCH  12  17
ENDBRANCH   1  13
BRANCH   1  20
ATOM     20  N   UNL     1       3.691   0.222  -2.980  0.00  0.00    -0.281 N 
ATOM     21  C   UNL     1       3.100   1.356  -3.408  0.00  0.00    +0.221 C 
ATOM     22  O   UNL     1       1.976   1.320  -3.862  0.00  0.00    -0.275 OA
BRANCH  20  23
ATOM     23  C   UNL     1       5.064   0.259  -2.471  0.00  0.00    +0.030 C 
ATOM     24  C   UNL     1       5.622  -1.164  -2.404  0.00  0.00    +0.031 C 
ATOM     25  C   UNL     1       5.932   1.104  -3.405  0.00  0.00    +0.031 C 
ATOM     26  C   UNL     1       5.072   0.876  -1.071  0.00  0.00    +0.031 C 
ENDBRANCH  20  23
BRANCH  21  27
ATOM     27  C   UNL     1       3.836   2.668  -3.321  0.00  0.00    +0.131 C 
BRANCH  27  28
ATOM     28  C   UNL     1       2.900   3.794  -3.676  0.00  0.00    -0.039 A 
ATOM     29  C   UNL     1       2.780   4.206  -4.990  0.00  0.00    +0.005 A 
ATOM     30  C   UNL     1       1.921   5.238  -5.316  0.00  0.00    +0.015 A 
ATOM     31  C   UNL     1       1.180   5.859  -4.326  0.00  0.00    +0.018 A 
ATOM     32  C   UNL     1       1.300   5.447  -3.011  0.00  0.00    +0.015 A 
ATOM     33  C   UNL     1       2.155   4.411  -2.688  0.00  0.00    +0.005 A 
ATOM     34 BR   UNL     1       0.004   7.272  -4.771  0.00  0.00    -0.050 Br
ENDBRANCH  27  28
ENDBRANCH  21  27
ENDBRANCH   1  20
TORSDOF 9
