REMARK  Name = ZINC50705422
REMARK  3 active torsions:
REMARK  status: ('A' for Active; 'I' for Inactive)
REMARK    1  A    between atoms: C_2  and  C_9
REMARK    2  A    between atoms: C_6  and  N_7
REMARK    3  A    between atoms: N_11  and  C_12
REMARK                            x       y       z     vdW  Elec       q    Type
REMARK                         _______ _______ _______ _____ _____    ______ ____
ROOT
ATOM      1  C   UNL     1       1.224   3.560   0.009  0.00  0.00    +0.245 C 
ATOM      2  O   UNL     1       0.184   4.188   0.022  0.00  0.00    -0.270 OA
ATOM      3  N   UNL     1       2.405   4.211   0.001  0.00  0.00    -0.300 N 
ATOM      4  H   UNL     1       3.235   3.709  -0.009  0.00  0.00    +0.150 HD
ENDROOT
BRANCH   3   5
ATOM      5  C   UNL     1       2.434   5.675   0.008  0.00  0.00    +0.159 C 
ATOM      6  C   UNL     1       3.744   6.161  -0.616  0.00  0.00    +0.033 C 
ATOM      7  C   UNL     1       3.878   7.666  -0.351  0.00  0.00    +0.021 C 
ATOM      8  C   UNL     1       4.079   7.883   1.149  0.00  0.00    +0.104 C 
ATOM      9  N   UNL     1       3.058   7.173   1.909  0.00  0.00    -0.314 N 
ATOM     10  C   UNL     1       2.329   6.170   1.423  0.00  0.00    +0.233 C 
ATOM     11  O   UNL     1       1.536   5.627   2.163  0.00  0.00    -0.274 OA
ATOM     12  H   UNL     1       2.900   7.448   2.825  0.00  0.00    +0.149 HD
ENDBRANCH   3   5
BRANCH   1  14
ATOM     13  C   UNL     1      -0.017   1.386   0.010  0.00  0.00    +0.056 A 
ATOM     14  C   UNL     1       1.195   2.079   0.002  0.00  0.00    +0.043 A 
ATOM     15  C   UNL     1       2.381   1.337  -0.013  0.00  0.00    +0.053 A 
ATOM     16  C   UNL     1       2.313  -0.043  -0.020  0.00  0.00    +0.132 A 
ATOM     17  N   UNL     1       1.149  -0.665  -0.013  0.00  0.00    -0.221 NA
ATOM     18  C   UNL     1       0.002  -0.004   0.002  0.00  0.00    +0.119 A 
ATOM     19 CL   UNL     1       3.779  -0.972  -0.040  0.00  0.00    -0.062 Cl
BRANCH  18  20
ATOM     20  N   UNL     1      -1.197  -0.708   0.010  0.00  0.00    -0.343 N 
ATOM     21  H   UNL     1      -2.040  -0.229   0.021  0.00  0.00    +0.144 HD
ATOM     22  H   UNL     1      -1.190  -1.678   0.005  0.00  0.00    +0.144 HD
ENDBRANCH  18  20
ENDBRANCH   1  14
TORSDOF 3
