REMARK  Name = ZINC32988862
REMARK  7 active torsions:
REMARK  status: ('A' for Active; 'I' for Inactive)
REMARK    1  A    between atoms: C_1  and  C_2
REMARK    2  A    between atoms: C_3  and  C_15
REMARK    3  A    between atoms: C_4  and  C_7
REMARK    4  A    between atoms: N_17  and  C_18
REMARK    5  A    between atoms: C_18  and  C_19
REMARK    6  A    between atoms: C_19  and  C_20
REMARK    7  A    between atoms: C_20  and  N_21
REMARK                            x       y       z     vdW  Elec       q    Type
REMARK                         _______ _______ _______ _____ _____    ______ ____
ROOT
ATOM      1  C   UNL     1       0.168   1.612   0.003  0.00  0.00    +0.250 C 
ATOM      2  O   UNL     1       0.383   0.415   0.037  0.00  0.00    -0.270 OA
ATOM      3  N   UNL     1       1.197   2.481  -0.052  0.00  0.00    -0.311 N 
ATOM      4  H   UNL     1       1.002   3.563  -0.082  0.00  0.00    +0.149 HD
ENDROOT
BRANCH   1   7
ATOM      5  C   UNL     1      -1.609   2.354   2.549  0.00  0.00    +0.090 C 
ATOM      6  C   UNL     1      -2.000   2.436   1.096  0.00  0.00    +0.147 A 
ATOM      7  C   UNL     1      -1.217   2.111   0.016  0.00  0.00    +0.106 A 
ATOM      8  C   UNL     1      -2.107   2.393  -1.131  0.00  0.00    +0.130 A 
ATOM      9  N   UNL     1      -3.227   2.811  -0.599  0.00  0.00    -0.077 NA
ATOM     10  O   UNL     1      -3.174   2.840   0.607  0.00  0.00    -0.359 OA
BRANCH   8  11
ATOM     11  C   UNL     1      -1.798   2.232  -2.571  0.00  0.00    +0.058 A 
ATOM     12  C   UNL     1      -1.241   1.041  -3.041  0.00  0.00    +0.134 A 
ATOM     13  C   UNL     1      -0.961   0.896  -4.387  0.00  0.00    +0.039 A 
ATOM     14  C   UNL     1      -1.220   1.933  -5.265  0.00  0.00    +0.004 A 
ATOM     15  C   UNL     1      -1.765   3.117  -4.805  0.00  0.00    +0.021 A 
ATOM     16  C   UNL     1      -2.056   3.273  -3.463  0.00  0.00    +0.053 A 
ATOM     17 CL   UNL     1      -2.740   4.761  -2.888  0.00  0.00    -0.083 Cl
ATOM     18  F   UNL     1      -0.983   0.030  -2.183  0.00  0.00    -0.205 F 
ENDBRANCH   8  11
ENDBRANCH   1   7
BRANCH   3  19
ATOM     19  C   UNL     1       2.575   1.984  -0.071  0.00  0.00    +0.106 C 
BRANCH  19  20
ATOM     20  C   UNL     1       3.543   3.167  -0.134  0.00  0.00    +0.038 C 
BRANCH  20  21
ATOM     21  C   UNL     1       4.982   2.648  -0.154  0.00  0.00    +0.119 C 
BRANCH  21  22
ATOM     22  N   UNL     1       5.909   3.781  -0.215  0.00  0.00    -0.224 N 
ATOM     23  C   UNL     1       6.418   4.405   0.869  0.00  0.00    +0.246 C 
ATOM     24  O   UNL     1       6.205   4.146   2.034  0.00  0.00    -0.273 OA
ATOM     25  C   UNL     1       7.308   5.491   0.322  0.00  0.00    +0.113 C 
ATOM     26  C   UNL     1       8.758   5.304   0.788  0.00  0.00    +0.035 C 
ATOM     27  C   UNL     1       9.281   6.752   0.974  0.00  0.00    +0.003 C 
ATOM     28  C   UNL     1       8.046   7.495   1.543  0.00  0.00    +0.003 C 
ATOM     29  C   UNL     1       6.849   6.874   0.790  0.00  0.00    +0.035 C 
ATOM     30  N   UNL     1       7.199   5.356  -1.132  0.00  0.00    -0.285 N 
ATOM     31  C   UNL     1       6.361   4.323  -1.353  0.00  0.00    +0.309 C 
ATOM     32  O   UNL     1       6.049   3.930  -2.460  0.00  0.00    -0.252 OA
ATOM     33  H   UNL     1       7.754   6.040  -1.791  0.00  0.00    +0.151 HD
ENDBRANCH  21  22
ENDBRANCH  20  21
ENDBRANCH  19  20
ENDBRANCH   3  19
TORSDOF 6
