REMARK  Name = ZINC38902783
REMARK  9 active torsions:
REMARK  status: ('A' for Active; 'I' for Inactive)
REMARK    1  A    between atoms: C_1  and  C_2
REMARK    2  A    between atoms: N_11  and  C_12
REMARK    3  A    between atoms: C_12  and  C_13
REMARK    4  A    between atoms: C_13  and  N_14
REMARK    5  A    between atoms: C_15  and  C_20
REMARK    6  A    between atoms: C_17  and  C_19
REMARK    7  A    between atoms: C_21  and  C_23
REMARK    8  A    between atoms: C_25  and  C_29
REMARK    9  A    between atoms: N_27  and  C_28
REMARK                            x       y       z     vdW  Elec       q    Type
REMARK                         _______ _______ _______ _____ _____    ______ ____
ROOT
ATOM      1  C   UNL     1       7.316   0.954   3.119  0.00  0.00    +0.046 C 
ATOM      2  C   UNL     1       7.164  -0.539   2.984  0.00  0.00    -0.023 A 
ATOM      3  C   UNL     1       8.188  -1.279   2.451  0.00  0.00    +0.025 A 
ATOM      4  C   UNL     1       8.090  -2.656   2.308  0.00  0.00    +0.042 A 
ATOM      5  C   UNL     1       6.932  -3.298   2.714  0.00  0.00    +0.037 A 
ATOM      6  C   UNL     1       5.903  -2.565   3.249  0.00  0.00    +0.042 A 
ATOM      7  C   UNL     1       5.970  -1.162   3.414  0.00  0.00    +0.083 A 
ATOM      8  N   UNL     1       4.878  -0.585   3.961  0.00  0.00    -0.224 NA
ATOM      9  C   UNL     1       3.822  -1.274   4.322  0.00  0.00    +0.168 A 
ATOM     10  S   UNL     1       4.287  -2.943   3.883  0.00  0.00    -0.052 S 
ATOM     11  N   UNL     1       2.643  -0.823   4.890  0.00  0.00    -0.243 N 
ATOM     12  C   UNL     1       2.433   0.499   5.047  0.00  0.00    +0.270 C 
ATOM     13  O   UNL     1       3.210   1.300   4.562  0.00  0.00    -0.268 OA
ATOM     14 CL   UNL     1       9.404  -3.564   1.628  0.00  0.00    -0.083 Cl
ENDROOT
BRANCH  12  15
ATOM     15  C   UNL     1       1.265   0.974   5.803  0.00  0.00    +0.124 A 
ATOM     16  C   UNL     1       0.627   2.195   5.668  0.00  0.00    +0.057 A 
ATOM     17  C   UNL     1      -0.415   2.174   6.596  0.00  0.00    +0.061 A 
ATOM     18  N   UNL     1      -0.376   1.022   7.218  0.00  0.00    -0.176 NA
ATOM     19  N   UNL     1       0.588   0.296   6.777  0.00  0.00    -0.262 N 
ATOM     20  C   UNL     1       0.913  -1.052   7.249  0.00  0.00    +0.173 C 
ATOM     21  C   UNL     1      -1.410   3.279   6.840  0.00  0.00    +0.067 C 
ENDBRANCH  12  15
BRANCH  11  22
ATOM     22  C   UNL     1       1.623  -1.782   5.321  0.00  0.00    +0.139 C 
BRANCH  22  23
ATOM     23  C   UNL     1       2.189  -2.661   6.438  0.00  0.00    +0.163 C 
BRANCH  23  24
ATOM     24  N   UNL     1       1.526  -3.967   6.415  0.00  0.00    -0.267 N 
ATOM     25  C   UNL     1       0.590  -4.398   7.287  0.00  0.00    +0.036 A 
ATOM     26  C   UNL     1       0.233  -5.652   6.923  0.00  0.00    +0.047 A 
ATOM     27  C   UNL     1       0.976  -5.999   5.789  0.00  0.00    +0.060 A 
ATOM     28  N   UNL     1       1.747  -4.987   5.481  0.00  0.00    -0.176 NA
ATOM     29  C   UNL     1       0.897  -7.308   5.048  0.00  0.00    +0.067 C 
ATOM     30  C   UNL     1       0.042  -3.623   8.457  0.00  0.00    +0.065 C 
ENDBRANCH  23  24
ENDBRANCH  22  23
ENDBRANCH  11  22
TORSDOF 4
