REMARK  Name = ZINC09302535
REMARK  10 active torsions:
REMARK  status: ('A' for Active; 'I' for Inactive)
REMARK    1  A    between atoms: C_1  and  C_2
REMARK    2  A    between atoms: C_2  and  N_3
REMARK    3  A    between atoms: C_4  and  C_21
REMARK    4  A    between atoms: C_7  and  S_8
REMARK    5  A    between atoms: S_8  and  C_9
REMARK    6  A    between atoms: C_9  and  C_11
REMARK    7  A    between atoms: C_9  and  C_12
REMARK    8  A    between atoms: C_17  and  C_20
REMARK    9  A    between atoms: C_21  and  N_22
REMARK   10  A    between atoms: C_23  and  C_25
REMARK                            x       y       z     vdW  Elec       q    Type
REMARK                         _______ _______ _______ _____ _____    ______ ____
ROOT
ATOM      1  N   UNL     1      -0.749   3.044   1.275  0.00  0.00    -0.305 N 
ATOM      2  C   UNL     1       0.186   3.880   1.820  0.00  0.00    +0.151 A 
ATOM      3  N   UNL     1      -0.212   5.101   1.605  0.00  0.00    -0.132 NA
ATOM      4  N   UNL     1      -1.331   5.095   0.973  0.00  0.00    -0.122 NA
ATOM      5  C   UNL     1      -1.708   3.858   0.745  0.00  0.00    +0.192 A 
ENDROOT
BRANCH   1   7
ATOM      6  C   UNL     1      -0.013   1.086   0.008  0.00  0.00    +0.027 C 
ATOM      7  C   UNL     1      -0.729   1.579   1.267  0.00  0.00    +0.122 C 
ENDBRANCH   1   7
BRANCH   5   8
ATOM      8  S   UNL     1      -3.174   3.346  -0.088  0.00  0.00    -0.074 S 
BRANCH   8   9
ATOM      9  C   UNL     1      -3.896   4.960  -0.475  0.00  0.00    +0.137 C 
ATOM     10  C   UNL     1      -4.269   5.676   0.825  0.00  0.00    +0.029 C 
BRANCH   9  11
ATOM     11  C   UNL     1      -5.131   4.770  -1.316  0.00  0.00    +0.232 C 
ATOM     12  O   UNL     1      -5.749   3.727  -1.259  0.00  0.00    -0.274 OA
ATOM     13  N   UNL     1      -5.550   5.757  -2.132  0.00  0.00    -0.264 N 
ATOM     14  C   UNL     1      -6.690   5.581  -2.908  0.00  0.00    +0.165 A 
ATOM     15  N   UNL     1      -7.255   6.421  -3.753  0.00  0.00    -0.230 NA
ATOM     16  C   UNL     1      -8.343   6.091  -4.420  0.00  0.00    +0.047 A 
ATOM     17  C   UNL     1      -8.882   4.865  -4.210  0.00  0.00    +0.071 A 
ATOM     18  S   UNL     1      -7.739   4.201  -3.008  0.00  0.00    -0.060 S 
ATOM     19  C   UNL     1      -8.977   7.056  -5.389  0.00  0.00    +0.066 C 
ATOM     20  H   UNL     1      -5.056   6.591  -2.178  0.00  0.00    +0.157 HD
ENDBRANCH   9  11
ENDBRANCH   8   9
ENDBRANCH   5   8
BRANCH   2  21
ATOM     21  C   UNL     1       1.446   3.464   2.535  0.00  0.00    +0.181 C 
BRANCH  21  22
ATOM     22  N   UNL     1       2.540   3.345   1.568  0.00  0.00    -0.304 N 
ATOM     23  C   UNL     1       3.770   2.982   1.983  0.00  0.00    +0.244 C 
ATOM     24  O   UNL     1       3.972   2.755   3.160  0.00  0.00    -0.270 OA
ATOM     25  H   UNL     1       2.379   3.527   0.629  0.00  0.00    +0.149 HD
BRANCH  23  26
ATOM     26  C   UNL     1       4.874   2.862   1.007  0.00  0.00    +0.038 A 
ATOM     27  C   UNL     1       4.643   3.118  -0.346  0.00  0.00    +0.014 A 
ATOM     28  C   UNL     1       5.678   3.009  -1.251  0.00  0.00    +0.022 A 
ATOM     29  C   UNL     1       6.941   2.636  -0.823  0.00  0.00    +0.059 A 
ATOM     30  C   UNL     1       7.175   2.376   0.518  0.00  0.00    +0.060 A 
ATOM     31  C   UNL     1       6.149   2.487   1.434  0.00  0.00    +0.034 A 
ATOM     32 CL   UNL     1       8.761   1.910   1.046  0.00  0.00    -0.082 Cl
ATOM     33 CL   UNL     1       8.236   2.495  -1.970  0.00  0.00    -0.082 Cl
ENDBRANCH  23  26
ENDBRANCH  21  22
ENDBRANCH   2  21
TORSDOF 7
