REMARK  Name = ZINC60138802
REMARK  11 active torsions:
REMARK  status: ('A' for Active; 'I' for Inactive)
REMARK    1  A    between atoms: C_1  and  C_2
REMARK    2  A    between atoms: C_5  and  O_8
REMARK    3  A    between atoms: O_8  and  C_9
REMARK    4  A    between atoms: C_9  and  C_10
REMARK    5  A    between atoms: C_10  and  C_12
REMARK    6  A    between atoms: C_10  and  N_13
REMARK    7  A    between atoms: C_14  and  C_16
REMARK    8  A    between atoms: C_16  and  N_17
REMARK    9  A    between atoms: C_22  and  C_29
REMARK   10  A    between atoms: C_25  and  C_27
REMARK   11  A    between atoms: C_25  and  C_28
REMARK                            x       y       z     vdW  Elec       q    Type
REMARK                         _______ _______ _______ _____ _____    ______ ____
ROOT
ATOM      1  C   UNL     1       3.115  -8.336  -0.126  0.00  0.00    +0.213 C 
ENDROOT
BRANCH   1   2
ATOM      2  N   UNL     1       3.420  -9.732   0.195  0.00  0.00    -0.215 N 
ATOM      3  C   UNL     1       4.172 -10.124   1.247  0.00  0.00    +0.247 C 
ATOM      4  O   UNL     1       4.837  -9.408   1.962  0.00  0.00    -0.273 OA
ATOM      5  C   UNL     1       4.003 -11.623   1.323  0.00  0.00    +0.113 C 
ATOM      6  C   UNL     1       5.353 -12.318   1.411  0.00  0.00    +0.038 C 
ATOM      7  C   UNL     1       5.959 -12.111   2.799  0.00  0.00    -0.011 C 
ATOM      8  C   UNL     1       5.035 -12.746   3.836  0.00  0.00    +0.009 C 
ATOM      9  C   UNL     1       3.661 -12.085   3.823  0.00  0.00    -0.032 C 
ATOM     10  C   UNL     1       3.053 -12.031   2.432  0.00  0.00    +0.041 C 
ATOM     11  C   UNL     1       3.747 -10.683   4.432  0.00  0.00    +0.011 C 
ATOM     12  C   UNL     1       2.727 -12.923   4.721  0.00  0.00    +0.011 C 
ATOM     13  C   UNL     1       7.331 -12.790   2.859  0.00  0.00    +0.007 C 
ATOM     14  N   UNL     1       3.380 -11.952   0.021  0.00  0.00    -0.285 N 
ATOM     15  C   UNL     1       3.014 -10.781  -0.529  0.00  0.00    +0.310 C 
ATOM     16  O   UNL     1       2.385 -10.685  -1.565  0.00  0.00    -0.252 OA
ATOM     17  H   UNL     1       3.265 -12.839  -0.347  0.00  0.00    +0.151 HD
ENDBRANCH   1   2
BRANCH   1  19
ATOM     18  N   UNL     1       1.344  -6.688   0.389  0.00  0.00    -0.308 N 
ATOM     19  C   UNL     1       1.825  -7.937   0.544  0.00  0.00    +0.231 C 
ATOM     20  O   UNL     1       1.221  -8.740   1.223  0.00  0.00    -0.274 OA
ATOM     21  H   UNL     1       1.827  -6.046  -0.154  0.00  0.00    +0.149 HD
BRANCH  18  22
ATOM     22  C   UNL     1       0.090  -6.300   1.040  0.00  0.00    +0.107 C 
ATOM     23  C   UNL     1      -1.091  -6.708   0.157  0.00  0.00    +0.031 C 
BRANCH  22  24
ATOM     24  C   UNL     1       0.072  -4.785   1.249  0.00  0.00    +0.251 C 
BRANCH  24  25
ATOM     25  O   UNL     1       0.057  -4.129  -0.021  0.00  0.00    -0.490 OA
BRANCH  25  30
ATOM     26  C   UNL     1      -0.018   1.503   0.010  0.00  0.00    +0.044 C 
ATOM     27  C   UNL     1       0.002  -0.004   0.002  0.00  0.00    -0.050 A 
ATOM     28  C   UNL     1       0.006  -0.688  -1.200  0.00  0.00    +0.007 A 
ATOM     29  C   UNL     1       0.024  -2.069  -1.210  0.00  0.00    +0.046 A 
ATOM     30  C   UNL     1       0.039  -2.770  -0.013  0.00  0.00    +0.121 A 
ATOM     31  C   UNL     1       0.036  -2.082   1.191  0.00  0.00    +0.046 A 
ATOM     32  C   UNL     1       0.023  -0.701   1.196  0.00  0.00    +0.007 A 
ENDBRANCH  25  30
ENDBRANCH  24  25
ENDBRANCH  22  24
ENDBRANCH  18  22
ENDBRANCH   1  19
TORSDOF 6
