REMARK  Name = ZINC34374848
REMARK  14 active torsions:
REMARK  status: ('A' for Active; 'I' for Inactive)
REMARK    1  A    between atoms: C_1  and  C_2
REMARK    2  A    between atoms: C_4  and  O_39
REMARK    3  A    between atoms: C_6  and  O_35
REMARK    4  A    between atoms: C_8  and  O_34
REMARK    5  A    between atoms: C_10  and  O_13
REMARK    6  A    between atoms: O_13  and  C_14
REMARK    7  A    between atoms: C_18  and  O_33
REMARK    8  A    between atoms: C_20  and  O_32
REMARK    9  A    between atoms: C_24  and  C_25
REMARK   10  A    between atoms: C_28  and  O_31
REMARK   11  A    between atoms: O_35  and  C_36
REMARK   12  A    between atoms: C_36  and  C_38
REMARK   13  A    between atoms: O_39  and  C_40
REMARK   14  A    between atoms: C_40  and  C_42
REMARK                            x       y       z     vdW  Elec       q    Type
REMARK                         _______ _______ _______ _____ _____    ______ ____
ROOT
ATOM      1  C   UNL     1       2.082  -0.167   3.367  0.00  0.00    +0.214 A 
ATOM      2  C   UNL     1       1.994   1.200   3.740  0.00  0.00    +0.238 A 
ATOM      3  O   UNL     1       2.123   2.091   2.916  0.00  0.00    -0.283 OA
ATOM      4  C   UNL     1       1.742   1.500   5.158  0.00  0.00    +0.109 A 
ATOM      5  C   UNL     1       1.640   2.821   5.614  0.00  0.00    +0.135 A 
ATOM      6  C   UNL     1       1.402   3.062   6.954  0.00  0.00    +0.091 A 
ATOM      7  C   UNL     1       1.264   2.000   7.842  0.00  0.00    +0.124 A 
ATOM      8  C   UNL     1       1.365   0.691   7.398  0.00  0.00    +0.092 A 
ATOM      9  C   UNL     1       1.602   0.428   6.057  0.00  0.00    +0.147 A 
ATOM     10  O   UNL     1       1.701  -0.841   5.609  0.00  0.00    -0.451 OA
ATOM     11  C   UNL     1       1.927  -1.131   4.316  0.00  0.00    +0.181 A 
ENDROOT
BRANCH  11  12
ATOM     12  C   UNL     1       2.015  -2.546   3.912  0.00  0.00    +0.021 A 
ATOM     13  C   UNL     1       3.079  -2.984   3.119  0.00  0.00    +0.015 A 
ATOM     14  C   UNL     1       3.158  -4.307   2.743  0.00  0.00    +0.046 A 
ATOM     15  C   UNL     1       2.181  -5.206   3.151  0.00  0.00    +0.117 A 
ATOM     16  C   UNL     1       1.120  -4.776   3.940  0.00  0.00    +0.046 A 
ATOM     17  C   UNL     1       1.037  -3.456   4.325  0.00  0.00    +0.015 A 
BRANCH  15  18
ATOM     18  O   UNL     1       2.261  -6.509   2.778  0.00  0.00    -0.507 OA
ATOM     19  H   UNL     1       2.687  -7.080   3.433  0.00  0.00    +0.292 HD
ENDBRANCH  15  18
ENDBRANCH  11  12
BRANCH   7  20
ATOM     20  O   UNL     1       1.031   2.248   9.156  0.00  0.00    -0.507 OA
ATOM     21  H   UNL     1       0.093   2.305   9.385  0.00  0.00    +0.292 HD
ENDBRANCH   7  20
BRANCH   5  22
ATOM     22  O   UNL     1       1.775   3.856   4.747  0.00  0.00    -0.506 OA
ATOM     23  H   UNL     1       0.944   4.142   4.343  0.00  0.00    +0.292 HD
ENDBRANCH   5  22
BRANCH   1  24
ATOM     24  O   UNL     1       2.313  -0.510   2.071  0.00  0.00    -0.453 OA
BRANCH  24  30
ATOM     25  C   UNL     1      -1.389   0.669   0.610  0.00  0.00    +0.042 C 
ATOM     26  C   UNL     1      -0.926  -0.780   0.440  0.00  0.00    +0.164 C 
ATOM     27  C   UNL     1      -0.474  -1.005  -1.005  0.00  0.00    +0.248 C 
ATOM     28  C   UNL     1       0.722  -0.096  -1.306  0.00  0.00    +0.254 C 
ATOM     29  C   UNL     1       1.836  -0.388  -0.296  0.00  0.00    +0.227 C 
ATOM     30  C   UNL     1       1.295  -0.186   1.122  0.00  0.00    +0.341 C 
ATOM     31  O   UNL     1       0.166  -1.038   1.325  0.00  0.00    -0.333 OA
BRANCH  29  32
ATOM     32  O   UNL     1       2.281  -1.737  -0.452  0.00  0.00    -0.382 OA
ATOM     33  H   UNL     1       2.988  -1.991   0.157  0.00  0.00    +0.210 HD
ENDBRANCH  29  32
BRANCH  28  34
ATOM     34  O   UNL     1       1.195  -0.351  -2.630  0.00  0.00    -0.455 OA
BRANCH  34  35
ATOM     35  C   UNL     1       1.762   0.676  -3.282  0.00  0.00    +0.304 C 
ATOM     36  O   UNL     1       1.854   1.755  -2.747  0.00  0.00    -0.251 OA
ATOM     37  C   UNL     1       2.285   0.483  -4.682  0.00  0.00    +0.136 C 
ENDBRANCH  34  35
ENDBRANCH  28  34
BRANCH  27  38
ATOM     38  O   UNL     1      -1.548  -0.693  -1.895  0.00  0.00    -0.455 OA
BRANCH  38  39
ATOM     39  C   UNL     1      -2.384  -1.693  -2.216  0.00  0.00    +0.304 C 
ATOM     40  O   UNL     1      -2.209  -2.797  -1.757  0.00  0.00    -0.251 OA
ATOM     41  C   UNL     1      -3.539  -1.439  -3.150  0.00  0.00    +0.136 C 
ENDBRANCH  38  39
ENDBRANCH  27  38
ENDBRANCH  24  30
ENDBRANCH   1  24
TORSDOF 11
