REMARK  Name = ZINC09614654
REMARK  9 active torsions:
REMARK  status: ('A' for Active; 'I' for Inactive)
REMARK    1  A    between atoms: C_1  and  C_2
REMARK    2  A    between atoms: C_3  and  C_28
REMARK    3  A    between atoms: C_15  and  C_16
REMARK    4  A    between atoms: C_15  and  C_22
REMARK    5  A    between atoms: C_15  and  N_66
REMARK    6  A    between atoms: C_28  and  C_29
REMARK    7  A    between atoms: C_29  and  C_30
REMARK    8  A    between atoms: C_30  and  C_31
REMARK    9  A    between atoms: C_30  and  C_32
REMARK                            x       y       z     vdW  Elec       q    Type
REMARK                         _______ _______ _______ _____ _____    ______ ____
ROOT
ATOM      1  C   UNL     1       1.261   3.136   0.684  0.00  0.00    +0.066 C 
ATOM      2  C   UNL     1       1.201   1.632   0.747  0.00  0.00    +0.050 A 
ATOM      3  C   UNL     1       2.343   0.912   0.945  0.00  0.00    +0.038 A 
ATOM      4  C   UNL     1       2.261  -0.491   1.000  0.00  0.00    +0.256 A 
ATOM      5  O   UNL     1       3.263  -1.165   1.177  0.00  0.00    -0.267 OA
ATOM      6  N   UNL     1       1.054  -1.077   0.853  0.00  0.00    -0.295 N 
ATOM      7  H   UNL     1       0.974  -2.043   0.888  0.00  0.00    +0.172 HD
ATOM      8  C   UNL     1      -0.051  -0.308   0.657  0.00  0.00    +0.198 A 
ATOM      9  N   UNL     1       0.034   1.007   0.608  0.00  0.00    -0.221 NA
ATOM     10  N   UNL     1      -1.272  -0.909   0.510  0.00  0.00    -0.305 N 
ATOM     11  C   UNL     1      -1.220  -1.962  -0.514  0.00  0.00    +0.089 C 
ATOM     12  C   UNL     1      -2.579  -2.661  -0.593  0.00  0.00    -0.058 C 
ATOM     13  C   UNL     1      -3.671  -0.620   0.114  0.00  0.00    -0.058 C 
ATOM     14  C   UNL     1      -2.311   0.080   0.193  0.00  0.00    +0.089 C 
ATOM     15  N   UNL     1      -3.611  -1.660  -0.934  0.00  0.00    +0.389 N 
ATOM     16  H   UNL     1      -3.366  -1.219  -1.828  0.00  0.00    -0.080 HD
ENDROOT
BRANCH  15  17
ATOM     17  C   UNL     1      -4.929  -2.317  -1.069  0.00  0.00    -0.007 C 
BRANCH  17  18
ATOM     18  C   UNL     1      -5.962  -1.278  -1.418  0.00  0.00    -0.057 A 
ATOM     19  C   UNL     1      -5.673  -0.305  -2.357  0.00  0.00    +0.002 A 
ATOM     20  C   UNL     1      -6.623   0.646  -2.681  0.00  0.00    +0.000 A 
ATOM     21  C   UNL     1      -7.857   0.630  -2.060  0.00  0.00    +0.000 A 
ATOM     22  C   UNL     1      -8.144  -0.340  -1.117  0.00  0.00    +0.000 A 
ATOM     23  C   UNL     1      -7.197  -1.294  -0.797  0.00  0.00    +0.002 A 
ENDBRANCH  17  18
BRANCH  17  24
ATOM     24  C   UNL     1      -4.854  -3.342  -2.171  0.00  0.00    -0.057 A 
ATOM     25  C   UNL     1      -4.216  -3.034  -3.358  0.00  0.00    +0.002 A 
ATOM     26  C   UNL     1      -4.144  -3.976  -4.368  0.00  0.00    +0.000 A 
ATOM     27  C   UNL     1      -4.717  -5.222  -4.194  0.00  0.00    +0.000 A 
ATOM     28  C   UNL     1      -5.359  -5.528  -3.008  0.00  0.00    +0.000 A 
ATOM     29  C   UNL     1      -5.427  -4.588  -1.997  0.00  0.00    +0.002 A 
ENDBRANCH  17  24
ENDBRANCH  15  17
BRANCH   3  30
ATOM     30  C   UNL     1       3.670   1.609   1.104  0.00  0.00    +0.042 C 
BRANCH  30  31
ATOM     31  C   UNL     1       3.970   1.801   2.592  0.00  0.00    +0.008 C 
BRANCH  31  32
ATOM     32  C   UNL     1       5.317   2.508   2.753  0.00  0.00    -0.017 C 
ATOM     33  C   UNL     1       5.223   3.921   2.173  0.00  0.00    +0.007 C 
ATOM     34  C   UNL     1       5.676   2.589   4.238  0.00  0.00    +0.007 C 
ENDBRANCH  31  32
ENDBRANCH  30  31
ENDBRANCH   3  30
TORSDOF 6
