REMARK  Name = ZINC36213937
REMARK  10 active torsions:
REMARK  status: ('A' for Active; 'I' for Inactive)
REMARK    1  A    between atoms: C_1  and  C_2
REMARK    2  A    between atoms: C_2  and  N_3
REMARK    3  A    between atoms: C_9  and  C_12
REMARK    4  A    between atoms: C_12  and  C_14
REMARK    5  A    between atoms: C_12  and  N_21
REMARK    6  A    between atoms: N_16  and  C_17
REMARK    7  A    between atoms: C_17  and  C_18
REMARK    8  A    between atoms: C_18  and  C_19
REMARK    9  A    between atoms: C_18  and  C_20
REMARK   10  A    between atoms: C_22  and  C_24
REMARK                            x       y       z     vdW  Elec       q    Type
REMARK                         _______ _______ _______ _____ _____    ______ ____
ROOT
ATOM      1  C   UNL     1      -6.113  -3.422   2.624  0.00  0.00    +0.162 C 
ENDROOT
BRANCH   1   8
ATOM      2  N   UNL     1      -1.372  -0.511   0.013  0.00  0.00    -0.300 N 
ATOM      3  C   UNL     1      -1.601  -1.839   0.007  0.00  0.00    +0.302 C 
ATOM      4  O   UNL     1      -0.671  -2.616  -0.098  0.00  0.00    -0.253 OA
ATOM      5  N   UNL     1      -2.860  -2.307   0.119  0.00  0.00    -0.286 N 
ATOM      6  C   UNL     1      -4.003  -1.384   0.130  0.00  0.00    +0.109 C 
ATOM      7  C   UNL     1      -4.851  -1.665   1.375  0.00  0.00    +0.025 C 
ATOM      8  C   UNL     1      -5.238  -3.145   1.401  0.00  0.00    +0.021 C 
ATOM      9  C   UNL     1      -3.973  -4.004   1.474  0.00  0.00    +0.025 C 
ATOM     10  C   UNL     1      -3.115  -3.750   0.225  0.00  0.00    +0.109 C 
ATOM     11  H   UNL     1      -2.118   0.109   0.024  0.00  0.00    +0.150 HD
BRANCH   2  13
ATOM     12  C   UNL     1      -0.018   1.526   0.014  0.00  0.00    +0.024 C 
ATOM     13  C   UNL     1       0.002  -0.004   0.004  0.00  0.00    +0.102 C 
ENDBRANCH   2  13
ENDBRANCH   1   8
BRANCH   1  14
ATOM     14  C   UNL     1      -6.495  -4.880   2.650  0.00  0.00    +0.234 C 
ATOM     15  O   UNL     1      -6.176  -5.573   3.592  0.00  0.00    -0.274 OA
ATOM     16  N   UNL     1      -7.189  -5.413   1.625  0.00  0.00    -0.314 N 
ATOM     17  H   UNL     1      -7.444  -4.858   0.871  0.00  0.00    +0.149 HD
BRANCH  16  18
ATOM     18  C   UNL     1      -7.560  -6.830   1.650  0.00  0.00    +0.107 C 
BRANCH  18  19
ATOM     19  C   UNL     1      -8.337  -7.176   0.378  0.00  0.00    -0.000 C 
ATOM     20  C   UNL     1      -8.616  -8.680   0.344  0.00  0.00    +0.009 C 
ATOM     21  C   UNL     1      -9.662  -6.411   0.365  0.00  0.00    +0.009 C 
ENDBRANCH  18  19
ENDBRANCH  16  18
ENDBRANCH   1  14
BRANCH   1  22
ATOM     22  N   UNL     1      -5.370  -3.090   3.842  0.00  0.00    -0.300 N 
ATOM     23  C   UNL     1      -6.033  -2.764   4.969  0.00  0.00    +0.246 C 
ATOM     24  O   UNL     1      -7.248  -2.745   4.975  0.00  0.00    -0.270 OA
ATOM     25  H   UNL     1      -4.400  -3.106   3.837  0.00  0.00    +0.150 HD
BRANCH  23  26
ATOM     26  C   UNL     1      -5.283  -2.429   6.197  0.00  0.00    +0.055 A 
ATOM     27  C   UNL     1      -3.887  -2.445   6.193  0.00  0.00    +0.014 A 
ATOM     28  C   UNL     1      -3.193  -2.131   7.342  0.00  0.00    +0.001 A 
ATOM     29  C   UNL     1      -3.876  -1.802   8.500  0.00  0.00    +0.001 A 
ATOM     30  C   UNL     1      -5.259  -1.785   8.513  0.00  0.00    +0.021 A 
ATOM     31  C   UNL     1      -5.967  -2.091   7.367  0.00  0.00    +0.053 A 
ATOM     32 CL   UNL     1      -7.703  -2.061   7.383  0.00  0.00    -0.083 Cl
ENDBRANCH  23  26
ENDBRANCH   1  22
TORSDOF 7
