REMARK  Name = ZINC36022312
REMARK  7 active torsions:
REMARK  status: ('A' for Active; 'I' for Inactive)
REMARK    1  A    between atoms: C_1  and  C_2
REMARK    2  A    between atoms: C_2  and  C_3
REMARK    3  A    between atoms: C_2  and  C_4
REMARK    4  A    between atoms: C_4  and  C_6
REMARK    5  A    between atoms: C_4  and  N_19
REMARK    6  A    between atoms: N_8  and  C_9
REMARK    7  A    between atoms: C_20  and  C_22
REMARK                            x       y       z     vdW  Elec       q    Type
REMARK                         _______ _______ _______ _____ _____    ______ ____
ROOT
ATOM      1  C   UNL     1       0.742  -0.511   1.242  0.00  0.00    +0.162 C 
ENDROOT
BRANCH   1   2
ATOM      2  C   UNL     1       0.762  -2.018   1.233  0.00  0.00    +0.234 C 
ATOM      3  O   UNL     1       1.821  -2.610   1.220  0.00  0.00    -0.274 OA
ATOM      4  N   UNL     1      -0.395  -2.707   1.241  0.00  0.00    -0.308 N 
ATOM      5  H   UNL     1      -1.242  -2.234   1.251  0.00  0.00    +0.149 HD
BRANCH   4   6
ATOM      6  C   UNL     1      -0.376  -4.172   1.233  0.00  0.00    +0.035 C 
ATOM      7  C   UNL     1       0.364  -4.679   2.472  0.00  0.00    +0.029 C 
ATOM      8  C   UNL     1       0.385  -6.209   2.464  0.00  0.00    -0.008 C 
ATOM      9  C   UNL     1      -1.050  -6.739   2.474  0.00  0.00    +0.007 C 
ATOM     10  C   UNL     1      -1.790  -6.232   1.235  0.00  0.00    -0.008 C 
ATOM     11  C   UNL     1      -1.811  -4.702   1.243  0.00  0.00    +0.029 C 
ATOM     12  C   UNL     1      -1.074  -6.725  -0.024  0.00  0.00    +0.007 C 
ATOM     13  C   UNL     1       0.361  -6.196  -0.035  0.00  0.00    -0.008 C 
ATOM     14  C   UNL     1       1.101  -6.702   1.205  0.00  0.00    +0.007 C 
ATOM     15  C   UNL     1       0.341  -4.666  -0.026  0.00  0.00    +0.029 C 
ENDBRANCH   4   6
ENDBRANCH   1   2
BRANCH   1  16
ATOM     16  N   UNL     1       2.116  -0.004   1.231  0.00  0.00    -0.300 N 
ATOM     17  C   UNL     1       2.387   1.219   1.728  0.00  0.00    +0.246 C 
ATOM     18  O   UNL     1       1.491   1.902   2.186  0.00  0.00    -0.270 OA
ATOM     19  H   UNL     1       2.832  -0.548   0.866  0.00  0.00    +0.150 HD
BRANCH  17  20
ATOM     20  C   UNL     1       3.774   1.731   1.718  0.00  0.00    +0.055 A 
ATOM     21  C   UNL     1       4.804   0.952   1.188  0.00  0.00    +0.014 A 
ATOM     22  C   UNL     1       6.096   1.435   1.181  0.00  0.00    +0.001 A 
ATOM     23  C   UNL     1       6.372   2.689   1.698  0.00  0.00    +0.001 A 
ATOM     24  C   UNL     1       5.357   3.467   2.224  0.00  0.00    +0.021 A 
ATOM     25  C   UNL     1       4.058   2.998   2.232  0.00  0.00    +0.053 A 
ATOM     26 CL   UNL     1       2.783   3.978   2.887  0.00  0.00    -0.083 Cl
ENDBRANCH  17  20
ENDBRANCH   1  16
BRANCH   1  28
ATOM     27  C   UNL     1      -0.019   1.526   0.010  0.00  0.00    +0.009 C 
ATOM     28  C   UNL     1       0.002  -0.004   0.002  0.00  0.00    +0.012 C 
ATOM     29  C   UNL     1       0.718  -0.497  -1.257  0.00  0.00    +0.009 C 
ENDBRANCH   1  28
TORSDOF 5
