REMARK  Name = ZINC41021120
REMARK  10 active torsions:
REMARK  status: ('A' for Active; 'I' for Inactive)
REMARK    1  A    between atoms: C_1  and  C_2
REMARK    2  A    between atoms: C_2  and  O_3
REMARK    3  A    between atoms: O_3  and  C_4
REMARK    4  A    between atoms: C_9  and  N_10
REMARK    5  A    between atoms: C_11  and  C_13
REMARK    6  A    between atoms: C_14  and  C_33
REMARK    7  A    between atoms: C_18  and  S_30
REMARK    8  A    between atoms: C_21  and  C_23
REMARK    9  A    between atoms: S_30  and  C_31
REMARK   10  A    between atoms: C_31  and  C_32
REMARK                            x       y       z     vdW  Elec       q    Type
REMARK                         _______ _______ _______ _____ _____    ______ ____
ROOT
ATOM      1  C   UNL     1       2.989  -0.948  -5.410  0.00  0.00    +0.060 C 
ATOM      2  C   UNL     1       3.554  -1.394  -6.541  0.00  0.00    +0.018 C 
ATOM      3  N   UNL     1       4.059  -0.542  -7.493  0.00  0.00    -0.287 N 
ATOM      4  C   UNL     1       4.208   0.792  -7.141  0.00  0.00    +0.219 A 
ATOM      5  N   UNL     1       4.849   1.754  -7.748  0.00  0.00    -0.187 NA
ATOM      6  C   UNL     1       4.730   2.887  -7.041  0.00  0.00    +0.210 A 
ATOM      7  N   UNL     1       4.002   2.650  -5.971  0.00  0.00    -0.141 NA
ATOM      8  N   UNL     1       3.650   1.302  -6.016  0.00  0.00    -0.220 N 
ATOM      9  C   UNL     1       2.839   0.515  -5.088  0.00  0.00    +0.177 C 
ATOM     10  C   UNL     1       3.639  -2.881  -6.775  0.00  0.00    +0.061 C 
ATOM     11  H   UNL     1       4.302  -0.861  -8.376  0.00  0.00    +0.155 HD
ENDROOT
BRANCH   9  12
ATOM     12  C   UNL     1       1.391   0.913  -5.218  0.00  0.00    -0.018 A 
ATOM     13  C   UNL     1       0.740   0.764  -6.429  0.00  0.00    +0.007 A 
ATOM     14  C   UNL     1      -0.588   1.127  -6.548  0.00  0.00    +0.015 A 
ATOM     15  C   UNL     1      -1.265   1.641  -5.457  0.00  0.00    +0.018 A 
ATOM     16  C   UNL     1      -0.613   1.790  -4.246  0.00  0.00    +0.015 A 
ATOM     17  C   UNL     1       0.713   1.421  -4.126  0.00  0.00    +0.007 A 
ATOM     18 BR   UNL     1      -3.082   2.140  -5.621  0.00  0.00    -0.050 Br
ENDBRANCH   9  12
BRANCH   1  20
ATOM     19  N   UNL     1       1.395  -2.608  -4.755  0.00  0.00    -0.279 N 
ATOM     20  C   UNL     1       2.505  -1.896  -4.478  0.00  0.00    +0.248 C 
ATOM     21  O   UNL     1       3.092  -2.069  -3.425  0.00  0.00    -0.270 OA
ATOM     22  H   UNL     1       0.959  -2.511  -5.616  0.00  0.00    +0.155 HD
BRANCH  19  28
ATOM     23  C   UNL     1      -0.507  -3.667  -3.698  0.00  0.00    +0.142 A 
ATOM     24  C   UNL     1      -1.020  -4.543  -2.755  0.00  0.00    +0.047 A 
ATOM     25  C   UNL     1      -0.166  -5.232  -1.914  0.00  0.00    +0.004 A 
ATOM     26  C   UNL     1       1.201  -5.050  -2.011  0.00  0.00    +0.002 A 
ATOM     27  C   UNL     1       1.721  -4.178  -2.949  0.00  0.00    +0.027 A 
ATOM     28  C   UNL     1       0.870  -3.487  -3.800  0.00  0.00    +0.076 A 
BRANCH  23  29
ATOM     29  O   UNL     1      -1.346  -2.989  -4.526  0.00  0.00    -0.490 OA
BRANCH  29  31
ATOM     30  C   UNL     1      -3.525  -2.379  -5.375  0.00  0.00    +0.048 C 
ATOM     31  C   UNL     1      -2.747  -3.223  -4.364  0.00  0.00    +0.226 C 
ENDBRANCH  29  31
ENDBRANCH  23  29
ENDBRANCH  19  28
ENDBRANCH   1  20
BRANCH   6  32
ATOM     32  S   UNL     1       5.434   4.443  -7.475  0.00  0.00    -0.085 S 
BRANCH  32  33
ATOM     33  C   UNL     1       6.303   4.112  -9.032  0.00  0.00    +0.074 C 
ATOM     34  C   UNL     1       6.969   5.397  -9.528  0.00  0.00    +0.016 C 
ENDBRANCH  32  33
ENDBRANCH   6  32
TORSDOF 7
