REMARK  Name = ZINC09512575
REMARK  5 active torsions:
REMARK  status: ('A' for Active; 'I' for Inactive)
REMARK    1  A    between atoms: C_4  and  C_7
REMARK    2  A    between atoms: C_7  and  C_30
REMARK    3  A    between atoms: N_10  and  C_14
REMARK    4  A    between atoms: C_14  and  N_62
REMARK    5  A    between atoms: C_18  and  C_20
REMARK                            x       y       z     vdW  Elec       q    Type
REMARK                         _______ _______ _______ _____ _____    ______ ____
ROOT
ATOM      1  C   UNL     1       6.536   3.124  -4.073  0.00  0.00    +0.164 C 
ATOM      2  C   UNL     1       5.660   2.054  -3.453  0.00  0.00    +0.254 C 
ATOM      3  O   UNL     1       5.737   0.856  -3.622  0.00  0.00    -0.272 OA
ATOM      4  N   UNL     1       4.777   2.710  -2.675  0.00  0.00    -0.241 N 
ATOM      5  C   UNL     1       4.969   4.034  -2.720  0.00  0.00    +0.308 C 
ATOM      6  O   UNL     1       4.294   4.835  -2.104  0.00  0.00    -0.252 OA
ATOM      7  N   UNL     1       5.995   4.378  -3.519  0.00  0.00    -0.278 N 
ATOM      8  H   UNL     1       6.313   5.276  -3.700  0.00  0.00    +0.152 HD
ENDROOT
BRANCH   1  12
ATOM      9  C   UNL     1      10.609   2.598  -2.897  0.00  0.00    +0.000 A 
ATOM     10  C   UNL     1      10.014   3.842  -2.793  0.00  0.00    +0.000 A 
ATOM     11  C   UNL     1       8.696   4.012  -3.174  0.00  0.00    +0.006 A 
ATOM     12  C   UNL     1       7.973   2.939  -3.658  0.00  0.00    -0.011 A 
ATOM     13  C   UNL     1       8.566   1.694  -3.758  0.00  0.00    +0.006 A 
ATOM     14  C   UNL     1       9.885   1.525  -3.382  0.00  0.00    +0.000 A 
ENDBRANCH   1  12
BRANCH   1  15
ATOM     15  C   UNL     1       6.409   3.109  -5.574  0.00  0.00    -0.011 A 
ATOM     16  C   UNL     1       6.590   1.929  -6.272  0.00  0.00    +0.006 A 
ATOM     17  C   UNL     1       6.469   1.915  -7.649  0.00  0.00    +0.000 A 
ATOM     18  C   UNL     1       6.178   3.082  -8.329  0.00  0.00    +0.000 A 
ATOM     19  C   UNL     1       6.003   4.263  -7.633  0.00  0.00    +0.000 A 
ATOM     20  C   UNL     1       6.119   4.277  -6.255  0.00  0.00    +0.006 A 
ENDBRANCH   1  15
BRANCH   4  21
ATOM     21  C   UNL     1       3.733   2.056  -1.882  0.00  0.00    +0.043 C 
BRANCH  21  26
ATOM     22  C   UNL     1       5.120   2.504   0.058  0.00  0.00    -0.076 C 
ATOM     23  C   UNL     1       4.547   2.602   1.487  0.00  0.00    -0.020 C 
ATOM     24  C   UNL     1       3.832   1.238   1.671  0.00  0.00    -0.012 C 
ATOM     25  C   UNL     1       3.279   0.980   0.247  0.00  0.00    -0.035 C 
ATOM     26  N   UNL     1       4.337   1.479  -0.653  0.00  0.00    +0.395 N 
ATOM     27  H   UNL     1       4.955   0.702  -0.916  0.00  0.00    -0.079 HD
BRANCH  25  28
ATOM     28  C   UNL     1       3.067  -0.496   0.026  0.00  0.00    -0.057 A 
ATOM     29  C   UNL     1       4.152  -1.323  -0.198  0.00  0.00    +0.006 A 
ATOM     30  C   UNL     1       3.962  -2.676  -0.402  0.00  0.00    +0.049 A 
ATOM     31  C   UNL     1       2.681  -3.208  -0.388  0.00  0.00    +0.162 A 
ATOM     32  C   UNL     1       1.591  -2.378  -0.154  0.00  0.00    +0.162 A 
ATOM     33  C   UNL     1       1.789  -1.020   0.048  0.00  0.00    +0.051 A 
ATOM     34  O   UNL     1       0.327  -2.881  -0.121  0.00  0.00    -0.485 OA
ATOM     35  C   UNL     1       0.135  -4.174  -0.714  0.00  0.00    +0.270 C 
ATOM     36  C   UNL     1       1.250  -5.098  -0.206  0.00  0.00    +0.270 C 
ATOM     37  O   UNL     1       2.509  -4.541  -0.601  0.00  0.00    -0.485 OA
ENDBRANCH  25  28
ENDBRANCH  21  26
ENDBRANCH   4  21
TORSDOF 5
