REMARK  Name = ZINC40547715
REMARK  7 active torsions:
REMARK  status: ('A' for Active; 'I' for Inactive)
REMARK    1  A    between atoms: C_4  and  C_7
REMARK    2  A    between atoms: C_7  and  O_8
REMARK    3  A    between atoms: O_8  and  C_9
REMARK    4  A    between atoms: C_13  and  C_15
REMARK    5  A    between atoms: C_18  and  C_34
REMARK    6  A    between atoms: N_25  and  C_26
REMARK    7  A    between atoms: C_39  and  O_40
REMARK                            x       y       z     vdW  Elec       q    Type
REMARK                         _______ _______ _______ _____ _____    ______ ____
ROOT
ATOM      1  C   UNL     1       7.510  -3.028   3.815  0.00  0.00    +0.142 C 
ATOM      2  C   UNL     1       7.148  -4.325   4.484  0.00  0.00    +0.035 A 
ATOM      3  C   UNL     1       6.133  -5.178   4.934  0.00  0.00    +0.102 A 
ATOM      4  N   UNL     1       6.714  -6.234   5.468  0.00  0.00    -0.173 NA
ATOM      5  N   UNL     1       7.994  -6.133   5.401  0.00  0.00    -0.272 N 
ATOM      6  H   UNL     1       8.623  -6.794   5.731  0.00  0.00    +0.189 HD
ATOM      7  C   UNL     1       8.336  -4.958   4.794  0.00  0.00    +0.126 A 
ATOM      8  C   UNL     1       9.447  -4.111   4.346  0.00  0.00    +0.266 C 
ATOM      9  O   UNL     1      10.625  -4.385   4.472  0.00  0.00    -0.268 OA
ATOM     10  N   UNL     1       8.977  -2.985   3.776  0.00  0.00    -0.280 N 
ENDROOT
BRANCH  10  11
ATOM     11  C   UNL     1       9.789  -1.903   3.212  0.00  0.00    +0.100 C 
ATOM     12  C   UNL     1      10.698  -1.323   4.308  0.00  0.00    +0.047 C 
ATOM     13  C   UNL     1      11.757  -0.409   3.626  0.00  0.00    +0.168 C 
ATOM     14  S   UNL     1      12.165  -1.419   2.140  0.00  0.00    -0.029 S 
ATOM     15  O   UNL     1      13.279  -2.249   2.437  0.00  0.00    -0.174 OA
ATOM     16  O   UNL     1      12.210  -0.569   1.002  0.00  0.00    -0.174 OA
ATOM     17  C   UNL     1      10.651  -2.459   2.053  0.00  0.00    +0.188 C 
ENDBRANCH  10  11
BRANCH   1  22
ATOM     18  C   UNL     1       5.414  -2.089   0.814  0.00  0.00    +0.121 A 
ATOM     19  C   UNL     1       5.932  -2.934  -0.157  0.00  0.00    +0.045 A 
ATOM     20  C   UNL     1       6.956  -3.804   0.161  0.00  0.00    +0.004 A 
ATOM     21  C   UNL     1       7.466  -3.834   1.446  0.00  0.00    +0.006 A 
ATOM     22  C   UNL     1       6.952  -2.993   2.415  0.00  0.00    -0.019 A 
ATOM     23  C   UNL     1       5.931  -2.116   2.101  0.00  0.00    +0.051 A 
BRANCH  18  24
ATOM     24  O   UNL     1       4.407  -1.231   0.503  0.00  0.00    -0.487 OA
BRANCH  24  25
ATOM     25  C   UNL     1       3.924  -1.258  -0.841  0.00  0.00    +0.264 C 
BRANCH  25  29
ATOM     26  C   UNL     1       0.785   1.605  -1.286  0.00  0.00    +0.000 A 
ATOM     27  C   UNL     1       2.096   1.976  -1.518  0.00  0.00    +0.000 A 
ATOM     28  C   UNL     1       3.112   1.049  -1.374  0.00  0.00    +0.007 A 
ATOM     29  C   UNL     1       2.817  -0.247  -0.997  0.00  0.00    -0.010 A 
ATOM     30  C   UNL     1       1.505  -0.618  -0.765  0.00  0.00    +0.007 A 
ATOM     31  C   UNL     1       0.489   0.308  -0.910  0.00  0.00    +0.000 A 
ENDBRANCH  25  29
ENDBRANCH  24  25
ENDBRANCH  18  24
ENDBRANCH   1  22
BRANCH   3  32
ATOM     32  C   UNL     1       4.673  -4.937   4.829  0.00  0.00    +0.044 A 
ATOM     33  C   UNL     1       4.197  -3.719   4.349  0.00  0.00    +0.014 A 
ATOM     34  C   UNL     1       2.838  -3.499   4.254  0.00  0.00    +0.001 A 
ATOM     35  C   UNL     1       1.945  -4.486   4.633  0.00  0.00    +0.004 A 
ATOM     36  C   UNL     1       2.406  -5.698   5.111  0.00  0.00    +0.046 A 
ATOM     37  C   UNL     1       3.768  -5.933   5.206  0.00  0.00    +0.126 A 
BRANCH  37  38
ATOM     38  O   UNL     1       4.223  -7.127   5.669  0.00  0.00    -0.506 OA
ATOM     39  H   UNL     1       4.348  -7.155   6.628  0.00  0.00    +0.292 HD
ENDBRANCH  37  38
ENDBRANCH   3  32
TORSDOF 7
