REMARK  Name = ZINC32964489
REMARK  4 active torsions:
REMARK  status: ('A' for Active; 'I' for Inactive)
REMARK    1  A    between atoms: C_3  and  C_16
REMARK    2  A    between atoms: N_4  and  C_6
REMARK    3  A    between atoms: C_9  and  N_13
REMARK    4  A    between atoms: C_26  and  C_28
REMARK                            x       y       z     vdW  Elec       q    Type
REMARK                         _______ _______ _______ _____ _____    ______ ____
ROOT
ATOM      1  C   UNL     1       3.613   0.992  -0.169  0.00  0.00    +0.042 C 
ATOM      2  C   UNL     1       4.428   0.106  -0.854  0.00  0.00    +0.082 C 
ATOM      3  C   UNL     1       3.866  -1.004  -1.669  0.00  0.00    +0.153 C 
ATOM      4  N   UNL     1       2.733  -0.918  -2.318  0.00  0.00    -0.283 NA
ATOM      5  N   UNL     1       4.676  -2.160  -1.675  0.00  0.00    -0.152 N 
ATOM      6  C   UNL     1       6.017  -1.999  -1.399  0.00  0.00    +0.181 C 
ATOM      7  N   UNL     1       6.629  -0.902  -1.033  0.00  0.00    -0.152 NA
ATOM      8  C   UNL     1       5.904   0.218  -0.819  0.00  0.00    +0.273 C 
ATOM      9  O   UNL     1       6.448   1.289  -0.599  0.00  0.00    -0.268 OA
ATOM     10  S   UNL     1       6.647  -3.638  -1.647  0.00  0.00    -0.029 S 
ATOM     11  C   UNL     1       5.087  -4.438  -1.998  0.00  0.00    +0.202 C 
ATOM     12  N   UNL     1       4.248  -3.443  -1.946  0.00  0.00    -0.160 NA
ATOM     13  H   UNL     1       2.376  -1.694  -2.776  0.00  0.00    +0.188 HD
ENDROOT
BRANCH   1  16
ATOM     14  C   UNL     1       0.009   1.033  -0.319  0.00  0.00    +0.020 A 
ATOM     15  C   UNL     1       1.238   1.647  -0.560  0.00  0.00    +0.027 A 
ATOM     16  C   UNL     1       2.223   0.774  -0.118  0.00  0.00    +0.047 A 
ATOM     17  N   UNL     1       1.588  -0.346   0.381  0.00  0.00    -0.315 N 
ATOM     18  C   UNL     1       0.247  -0.175   0.252  0.00  0.00    +0.092 A 
BRANCH  17  19
ATOM     19  C   UNL     1       2.221  -1.470   0.926  0.00  0.00    +0.065 A 
ATOM     20  C   UNL     1       2.128  -2.700   0.288  0.00  0.00    +0.030 A 
ATOM     21  C   UNL     1       2.753  -3.806   0.828  0.00  0.00    +0.035 A 
ATOM     22  C   UNL     1       3.471  -3.692   2.005  0.00  0.00    +0.128 A 
ATOM     23  C   UNL     1       3.566  -2.469   2.644  0.00  0.00    +0.054 A 
ATOM     24  C   UNL     1       2.948  -1.356   2.105  0.00  0.00    +0.067 A 
ATOM     25 CL   UNL     1       3.074   0.180   2.904  0.00  0.00    -0.081 Cl
BRANCH  22  26
ATOM     26  N   UNL     1       4.139  -4.880   2.580  0.00  0.00    +0.056 N 
ATOM     27  O   UNL     1       4.135  -5.928   1.978  0.00  0.00    -0.126 OA
ATOM     28  O   UNL     1       4.690  -4.803   3.654  0.00  0.00    -0.126 OA
ENDBRANCH  22  26
ENDBRANCH  17  19
ENDBRANCH   1  16
BRANCH  11  29
ATOM     29  C   UNL     1       4.813  -5.892  -2.283  0.00  0.00    +0.442 C 
ATOM     30  F   UNL     1       3.441  -6.077  -2.487  0.00  0.00    -0.164 F 
ATOM     31  F   UNL     1       5.512  -6.282  -3.430  0.00  0.00    -0.164 F 
ATOM     32  F   UNL     1       5.230  -6.667  -1.195  0.00  0.00    -0.164 F 
ENDBRANCH  11  29
TORSDOF 4
