REMARK  Name = ZINC09500839
REMARK  9 active torsions:
REMARK  status: ('A' for Active; 'I' for Inactive)
REMARK    1  A    between atoms: C_1  and  C_2
REMARK    2  A    between atoms: C_5  and  N_9
REMARK    3  A    between atoms: C_6  and  C_8
REMARK    4  A    between atoms: C_22  and  S_23
REMARK    5  A    between atoms: S_23  and  C_24
REMARK    6  A    between atoms: C_24  and  C_26
REMARK    7  A    between atoms: C_24  and  C_27
REMARK    8  A    between atoms: N_29  and  C_30
REMARK    9  A    between atoms: C_34  and  C_36
REMARK                            x       y       z     vdW  Elec       q    Type
REMARK                         _______ _______ _______ _____ _____    ______ ____
ROOT
ATOM      1  N   UNL     1       3.511   3.442   0.538  0.00  0.00    -0.245 N 
ATOM      2  C   UNL     1       3.539   2.106   0.725  0.00  0.00    +0.268 A 
ATOM      3  O   UNL     1       4.600   1.516   0.806  0.00  0.00    -0.267 OA
ATOM      4  C   UNL     1       2.265   1.373   0.828  0.00  0.00    +0.064 A 
ATOM      5  C   UNL     1       2.238  -0.007   1.021  0.00  0.00    +0.015 A 
ATOM      6  C   UNL     1       1.026  -0.659   1.113  0.00  0.00    +0.001 A 
ATOM      7  C   UNL     1      -0.160   0.051   1.014  0.00  0.00    +0.002 A 
ATOM      8  C   UNL     1      -0.147   1.418   0.823  0.00  0.00    +0.027 A 
ATOM      9  C   UNL     1       1.062   2.091   0.729  0.00  0.00    +0.064 A 
ATOM     10  N   UNL     1       1.109   3.466   0.537  0.00  0.00    -0.255 N 
ATOM     11  C   UNL     1       2.308   4.123   0.444  0.00  0.00    +0.245 A 
ATOM     12  N   UNL     1       2.033   5.394   0.266  0.00  0.00    -0.109 NA
ATOM     13  N   UNL     1       0.760   5.571   0.242  0.00  0.00    -0.120 NA
ATOM     14  C   UNL     1       0.142   4.426   0.403  0.00  0.00    +0.198 A 
ENDROOT
BRANCH   1  19
ATOM     15  C   UNL     1       8.389   6.312   0.132  0.00  0.00    +0.044 C 
ATOM     16  C   UNL     1       7.093   5.550   0.240  0.00  0.00    -0.050 A 
ATOM     17  C   UNL     1       6.499   5.035  -0.898  0.00  0.00    +0.005 A 
ATOM     18  C   UNL     1       5.315   4.330  -0.802  0.00  0.00    +0.027 A 
ATOM     19  C   UNL     1       4.715   4.150   0.438  0.00  0.00    +0.056 A 
ATOM     20  C   UNL     1       5.314   4.668   1.578  0.00  0.00    -0.026 A 
ATOM     21  C   UNL     1       6.502   5.367   1.476  0.00  0.00    +0.008 A 
ATOM     22  C   UNL     1       4.670   4.469   2.926  0.00  0.00    +0.046 C 
ENDBRANCH   1  19
BRANCH  14  23
ATOM     23  S   UNL     1      -1.601   4.171   0.440  0.00  0.00    -0.073 S 
BRANCH  23  24
ATOM     24  C   UNL     1      -2.293   5.832   0.208  0.00  0.00    +0.137 C 
ATOM     25  C   UNL     1      -1.922   6.710   1.404  0.00  0.00    +0.029 C 
BRANCH  24  26
ATOM     26  C   UNL     1      -3.793   5.740   0.097  0.00  0.00    +0.230 C 
ATOM     27  O   UNL     1      -4.382   4.806   0.597  0.00  0.00    -0.274 OA
ATOM     28  N   UNL     1      -4.479   6.697  -0.558  0.00  0.00    -0.285 N 
ATOM     29  H   UNL     1      -4.019   7.483  -0.892  0.00  0.00    +0.155 HD
BRANCH  28  30
ATOM     30  C   UNL     1      -5.858   6.557  -0.758  0.00  0.00    +0.035 A 
ATOM     31  C   UNL     1      -6.676   7.681  -0.767  0.00  0.00    +0.023 A 
ATOM     32  C   UNL     1      -8.038   7.548  -0.964  0.00  0.00    +0.003 A 
ATOM     33  C   UNL     1      -8.594   6.300  -1.153  0.00  0.00    +0.019 A 
ATOM     34  C   UNL     1      -7.781   5.165  -1.145  0.00  0.00    +0.054 A 
ATOM     35  C   UNL     1      -6.406   5.299  -0.951  0.00  0.00    +0.042 A 
BRANCH  34  36
ATOM     36  C   UNL     1      -8.356   3.868  -1.341  0.00  0.00    +0.099 C 
ATOM     37  N   UNL     1      -8.812   2.839  -1.496  0.00  0.00    -0.191 NA
ENDBRANCH  34  36
ENDBRANCH  28  30
ENDBRANCH  24  26
ENDBRANCH  23  24
ENDBRANCH  14  23
TORSDOF 6
