REMARK  Name = ZINC39584303
REMARK  5 active torsions:
REMARK  status: ('A' for Active; 'I' for Inactive)
REMARK    1  A    between atoms: C_1  and  C_2
REMARK    2  A    between atoms: C_5  and  C_8
REMARK    3  A    between atoms: C_10  and  C_14
REMARK    4  A    between atoms: N_16  and  N_17
REMARK    5  A    between atoms: C_18  and  C_19
REMARK                            x       y       z     vdW  Elec       q    Type
REMARK                         _______ _______ _______ _____ _____    ______ ____
ROOT
ATOM      1  C   UNL     1       0.061  -4.256  -0.021  0.00  0.00    +0.092 C 
ATOM      2  C   UNL     1       0.071  -5.030   1.081  0.00  0.00    +0.041 C 
ATOM      3  C   UNL     1       0.090  -6.445   0.530  0.00  0.00    +0.240 C 
ATOM      4  N   UNL     1       0.087  -6.239  -0.927  0.00  0.00    -0.170 NA
ATOM      5  N   UNL     1       0.065  -5.025  -1.142  0.00  0.00    -0.153 NA
ENDROOT
BRANCH   1  10
ATOM      6  C   UNL     1      -0.018   1.503   0.010  0.00  0.00    +0.044 C 
ATOM      7  C   UNL     1       0.002  -0.004   0.002  0.00  0.00    -0.050 A 
ATOM      8  C   UNL     1       0.006  -0.686  -1.201  0.00  0.00    +0.004 A 
ATOM      9  C   UNL     1       0.025  -2.066  -1.215  0.00  0.00    +0.010 A 
ATOM     10  C   UNL     1       0.041  -2.772  -0.013  0.00  0.00    +0.002 A 
ATOM     11  C   UNL     1       0.037  -2.080   1.196  0.00  0.00    +0.010 A 
ATOM     12  C   UNL     1       0.023  -0.700   1.198  0.00  0.00    +0.004 A 
ENDBRANCH   1  10
BRANCH   3  13
ATOM     13  C   UNL     1      -1.137  -7.203   0.967  0.00  0.00    +0.263 C 
ATOM     14  O   UNL     1      -2.073  -7.332   0.205  0.00  0.00    -0.271 OA
ATOM     15  N   UNL     1      -1.196  -7.736   2.203  0.00  0.00    -0.205 N 
ATOM     16  H   UNL     1      -0.448  -7.632   2.812  0.00  0.00    +0.177 HD
BRANCH  15  17
ATOM     17  N   UNL     1      -2.337  -8.440   2.609  0.00  0.00    -0.185 NA
ATOM     18  C   UNL     1      -2.394  -8.954   3.802  0.00  0.00    +0.176 C 
BRANCH  18  19
ATOM     19  C   UNL     1      -3.589  -9.691   4.227  0.00  0.00    +0.147 A 
ATOM     20  C   UNL     1      -3.780 -10.274   5.446  0.00  0.00    +0.051 A 
ATOM     21  C   UNL     1      -5.056 -10.865   5.416  0.00  0.00    +0.042 A 
ATOM     22  C   UNL     1      -5.578 -10.620   4.196  0.00  0.00    +0.196 A 
ATOM     23  O   UNL     1      -4.692  -9.906   3.483  0.00  0.00    -0.462 OA
ENDBRANCH  18  19
ENDBRANCH  15  17
ENDBRANCH   3  13
TORSDOF 4
