REMARK  Name = ZINC09109374
REMARK  6 active torsions:
REMARK  status: ('A' for Active; 'I' for Inactive)
REMARK    1  A    between atoms: C_1  and  C_2
REMARK    2  A    between atoms: C_4  and  C_38
REMARK    3  A    between atoms: C_9  and  C_27
REMARK    4  A    between atoms: C_11  and  C_18
REMARK    5  A    between atoms: C_21  and  N_24
REMARK    6  A    between atoms: C_27  and  C_29
REMARK                            x       y       z     vdW  Elec       q    Type
REMARK                         _______ _______ _______ _____ _____    ______ ____
ROOT
ATOM      1  C   UNL     1      -5.281   3.847  -4.999  0.00  0.00    +0.044 C 
ATOM      2  C   UNL     1      -4.974   2.584  -4.238  0.00  0.00    -0.050 A 
ATOM      3  C   UNL     1      -4.639   1.428  -4.919  0.00  0.00    +0.008 A 
ATOM      4  C   UNL     1      -4.356   0.268  -4.228  0.00  0.00    -0.029 A 
ATOM      5  C   UNL     1      -4.407   0.253  -2.836  0.00  0.00    +0.039 A 
ATOM      6  C   UNL     1      -4.744   1.422  -2.161  0.00  0.00    -0.027 A 
ATOM      7  C   UNL     1      -5.025   2.577  -2.855  0.00  0.00    +0.008 A 
ATOM      8  C   UNL     1      -4.708   1.078  -0.698  0.00  0.00    +0.052 C 
ATOM      9  C   UNL     1      -3.695   1.946   0.057  0.00  0.00    +0.069 C 
ATOM     10  C   UNL     1      -4.282   2.064   1.480  0.00  0.00    +0.016 C 
ATOM     11  C   UNL     1      -5.742   1.616   1.353  0.00  0.00    -0.047 C 
ATOM     12  C   UNL     1      -6.671   2.428  -0.781  0.00  0.00    -0.005 C 
ATOM     13  S   UNL     1      -7.774   3.076   0.549  0.00  0.00    -0.181 S 
ATOM     14  C   UNL     1      -6.691   2.650   1.979  0.00  0.00    +0.052 C 
ATOM     15  C   UNL     1      -4.326  -0.377  -0.649  0.00  0.00    +0.212 C 
ATOM     16  O   UNL     1      -4.187  -1.056   0.346  0.00  0.00    -0.277 OA
ATOM     17  N   UNL     1      -4.169  -0.779  -1.925  0.00  0.00    -0.286 N 
ATOM     18  C   UNL     1      -3.993  -0.986  -4.980  0.00  0.00    +0.045 C 
ATOM     19  H   UNL     1      -3.919  -1.681  -2.181  0.00  0.00    +0.155 HD
ATOM     20  N   UNL     1      -5.990   1.304  -0.070  0.00  0.00    +0.401 N 
ATOM     21  H   UNL     1      -6.570   0.460  -0.137  0.00  0.00    -0.078 HD
ENDROOT
BRANCH  10  22
ATOM     22  C   UNL     1      -3.539   1.159   2.429  0.00  0.00    -0.045 A 
ATOM     23  C   UNL     1      -3.987  -0.130   2.648  0.00  0.00    +0.006 A 
ATOM     24  C   UNL     1      -3.302  -0.961   3.515  0.00  0.00    +0.033 A 
ATOM     25  C   UNL     1      -2.175  -0.500   4.169  0.00  0.00    +0.126 A 
ATOM     26  C   UNL     1      -1.730   0.791   3.954  0.00  0.00    +0.033 A 
ATOM     27  C   UNL     1      -2.412   1.621   3.083  0.00  0.00    +0.006 A 
BRANCH  25  28
ATOM     28  N   UNL     1      -1.444  -1.389   5.101  0.00  0.00    +0.056 N 
ATOM     29  O   UNL     1      -0.452  -0.982   5.678  0.00  0.00    -0.126 OA
ATOM     30  O   UNL     1      -1.836  -2.526   5.291  0.00  0.00    -0.126 OA
ENDBRANCH  25  28
ENDBRANCH  10  22
BRANCH   9  31
ATOM     31  C   UNL     1      -2.348   1.272   0.096  0.00  0.00    +0.168 C 
ATOM     32  O   UNL     1      -2.234   0.175   0.601  0.00  0.00    -0.292 OA
BRANCH  31  33
ATOM     33  C   UNL     1      -1.171   1.943  -0.478  0.00  0.00    +0.036 A 
ATOM     34  C   UNL     1       0.089   1.326  -0.448  0.00  0.00    +0.014 A 
ATOM     35  C   UNL     1       1.161   1.999  -1.005  0.00  0.00    +0.020 A 
ATOM     36  C   UNL     1       0.960   3.248  -1.565  0.00  0.00    +0.111 A 
ATOM     37  N   UNL     1      -0.235   3.808  -1.576  0.00  0.00    -0.263 NA
ATOM     38  C   UNL     1      -1.287   3.210  -1.058  0.00  0.00    +0.122 A 
ENDBRANCH  31  33
ENDBRANCH   9  31
TORSDOF 4
