REMARK  Name = ZINC43509133
REMARK  10 active torsions:
REMARK  status: ('A' for Active; 'I' for Inactive)
REMARK    1  A    between atoms: C_1  and  C_2
REMARK    2  A    between atoms: C_2  and  C_3
REMARK    3  A    between atoms: C_2  and  C_4
REMARK    4  A    between atoms: C_2  and  C_5
REMARK    5  A    between atoms: C_8  and  S_11
REMARK    6  A    between atoms: S_11  and  N_14
REMARK    7  A    between atoms: C_18  and  C_21
REMARK    8  A    between atoms: N_23  and  C_24
REMARK    9  A    between atoms: C_30  and  N_32
REMARK   10  A    between atoms: C_33  and  C_35
REMARK                            x       y       z     vdW  Elec       q    Type
REMARK                         _______ _______ _______ _____ _____    ______ ____
ROOT
ATOM      1  C   UNL     1       3.670   2.760  -6.595  0.00  0.00    +0.218 C 
ATOM      2  O   UNL     1       4.842   2.545  -6.822  0.00  0.00    -0.275 OA
ATOM      3  N   UNL     1       3.198   4.022  -6.621  0.00  0.00    -0.310 N 
ATOM      4  H   UNL     1       2.261   4.193  -6.439  0.00  0.00    +0.149 HD
ENDROOT
BRANCH   1   9
ATOM      5  N   UNL     1       2.580  -0.816  -6.143  0.00  0.00    -0.176 NA
ATOM      6  C   UNL     1       1.415  -0.905  -7.034  0.00  0.00    +0.109 C 
ATOM      7  C   UNL     1       0.657   0.426  -6.988  0.00  0.00    +0.018 C 
ATOM      8  C   UNL     1       1.620   1.568  -7.323  0.00  0.00    +0.015 C 
ATOM      9  C   UNL     1       2.741   1.614  -6.283  0.00  0.00    +0.091 C 
ATOM     10  C   UNL     1       3.519   0.300  -6.316  0.00  0.00    +0.122 C 
BRANCH   5  11
ATOM     11  S   UNL     1       2.826  -1.950  -4.962  0.00  0.00    +0.061 S 
ATOM     12  O   UNL     1       4.217  -1.937  -4.669  0.00  0.00    -0.153 OA
ATOM     13  O   UNL     1       2.148  -3.127  -5.380  0.00  0.00    -0.153 OA
BRANCH  11  17
ATOM     14  C   UNL     1       0.707  -0.490  -1.238  0.00  0.00    -0.042 A 
ATOM     15  C   UNL     1       0.036  -1.284  -2.148  0.00  0.00    +0.006 A 
ATOM     16  C   UNL     1       0.683  -1.730  -3.286  0.00  0.00    +0.029 A 
ATOM     17  C   UNL     1       2.001  -1.381  -3.513  0.00  0.00    +0.105 A 
ATOM     18  C   UNL     1       2.672  -0.586  -2.603  0.00  0.00    +0.029 A 
ATOM     19  C   UNL     1       2.024  -0.137  -1.467  0.00  0.00    +0.006 A 
BRANCH  14  21
ATOM     20  C   UNL     1      -0.019   1.526   0.010  0.00  0.00    +0.015 C 
ATOM     21  C   UNL     1       0.002  -0.004   0.002  0.00  0.00    -0.013 C 
ATOM     22  C   UNL     1       0.742  -0.511   1.242  0.00  0.00    +0.015 C 
ATOM     23  C   UNL     1      -1.433  -0.534   0.013  0.00  0.00    +0.015 C 
ENDBRANCH  14  21
ENDBRANCH  11  17
ENDBRANCH   5  11
ENDBRANCH   1   9
BRANCH   3  24
ATOM     24  C   UNL     1       4.101   5.135  -6.924  0.00  0.00    +0.093 C 
ATOM     25  C   UNL     1       4.214   5.301  -8.441  0.00  0.00    +0.024 C 
ATOM     26  C   UNL     1       5.157   6.464  -8.758  0.00  0.00    +0.002 C 
ATOM     27  C   UNL     1       4.603   7.751  -8.143  0.00  0.00    +0.002 C 
ATOM     28  C   UNL     1       4.491   7.585  -6.626  0.00  0.00    +0.024 C 
ATOM     29  C   UNL     1       3.548   6.422  -6.309  0.00  0.00    +0.093 C 
BRANCH  29  30
ATOM     30  N   UNL     1       2.223   6.701  -6.870  0.00  0.00    -0.307 N 
ATOM     31  C   UNL     1       1.338   7.440  -6.172  0.00  0.00    +0.244 C 
ATOM     32  O   UNL     1       1.639   7.875  -5.077  0.00  0.00    -0.270 OA
ATOM     33  H   UNL     1       1.983   6.354  -7.744  0.00  0.00    +0.149 HD
BRANCH  31  34
ATOM     34  C   UNL     1       0.001   7.721  -6.738  0.00  0.00    +0.037 A 
ATOM     35  C   UNL     1      -0.349   7.219  -7.992  0.00  0.00    +0.013 A 
ATOM     36  C   UNL     1      -1.598   7.484  -8.514  0.00  0.00    +0.001 A 
ATOM     37  C   UNL     1      -2.502   8.248  -7.797  0.00  0.00    +0.000 A 
ATOM     38  C   UNL     1      -2.161   8.750  -6.553  0.00  0.00    +0.001 A 
ATOM     39  C   UNL     1      -0.918   8.486  -6.017  0.00  0.00    +0.013 A 
ENDBRANCH  31  34
ENDBRANCH  29  30
ENDBRANCH   3  24
TORSDOF 7
