REMARK  Name = ZINC59302282
REMARK  4 active torsions:
REMARK  status: ('A' for Active; 'I' for Inactive)
REMARK    1  A    between atoms: C_3  and  N_9
REMARK    2  A    between atoms: C_4  and  O_8
REMARK    3  A    between atoms: C_10  and  C_11
REMARK    4  A    between atoms: C_14  and  N_16
REMARK                            x       y       z     vdW  Elec       q    Type
REMARK                         _______ _______ _______ _____ _____    ______ ____
ROOT
ATOM      1  C   UNL     1       4.756   4.134  -0.241  0.00  0.00    +0.149 A 
ATOM      2  C   UNL     1       4.886   5.507  -0.315  0.00  0.00    +0.068 A 
ATOM      3  C   UNL     1       6.256   5.778  -0.399  0.00  0.00    +0.079 A 
ATOM      4  C   UNL     1       6.905   4.579  -0.374  0.00  0.00    +0.204 A 
ATOM      5  O   UNL     1       5.996   3.596  -0.274  0.00  0.00    -0.439 OA
ATOM      6 BR   UNL     1       7.058   7.486  -0.524  0.00  0.00    -0.045 Br
ENDROOT
BRANCH   4   7
ATOM      7  N   UNL     1       8.276   4.404  -0.438  0.00  0.00    -0.296 N 
ATOM      8  C   UNL     1       9.080   4.277   0.788  0.00  0.00    +0.136 C 
ATOM      9  C   UNL     1       9.966   3.034   0.658  0.00  0.00    +0.179 C 
ATOM     10  O   UNL     1      10.691   3.098  -0.573  0.00  0.00    -0.377 OA
ATOM     11  C   UNL     1       9.864   3.092  -1.739  0.00  0.00    +0.179 C 
ATOM     12  C   UNL     1       8.972   4.334  -1.732  0.00  0.00    +0.136 C 
ENDBRANCH   4   7
BRANCH   1  14
ATOM     13  N   UNL     1       3.558   2.110  -0.073  0.00  0.00    -0.248 NA
ATOM     14  C   UNL     1       3.543   3.418  -0.142  0.00  0.00    +0.157 C 
BRANCH  13  17
ATOM     15  C   UNL     1       0.234   0.980  -1.079  0.00  0.00    +0.022 A 
ATOM     16  C   UNL     1       1.418   1.689  -1.063  0.00  0.00    +0.033 A 
ATOM     17  C   UNL     1       2.383   1.411  -0.094  0.00  0.00    +0.105 A 
ATOM     18  C   UNL     1       2.142   0.410   0.859  0.00  0.00    +0.143 A 
ATOM     19  C   UNL     1       0.950  -0.292   0.830  0.00  0.00    +0.067 A 
ATOM     20  C   UNL     1      -0.000  -0.007  -0.137  0.00  0.00    +0.045 A 
ATOM     21 CL   UNL     1      -1.493  -0.893  -0.167  0.00  0.00    -0.083 Cl
BRANCH  18  22
ATOM     22  O   UNL     1       3.075   0.132   1.807  0.00  0.00    -0.505 OA
ATOM     23  H   UNL     1       2.979   0.650   2.617  0.00  0.00    +0.292 HD
ENDBRANCH  18  22
ENDBRANCH  13  17
ENDBRANCH   1  14
TORSDOF 4
