REMARK  Name = ZINC34756545
REMARK  7 active torsions:
REMARK  status: ('A' for Active; 'I' for Inactive)
REMARK    1  A    between atoms: C_1  and  N_2
REMARK    2  A    between atoms: N_2  and  C_3
REMARK    3  A    between atoms: C_4  and  C_6
REMARK    4  A    between atoms: C_6  and  S_7
REMARK    5  A    between atoms: S_7  and  C_8
REMARK    6  A    between atoms: N_24  and  C_27
REMARK    7  A    between atoms: C_27  and  C_28
REMARK                            x       y       z     vdW  Elec       q    Type
REMARK                         _______ _______ _______ _____ _____    ______ ____
ROOT
ATOM      1  C   UNL     1       0.051  -4.528  -2.732  0.00  0.00    +0.191 A 
ATOM      2  N   UNL     1       0.056  -5.281  -3.826  0.00  0.00    -0.206 NA
ATOM      3  C   UNL     1       0.062  -6.602  -3.770  0.00  0.00    +0.134 A 
ATOM      4  C   UNL     1       0.063  -7.245  -2.500  0.00  0.00    +0.051 A 
ATOM      5  C   UNL     1       0.067  -8.678  -2.200  0.00  0.00    -0.025 A 
ATOM      6  C   UNL     1       0.067  -9.030  -0.899  0.00  0.00    -0.004 A 
ATOM      7  S   UNL     1       0.062  -7.499  -0.005  0.00  0.00    -0.073 S 
ATOM      8  C   UNL     1       0.058  -6.385  -1.385  0.00  0.00    +0.115 A 
ATOM      9  N   UNL     1       0.057  -5.073  -1.523  0.00  0.00    -0.214 NA
ATOM     10  C   UNL     1       0.070 -10.418  -0.334  0.00  0.00    +0.043 C 
ATOM     11  C   UNL     1      -0.303 -11.399  -1.455  0.00  0.00    +0.005 C 
ATOM     12  C   UNL     1       0.534 -11.069  -2.694  0.00  0.00    +0.005 C 
ATOM     13  C   UNL     1       0.070  -9.741  -3.295  0.00  0.00    +0.037 C 
ATOM     14  N   UNL     1       0.067  -7.351  -4.933  0.00  0.00    -0.318 N 
ATOM     15  C   UNL     1      -1.187  -7.866  -5.506  0.00  0.00    +0.088 C 
ATOM     16  C   UNL     1      -1.232  -7.489  -6.991  0.00  0.00    -0.059 C 
ATOM     17  N   UNL     1      -0.016  -7.976  -7.656  0.00  0.00    +0.387 N 
ATOM     18  C   UNL     1       1.161  -7.290  -7.109  0.00  0.00    -0.059 C 
ATOM     19  C   UNL     1       1.325  -7.652  -5.634  0.00  0.00    +0.088 C 
ATOM     20  H   UNL     1       0.074  -8.969  -7.503  0.00  0.00    -0.081 HD
ENDROOT
BRANCH   1  21
ATOM     21  S   UNL     1       0.043  -2.774  -2.891  0.00  0.00    -0.077 S 
BRANCH  21  22
ATOM     22  C   UNL     1       0.046  -2.178  -1.177  0.00  0.00    +0.173 C 
BRANCH  22  26
ATOM     23  C   UNL     1       0.035   1.461   0.010  0.00  0.00    +0.131 C 
ATOM     24  N   UNL     1       0.042  -0.004   0.002  0.00  0.00    -0.307 N 
ATOM     25  C   UNL     1       0.049  -0.743   1.267  0.00  0.00    +0.131 C 
ATOM     26  C   UNL     1       0.040  -0.671  -1.169  0.00  0.00    +0.225 C 
ATOM     27  O   UNL     1       0.034  -0.059  -2.216  0.00  0.00    -0.275 OA
ENDBRANCH  22  26
ENDBRANCH  21  22
ENDBRANCH   1  21
BRANCH  17  28
ATOM     28  C   UNL     1      -0.110  -7.712  -9.098  0.00  0.00    +0.019 C 
BRANCH  28  29
ATOM     29  C   UNL     1       1.079  -8.319  -9.798  0.00  0.00    +0.199 C 
ATOM     30  O   UNL     1       1.921  -8.913  -9.158  0.00  0.00    -0.278 OA
ATOM     31  N   UNL     1       1.206  -8.202 -11.134  0.00  0.00    -0.300 N 
ATOM     32  C   UNL     1       0.672  -7.694 -12.400  0.00  0.00    +0.126 C 
ATOM     33  C   UNL     1       1.979  -8.488 -12.346  0.00  0.00    +0.126 C 
ENDBRANCH  28  29
ENDBRANCH  17  28
TORSDOF 5
