REMARK  Name = ZINC45470268
REMARK  12 active torsions:
REMARK  status: ('A' for Active; 'I' for Inactive)
REMARK    1  A    between atoms: C_1  and  C_2
REMARK    2  A    between atoms: C_2  and  O_3
REMARK    3  A    between atoms: O_3  and  C_4
REMARK    4  A    between atoms: C_4  and  C_6
REMARK    5  A    between atoms: C_7  and  C_19
REMARK    6  A    between atoms: C_12  and  C_14
REMARK    7  A    between atoms: C_19  and  N_20
REMARK    8  A    between atoms: C_24  and  C_26
REMARK    9  A    between atoms: C_28  and  O_34
REMARK   10  A    between atoms: C_31  and  O_32
REMARK   11  A    between atoms: O_32  and  C_33
REMARK   12  A    between atoms: O_34  and  C_35
REMARK                            x       y       z     vdW  Elec       q    Type
REMARK                         _______ _______ _______ _____ _____    ______ ____
ROOT
ATOM      1  C   UNL     1       1.650  -2.337   2.091  0.00  0.00    +0.079 C 
ATOM      2  C   UNL     1       1.111  -3.505   2.501  0.00  0.00    +0.008 C 
ATOM      3  N   UNL     1       1.038  -3.820   3.828  0.00  0.00    -0.274 N 
ATOM      4  C   UNL     1       1.483  -3.022   4.806  0.00  0.00    +0.304 C 
ATOM      5  O   UNL     1       1.375  -3.390   5.960  0.00  0.00    -0.252 OA
ATOM      6  N   UNL     1       2.047  -1.824   4.554  0.00  0.00    -0.285 N 
ATOM      7  C   UNL     1       2.178  -1.392   3.152  0.00  0.00    +0.179 C 
ATOM      8  H   UNL     1       0.642  -4.670   4.075  0.00  0.00    +0.156 HD
ATOM      9  H   UNL     1       2.362  -1.261   5.278  0.00  0.00    +0.151 HD
ENDROOT
BRANCH   7  10
ATOM     10  C   UNL     1       1.454  -0.079   3.006  0.00  0.00    +0.130 A 
ATOM     11  C   UNL     1       1.930   1.018   2.390  0.00  0.00    +0.047 A 
ATOM     12  C   UNL     1       0.928   2.011   2.488  0.00  0.00    +0.041 A 
ATOM     13  C   UNL     1      -0.100   1.462   3.158  0.00  0.00    +0.195 A 
ATOM     14  O   UNL     1       0.221   0.194   3.464  0.00  0.00    -0.466 OA
ENDBRANCH   7  10
BRANCH   1  15
ATOM     15  C   UNL     1       1.726  -2.009   0.717  0.00  0.00    +0.339 C 
ATOM     16  O   UNL     1       1.401  -2.827  -0.123  0.00  0.00    -0.245 OA
BRANCH  15  17
ATOM     17  O   UNL     1       2.159  -0.788   0.338  0.00  0.00    -0.462 OA
BRANCH  17  19
ATOM     18  C   UNL     1       2.722   0.898  -1.300  0.00  0.00    +0.048 C 
ATOM     19  C   UNL     1       2.210  -0.525  -1.066  0.00  0.00    +0.229 C 
ENDBRANCH  17  19
ENDBRANCH  15  17
ENDBRANCH   1  15
BRANCH   2  20
ATOM     20  C   UNL     1       0.579  -4.475   1.478  0.00  0.00    -0.026 C 
BRANCH  20  21
ATOM     21  N   UNL     1       1.679  -5.307   0.974  0.00  0.00    +0.388 N 
ATOM     22  C   UNL     1       2.185  -6.174   2.059  0.00  0.00    -0.078 C 
ATOM     23  C   UNL     1       1.444  -7.521   1.868  0.00  0.00    -0.020 C 
ATOM     24  C   UNL     1       1.386  -7.629   0.321  0.00  0.00    -0.012 C 
ATOM     25  C   UNL     1       1.192  -6.164  -0.123  0.00  0.00    -0.034 C 
ATOM     26  H   UNL     1       2.426  -4.717   0.637  0.00  0.00    -0.080 HD
BRANCH  25  27
ATOM     27  C   UNL     1       1.988  -5.898  -1.374  0.00  0.00    -0.016 A 
ATOM     28  C   UNL     1       3.295  -5.459  -1.281  0.00  0.00    +0.051 A 
ATOM     29  C   UNL     1       4.027  -5.215  -2.433  0.00  0.00    +0.121 A 
ATOM     30  C   UNL     1       3.448  -5.410  -3.678  0.00  0.00    +0.049 A 
ATOM     31  C   UNL     1       2.142  -5.849  -3.771  0.00  0.00    +0.049 A 
ATOM     32  C   UNL     1       1.411  -6.098  -2.619  0.00  0.00    +0.122 A 
BRANCH  32  33
ATOM     33  O   UNL     1       0.126  -6.535  -2.710  0.00  0.00    -0.495 OA
ATOM     34  C   UNL     1      -0.404  -6.720  -4.024  0.00  0.00    +0.277 C 
ENDBRANCH  32  33
BRANCH  29  35
ATOM     35  O   UNL     1       5.314  -4.783  -2.342  0.00  0.00    -0.495 OA
ATOM     36  C   UNL     1       6.009  -4.551  -3.569  0.00  0.00    +0.277 C 
ENDBRANCH  29  35
ENDBRANCH  25  27
ENDBRANCH  20  21
ENDBRANCH   2  20
TORSDOF 9
