REMARK  Name = ZINC39933823
REMARK  9 active torsions:
REMARK  status: ('A' for Active; 'I' for Inactive)
REMARK    1  A    between atoms: C_1  and  C_2
REMARK    2  A    between atoms: C_2  and  C_3
REMARK    3  A    between atoms: C_3  and  C_4
REMARK    4  A    between atoms: C_4  and  N_5
REMARK    5  A    between atoms: C_9  and  N_10
REMARK    6  A    between atoms: N_10  and  C_11
REMARK    7  A    between atoms: N_22  and  C_25
REMARK    8  A    between atoms: C_25  and  C_26
REMARK    9  A    between atoms: C_26  and  C_27
REMARK                            x       y       z     vdW  Elec       q    Type
REMARK                         _______ _______ _______ _____ _____    ______ ____
ROOT
ATOM      1  N   UNL     1      -2.687  -2.943   0.002  0.00  0.00    -0.221 N 
ATOM      2  C   UNL     1      -3.358  -2.956   1.173  0.00  0.00    +0.260 C 
ATOM      3  O   UNL     1      -2.853  -2.513   2.187  0.00  0.00    -0.269 OA
ATOM      4  C   UNL     1      -4.719  -3.521   1.190  0.00  0.00    +0.113 C 
ATOM      5  C   UNL     1      -5.466  -3.567   2.352  0.00  0.00    +0.088 C 
ATOM      6  C   UNL     1      -5.248  -4.033  -0.087  0.00  0.00    +0.260 C 
ATOM      7  O   UNL     1      -6.364  -4.514  -0.152  0.00  0.00    -0.269 OA
ATOM      8  N   UNL     1      -4.463  -3.955  -1.180  0.00  0.00    -0.221 N 
ATOM      9  C   UNL     1      -3.234  -3.423  -1.124  0.00  0.00    +0.318 C 
ATOM     10  O   UNL     1      -2.579  -3.377  -2.146  0.00  0.00    -0.252 OA
ENDROOT
BRANCH   5  11
ATOM     11  N   UNL     1      -6.762  -3.936   2.305  0.00  0.00    -0.313 N 
ATOM     12  H   UNL     1      -7.192  -4.091   1.450  0.00  0.00    +0.149 HD
BRANCH  11  13
ATOM     13  C   UNL     1      -7.521  -4.103   3.547  0.00  0.00    +0.267 C 
ATOM     14  N   UNL     1      -7.183  -5.386   4.176  0.00  0.00    -0.348 N 
ATOM     15  C   UNL     1      -8.277  -6.088   4.243  0.00  0.00    +0.061 A 
ATOM     16  C   UNL     1      -8.572  -7.431   4.761  0.00  0.00    +0.027 A 
ATOM     17  C   UNL     1      -9.831  -7.908   4.694  0.00  0.00    +0.002 A 
ATOM     18  C   UNL     1     -10.894  -7.169   4.144  0.00  0.00    +0.002 A 
ATOM     19  C   UNL     1     -10.733  -5.929   3.641  0.00  0.00    +0.027 A 
ATOM     20  C   UNL     1      -9.402  -5.306   3.660  0.00  0.00    +0.061 A 
ATOM     21  N   UNL     1      -8.960  -4.150   3.256  0.00  0.00    -0.348 N 
ATOM     22  H   UNL     1      -6.306  -5.660   4.485  0.00  0.00    +0.163 HD
ATOM     23  H   UNL     1      -9.484  -3.449   2.839  0.00  0.00    +0.163 HD
ENDBRANCH  11  13
ENDBRANCH   5  11
BRANCH   1  24
ATOM     24  C   UNL     1      -1.333  -2.386  -0.040  0.00  0.00    +0.118 C 
BRANCH  24  25
ATOM     25  C   UNL     1      -1.406  -0.889  -0.346  0.00  0.00    +0.019 C 
BRANCH  25  27
ATOM     26  C   UNL     1      -0.065   1.189  -0.697  0.00  0.00    +0.004 C 
ATOM     27  C   UNL     1       0.009  -0.308  -0.391  0.00  0.00    -0.002 C 
ENDBRANCH  25  27
ENDBRANCH  24  25
ENDBRANCH   1  24
BRANCH   8  28
ATOM     28  C   UNL     1      -4.966  -4.458  -2.461  0.00  0.00    +0.123 C 
BRANCH  28  29
ATOM     29  C   UNL     1      -5.686  -3.331  -3.204  0.00  0.00    +0.054 C 
BRANCH  29  30
ATOM     30  C   UNL     1      -6.204  -3.848  -4.521  0.00  0.00    -0.046 A 
ATOM     31  C   UNL     1      -5.410  -3.781  -5.651  0.00  0.00    +0.004 A 
ATOM     32  C   UNL     1      -5.885  -4.256  -6.859  0.00  0.00    +0.000 A 
ATOM     33  C   UNL     1      -7.154  -4.798  -6.938  0.00  0.00    +0.000 A 
ATOM     34  C   UNL     1      -7.948  -4.867  -5.808  0.00  0.00    +0.000 A 
ATOM     35  C   UNL     1      -7.471  -4.396  -4.599  0.00  0.00    +0.004 A 
ENDBRANCH  29  30
ENDBRANCH  28  29
ENDBRANCH   8  28
TORSDOF 8
