REMARK  Name = ZINC63874552
REMARK  8 active torsions:
REMARK  status: ('A' for Active; 'I' for Inactive)
REMARK    1  A    between atoms: C_7  and  C_10
REMARK    2  A    between atoms: C_13  and  S_22
REMARK    3  A    between atoms: N_14  and  C_15
REMARK    4  A    between atoms: C_15  and  C_16
REMARK    5  A    between atoms: S_22  and  C_23
REMARK    6  A    between atoms: C_23  and  C_24
REMARK    7  A    between atoms: N_26  and  C_27
REMARK    8  A    between atoms: C_32  and  C_33
REMARK                            x       y       z     vdW  Elec       q    Type
REMARK                         _______ _______ _______ _____ _____    ______ ____
ROOT
ATOM      1  C   UNL     1       0.579  -3.466  -0.153  0.00  0.00    +0.163 A 
ATOM      2  N   UNL     1      -0.744  -3.394  -0.189  0.00  0.00    -0.129 NA
ATOM      3  N   UNL     1      -1.242  -4.576  -0.267  0.00  0.00    -0.122 NA
ATOM      4  C   UNL     1      -0.273  -5.478  -0.286  0.00  0.00    +0.192 A 
ATOM      5  N   UNL     1       0.910  -4.808  -0.221  0.00  0.00    -0.300 N 
ENDROOT
BRANCH   1  12
ATOM      6  C   UNL     1      -0.069   1.023  -0.223  0.00  0.00    +0.001 A 
ATOM      7  C   UNL     1       1.113   1.760  -0.110  0.00  0.00    +0.002 A 
ATOM      8  C   UNL     1       2.322   1.159   0.007  0.00  0.00    +0.026 A 
ATOM      9  C   UNL     1       2.408  -0.257   0.018  0.00  0.00    +0.043 A 
ATOM     10  N   UNL     1       3.444  -1.067   0.119  0.00  0.00    -0.380 N 
ATOM     11  C   UNL     1       2.977  -2.456   0.076  0.00  0.00    +0.152 C 
ATOM     12  C   UNL     1       1.473  -2.388  -0.069  0.00  0.00    +0.025 C 
ATOM     13  C   UNL     1       1.161  -1.029  -0.100  0.00  0.00    +0.006 A 
ATOM     14  C   UNL     1      -0.063  -0.335  -0.220  0.00  0.00    +0.010 A 
ATOM     15  H   UNL     1       4.369  -0.788   0.206  0.00  0.00    +0.160 HD
ENDBRANCH   1  12
BRANCH   5  16
ATOM     16  C   UNL     1       2.256  -5.387  -0.221  0.00  0.00    +0.157 C 
BRANCH  16  17
ATOM     17  C   UNL     1       2.809  -5.394  -1.647  0.00  0.00    +0.138 C 
ATOM     18  C   UNL     1       4.224  -6.024  -1.672  0.00  0.00    +0.035 C 
ATOM     19  C   UNL     1       4.302  -6.516  -3.143  0.00  0.00    +0.031 C 
ATOM     20  C   UNL     1       2.841  -6.924  -3.430  0.00  0.00    +0.160 C 
ATOM     21  O   UNL     1       2.006  -6.237  -2.489  0.00  0.00    -0.375 OA
ENDBRANCH  16  17
ENDBRANCH   5  16
BRANCH   4  22
ATOM     22  S   UNL     1      -0.477  -7.226  -0.386  0.00  0.00    -0.077 S 
BRANCH  22  23
ATOM     23  C   UNL     1      -2.275  -7.455  -0.453  0.00  0.00    +0.173 C 
BRANCH  23  24
ATOM     24  C   UNL     1      -2.591  -8.925  -0.541  0.00  0.00    +0.228 C 
ATOM     25  O   UNL     1      -1.692  -9.739  -0.558  0.00  0.00    -0.275 OA
ATOM     26  N   UNL     1      -3.873  -9.336  -0.602  0.00  0.00    -0.284 N 
ATOM     27  H   UNL     1      -4.594  -8.691  -0.526  0.00  0.00    +0.155 HD
BRANCH  26  28
ATOM     28  C   UNL     1      -4.164 -10.689  -0.775  0.00  0.00    +0.052 A 
ATOM     29  C   UNL     1      -3.349 -11.655  -0.203  0.00  0.00    +0.044 A 
ATOM     30  C   UNL     1      -3.640 -12.995  -0.376  0.00  0.00    +0.043 A 
ATOM     31  C   UNL     1      -4.745 -13.384  -1.118  0.00  0.00    +0.021 A 
ATOM     32  C   UNL     1      -5.564 -12.437  -1.692  0.00  0.00    +0.022 A 
ATOM     33  C   UNL     1      -5.286 -11.079  -1.522  0.00  0.00    +0.073 A 
ATOM     34 CL   UNL     1      -2.615 -14.199   0.341  0.00  0.00    -0.083 Cl
BRANCH  33  35
ATOM     35  C   UNL     1      -6.138 -10.090  -2.111  0.00  0.00    +0.101 C 
ATOM     36  N   UNL     1      -6.814  -9.306  -2.579  0.00  0.00    -0.191 NA
ENDBRANCH  33  35
ENDBRANCH  26  28
ENDBRANCH  23  24
ENDBRANCH  22  23
ENDBRANCH   4  22
TORSDOF 8
