REMARK  Name = ZINC06244925
REMARK  8 active torsions:
REMARK  status: ('A' for Active; 'I' for Inactive)
REMARK    1  A    between atoms: C_1  and  C_2
REMARK    2  A    between atoms: C_5  and  C_40
REMARK    3  A    between atoms: C_9  and  C_14
REMARK    4  A    between atoms: C_14  and  C_16
REMARK    5  A    between atoms: C_14  and  N_70
REMARK    6  A    between atoms: N_20  and  C_21
REMARK    7  A    between atoms: C_21  and  C_22
REMARK    8  A    between atoms: N_30  and  C_33
REMARK                            x       y       z     vdW  Elec       q    Type
REMARK                         _______ _______ _______ _____ _____    ______ ____
ROOT
ATOM      1  C   UNL     1       2.507   3.775  -0.002  0.00  0.00    +0.039 C 
ENDROOT
BRANCH   1  10
ATOM      2  C   UNL     1      -2.496   5.221   0.052  0.00  0.00    +0.044 C 
ATOM      3  C   UNL     1      -2.465   3.714   0.044  0.00  0.00    -0.041 A 
ATOM      4  C   UNL     1      -3.632   3.004   0.051  0.00  0.00    +0.004 A 
ATOM      5  C   UNL     1      -3.615   1.616   0.043  0.00  0.00    +0.005 A 
ATOM      6  C   UNL     1      -2.421   0.927   0.029  0.00  0.00    -0.026 A 
ATOM      7  C   UNL     1      -1.220   1.629   0.017  0.00  0.00    +0.052 A 
ATOM      8  C   UNL     1      -1.241   3.037   0.029  0.00  0.00    +0.002 A 
ATOM      9  C   UNL     1       0.028   3.766   0.022  0.00  0.00    +0.018 A 
ATOM     10  C   UNL     1       1.183   3.055   0.007  0.00  0.00    +0.011 A 
ATOM     11  C   UNL     1       1.150   1.644  -0.000  0.00  0.00    +0.251 A 
ATOM     12  O   UNL     1       2.200   1.025  -0.013  0.00  0.00    -0.268 OA
ATOM     13  N   UNL     1      -0.011   0.966   0.007  0.00  0.00    -0.322 N 
ATOM     14  H   UNL     1       0.002  -0.004   0.002  0.00  0.00    +0.169 HD
ATOM     15  C   UNL     1      -2.417  -0.580   0.021  0.00  0.00    +0.046 C 
ENDBRANCH   1  10
BRANCH   1  21
ATOM     16  C   UNL     1       2.621   3.480   2.399  0.00  0.00    -0.058 C 
ATOM     17  C   UNL     1       3.474   2.907   3.534  0.00  0.00    +0.086 C 
ATOM     18  N   UNL     1       4.776   3.589   3.557  0.00  0.00    -0.331 N 
ATOM     19  C   UNL     1       5.482   3.413   2.280  0.00  0.00    +0.086 C 
ATOM     20  C   UNL     1       4.629   3.986   1.146  0.00  0.00    -0.058 C 
ATOM     21  N   UNL     1       3.333   3.277   1.120  0.00  0.00    +0.391 N 
ATOM     22  H   UNL     1       3.504   2.274   0.988  0.00  0.00    -0.080 HD
BRANCH  18  23
ATOM     23  C   UNL     1       5.557   3.141   4.627  0.00  0.00    +0.065 A 
ATOM     24  C   UNL     1       6.795   3.718   4.874  0.00  0.00    +0.026 A 
ATOM     25  C   UNL     1       7.564   3.274   5.932  0.00  0.00    +0.002 A 
ATOM     26  C   UNL     1       7.103   2.255   6.746  0.00  0.00    +0.003 A 
ATOM     27  C   UNL     1       5.870   1.677   6.504  0.00  0.00    +0.040 A 
ATOM     28  C   UNL     1       5.092   2.121   5.450  0.00  0.00    +0.144 A 
ATOM     29  F   UNL     1       3.885   1.560   5.218  0.00  0.00    -0.204 F 
ENDBRANCH  18  23
ENDBRANCH   1  21
BRANCH   1  30
ATOM     30  C   UNL     1       3.223   3.494  -1.298  0.00  0.00    +0.143 A 
ATOM     31  N   UNL     1       3.835   2.384  -1.629  0.00  0.00    -0.115 NA
ATOM     32  N   UNL     1       4.319   2.534  -2.814  0.00  0.00    -0.023 NA
ATOM     33  N   UNL     1       4.037   3.714  -3.244  0.00  0.00    -0.044 NA
ATOM     34  N   UNL     1       3.362   4.337  -2.338  0.00  0.00    -0.228 N 
BRANCH  34  35
ATOM     35  C   UNL     1       2.845   5.705  -2.425  0.00  0.00    +0.178 C 
BRANCH  35  36
ATOM     36  C   UNL     1       3.892   6.682  -1.884  0.00  0.00    +0.140 C 
ATOM     37  C   UNL     1       3.312   8.112  -1.865  0.00  0.00    +0.035 C 
ATOM     38  C   UNL     1       4.529   8.967  -2.313  0.00  0.00    +0.031 C 
ATOM     39  C   UNL     1       5.217   7.999  -3.308  0.00  0.00    +0.160 C 
ATOM     40  O   UNL     1       5.037   6.691  -2.744  0.00  0.00    -0.375 OA
ENDBRANCH  35  36
ENDBRANCH  34  35
ENDBRANCH   1  30
TORSDOF 6
