REMARK  Name = ZINC11357691
REMARK  10 active torsions:
REMARK  status: ('A' for Active; 'I' for Inactive)
REMARK    1  A    between atoms: C_1  and  C_2
REMARK    2  A    between atoms: C_5  and  S_7
REMARK    3  A    between atoms: S_7  and  C_8
REMARK    4  A    between atoms: C_8  and  C_9
REMARK    5  A    between atoms: C_12  and  C_15
REMARK    6  A    between atoms: N_17  and  C_18
REMARK    7  A    between atoms: C_22  and  S_24
REMARK    8  A    between atoms: S_24  and  N_27
REMARK    9  A    between atoms: N_27  and  C_28
REMARK   10  A    between atoms: C_28  and  C_29
REMARK                            x       y       z     vdW  Elec       q    Type
REMARK                         _______ _______ _______ _____ _____    ______ ____
ROOT
ATOM      1  C   UNL     1       0.162   0.020  -0.175  0.00  0.00    +0.248 C 
ATOM      2  O   UNL     1       1.267  -0.413  -0.437  0.00  0.00    -0.270 OA
ATOM      3  N   UNL     1      -0.016   1.344   0.009  0.00  0.00    -0.281 N 
ATOM      4  H   UNL     1      -0.909   1.699   0.139  0.00  0.00    +0.155 HD
ENDROOT
BRANCH   1   8
ATOM      5  C   UNL     1      -3.136  -2.635   0.163  0.00  0.00    -0.037 A 
ATOM      6  C   UNL     1      -1.880  -3.131  -0.136  0.00  0.00    +0.005 A 
ATOM      7  C   UNL     1      -0.804  -2.275  -0.247  0.00  0.00    +0.013 A 
ATOM      8  C   UNL     1      -0.986  -0.903  -0.057  0.00  0.00    +0.037 A 
ATOM      9  C   UNL     1      -2.255  -0.409   0.250  0.00  0.00    +0.013 A 
ATOM     10  C   UNL     1      -3.322  -1.277   0.353  0.00  0.00    +0.005 A 
BRANCH   5  11
ATOM     11  C   UNL     1      -4.306  -3.576   0.283  0.00  0.00    +0.111 C 
BRANCH  11  12
ATOM     12  S   UNL     1      -4.453  -4.142   1.996  0.00  0.00    -0.094 S 
BRANCH  12  17
ATOM     13  C   UNL     1      -8.190  -7.467   3.575  0.00  0.00    +0.066 C 
ATOM     14  C   UNL     1      -7.510  -6.655   2.503  0.00  0.00    +0.047 A 
ATOM     15  C   UNL     1      -7.966  -6.673   1.227  0.00  0.00    +0.070 A 
ATOM     16  S   UNL     1      -6.805  -5.564   0.444  0.00  0.00    -0.069 S 
ATOM     17  C   UNL     1      -5.857  -5.196   1.851  0.00  0.00    +0.135 A 
ATOM     18  N   UNL     1      -6.455  -5.914   2.784  0.00  0.00    -0.238 NA
ENDBRANCH  12  17
ENDBRANCH  11  12
ENDBRANCH   5  11
ENDBRANCH   1   8
BRANCH   3  19
ATOM     19  C   UNL     1       1.086   2.205   0.008  0.00  0.00    +0.036 A 
ATOM     20  C   UNL     1       0.958   3.498  -0.483  0.00  0.00    +0.023 A 
ATOM     21  C   UNL     1       2.048   4.345  -0.483  0.00  0.00    +0.004 A 
ATOM     22  C   UNL     1       3.266   3.908   0.006  0.00  0.00    +0.028 A 
ATOM     23  C   UNL     1       3.396   2.622   0.496  0.00  0.00    +0.107 A 
ATOM     24  C   UNL     1       2.308   1.771   0.503  0.00  0.00    +0.051 A 
BRANCH  23  25
ATOM     25  S   UNL     1       4.950   2.070   1.118  0.00  0.00    +0.059 S 
ATOM     26  O   UNL     1       4.949   0.653   1.015  0.00  0.00    -0.153 OA
ATOM     27  O   UNL     1       5.944   2.878   0.503  0.00  0.00    -0.153 OA
BRANCH  25  28
ATOM     28  N   UNL     1       4.984   2.427   2.735  0.00  0.00    -0.183 NA
ATOM     29  H   UNL     1       5.623   3.071   3.076  0.00  0.00    +0.148 HD
BRANCH  28  30
ATOM     30  C   UNL     1       4.048   1.768   3.650  0.00  0.00    +0.180 C 
BRANCH  30  31
ATOM     31  C   UNL     1       4.509   1.970   5.071  0.00  0.00    +0.120 A 
ATOM     32  C   UNL     1       4.163   2.993   5.872  0.00  0.00    +0.046 A 
ATOM     33  C   UNL     1       4.819   2.785   7.107  0.00  0.00    +0.041 A 
ATOM     34  C   UNL     1       5.527   1.647   6.986  0.00  0.00    +0.195 A 
ATOM     35  O   UNL     1       5.331   1.155   5.752  0.00  0.00    -0.466 OA
ENDBRANCH  30  31
ENDBRANCH  28  30
ENDBRANCH  25  28
ENDBRANCH  23  25
ENDBRANCH   3  19
TORSDOF 9
