REMARK  Name = ZINC39302956
REMARK  6 active torsions:
REMARK  status: ('A' for Active; 'I' for Inactive)
REMARK    1  A    between atoms: N_8  and  C_11
REMARK    2  A    between atoms: C_11  and  C_12
REMARK    3  A    between atoms: C_15  and  C_18
REMARK    4  A    between atoms: N_20  and  C_21
REMARK    5  A    between atoms: N_25  and  C_27
REMARK    6  A    between atoms: C_27  and  C_28
REMARK                            x       y       z     vdW  Elec       q    Type
REMARK                         _______ _______ _______ _____ _____    ______ ____
ROOT
ATOM      1  C   UNL     1       4.786  -4.972   5.353  0.00  0.00    +0.244 C 
ATOM      2  O   UNL     1       5.791  -4.590   5.919  0.00  0.00    -0.270 OA
ATOM      3  N   UNL     1       3.921  -5.786   5.990  0.00  0.00    -0.310 N 
ATOM      4  H   UNL     1       3.119  -6.092   5.538  0.00  0.00    +0.149 HD
ENDROOT
BRANCH   1   8
ATOM      5  C   UNL     1       4.001  -3.746   1.362  0.00  0.00    -0.026 A 
ATOM      6  C   UNL     1       5.145  -3.308   2.005  0.00  0.00    +0.006 A 
ATOM      7  C   UNL     1       5.406  -3.703   3.301  0.00  0.00    +0.013 A 
ATOM      8  C   UNL     1       4.512  -4.545   3.964  0.00  0.00    +0.037 A 
ATOM      9  C   UNL     1       3.360  -4.984   3.310  0.00  0.00    +0.013 A 
ATOM     10  C   UNL     1       3.108  -4.577   2.016  0.00  0.00    +0.006 A 
BRANCH   5  11
ATOM     11  C   UNL     1       3.722  -3.312  -0.054  0.00  0.00    +0.184 C 
BRANCH  11  19
ATOM     12  C   UNL     1      -0.016   1.351   0.009  0.00  0.00    +0.005 A 
ATOM     13  C   UNL     1       1.197   2.070   0.002  0.00  0.00    +0.018 A 
ATOM     14  C   UNL     1       2.375   1.423  -0.013  0.00  0.00    +0.098 A 
ATOM     15  N   UNL     1       2.421   0.049  -0.022  0.00  0.00    -0.251 N 
ATOM     16  C   UNL     1       1.248  -0.682  -0.014  0.00  0.00    +0.162 A 
ATOM     17  C   UNL     1       0.002  -0.004   0.002  0.00  0.00    +0.049 A 
ATOM     18  N   UNL     1       1.553  -1.958  -0.024  0.00  0.00    -0.148 NA
ATOM     19  N   UNL     1       2.950  -2.066  -0.039  0.00  0.00    -0.208 N 
ATOM     20  C   UNL     1       3.456  -0.816  -0.037  0.00  0.00    +0.351 A 
ATOM     21  O   UNL     1       4.638  -0.520  -0.048  0.00  0.00    -0.244 OA
ENDBRANCH  11  19
ENDBRANCH   5  11
ENDBRANCH   1   8
BRANCH   3  22
ATOM     22  C   UNL     1       4.192  -6.209   7.366  0.00  0.00    +0.055 C 
ATOM     23  C   UNL     1       5.059  -7.489   7.373  0.00  0.00    +0.002 C 
ATOM     24  C   UNL     1       4.452  -8.312   8.537  0.00  0.00    -0.077 C 
ATOM     25  N   UNL     1       2.997  -8.039   8.424  0.00  0.00    +0.384 N 
ATOM     26  C   UNL     1       2.882  -6.604   8.072  0.00  0.00    -0.056 C 
ATOM     27  H   UNL     1       2.590  -8.610   7.699  0.00  0.00    -0.081 HD
BRANCH  25  28
ATOM     28  C   UNL     1       2.332  -8.298   9.708  0.00  0.00    -0.040 C 
BRANCH  28  29
ATOM     29  C   UNL     1       2.398  -9.771  10.020  0.00  0.00    -0.027 A 
ATOM     30  C   UNL     1       1.393 -10.616   9.585  0.00  0.00    +0.044 A 
ATOM     31  C   UNL     1       1.454 -11.969   9.872  0.00  0.00    +0.020 A 
ATOM     32  C   UNL     1       2.520 -12.475  10.592  0.00  0.00    +0.003 A 
ATOM     33  C   UNL     1       3.525 -11.631  11.026  0.00  0.00    +0.020 A 
ATOM     34  C   UNL     1       3.467 -10.280  10.735  0.00  0.00    +0.044 A 
ATOM     35 CL   UNL     1       4.734  -9.221  11.273  0.00  0.00    -0.083 Cl
ATOM     36 CL   UNL     1       0.053  -9.980   8.682  0.00  0.00    -0.083 Cl
ENDBRANCH  28  29
ENDBRANCH  25  28
ENDBRANCH   3  22
TORSDOF 6
