REMARK  Name = ZINC34791927
REMARK  11 active torsions:
REMARK  status: ('A' for Active; 'I' for Inactive)
REMARK    1  A    between atoms: C_1  and  C_2
REMARK    2  A    between atoms: C_2  and  C_3
REMARK    3  A    between atoms: C_2  and  N_4
REMARK    4  A    between atoms: C_5  and  C_7
REMARK    5  A    between atoms: C_7  and  C_9
REMARK    6  A    between atoms: C_7  and  N_16
REMARK    7  A    between atoms: C_9  and  C_10
REMARK    8  A    between atoms: C_22  and  C_31
REMARK    9  A    between atoms: N_27  and  C_28
REMARK   10  A    between atoms: C_28  and  C_29
REMARK   11  A    between atoms: C_36  and  C_37
REMARK                            x       y       z     vdW  Elec       q    Type
REMARK                         _______ _______ _______ _____ _____    ______ ____
ROOT
ATOM      1  N   UNL     1      -1.855  -3.356  -0.076  0.00  0.00    -0.280 N 
ATOM      2  C   UNL     1      -2.802  -3.260  -1.196  0.00  0.00    +0.160 C 
ATOM      3  C   UNL     1      -2.961  -4.679  -1.694  0.00  0.00    +0.043 C 
ATOM      4  C   UNL     1      -2.174  -5.446  -0.912  0.00  0.00    +0.058 C 
ATOM      5  C   UNL     1      -1.513  -4.651   0.047  0.00  0.00    +0.247 C 
ATOM      6  O   UNL     1      -0.737  -5.082   0.881  0.00  0.00    -0.270 OA
ATOM      7  C   UNL     1      -2.139  -6.935  -1.192  0.00  0.00    +0.142 C 
ATOM      8  N   UNL     1      -2.973  -7.424  -2.302  0.00  0.00    -0.288 N 
ATOM      9  C   UNL     1      -3.708  -6.532  -2.995  0.00  0.00    +0.307 C 
ATOM     10  O   UNL     1      -4.401  -6.926  -3.913  0.00  0.00    -0.252 OA
ATOM     11  N   UNL     1      -3.701  -5.224  -2.704  0.00  0.00    -0.253 N 
ATOM     12  H   UNL     1      -2.993  -8.367  -2.530  0.00  0.00    +0.151 HD
ENDROOT
BRANCH   7  13
ATOM     13  C   UNL     1      -2.567  -7.653   0.062  0.00  0.00    -0.011 A 
ATOM     14  C   UNL     1      -3.890  -7.617   0.462  0.00  0.00    +0.006 A 
ATOM     15  C   UNL     1      -4.283  -8.276   1.611  0.00  0.00    +0.000 A 
ATOM     16  C   UNL     1      -3.352  -8.971   2.361  0.00  0.00    +0.001 A 
ATOM     17  C   UNL     1      -2.030  -9.008   1.962  0.00  0.00    +0.013 A 
ATOM     18  C   UNL     1      -1.638  -8.352   0.809  0.00  0.00    +0.060 A 
BRANCH  18  19
ATOM     19  C   UNL     1      -0.197  -8.397   0.370  0.00  0.00    +0.418 C 
ATOM     20  F   UNL     1       0.557  -9.100   1.315  0.00  0.00    -0.166 F 
ATOM     21  F   UNL     1      -0.107  -9.039  -0.870  0.00  0.00    -0.166 F 
ATOM     22  F   UNL     1       0.296  -7.093   0.257  0.00  0.00    -0.166 F 
ENDBRANCH  18  19
ENDBRANCH   7  13
BRANCH   1  23
ATOM     23  C   UNL     1      -1.369  -2.247   0.749  0.00  0.00    +0.167 C 
BRANCH  23  25
ATOM     24  N   UNL     1       0.800  -1.194   1.301  0.00  0.00    -0.311 N 
ATOM     25  C   UNL     1       0.130  -2.148   0.625  0.00  0.00    +0.234 C 
ATOM     26  O   UNL     1       0.733  -2.928  -0.082  0.00  0.00    -0.274 OA
ATOM     27  H   UNL     1       0.318  -0.571   1.866  0.00  0.00    +0.149 HD
BRANCH  24  29
ATOM     28  C   UNL     1       2.701   0.334   1.484  0.00  0.00    +0.027 C 
ATOM     29  C   UNL     1       2.257  -1.098   1.180  0.00  0.00    +0.067 C 
ATOM     30  C   UNL     1       2.915  -2.057   2.174  0.00  0.00    +0.027 C 
ENDBRANCH  24  29
ENDBRANCH  23  25
BRANCH  23  31
ATOM     31  C   UNL     1      -1.745  -2.496   2.211  0.00  0.00    +0.067 C 
BRANCH  31  32
ATOM     32  C   UNL     1      -3.245  -2.472   2.355  0.00  0.00    -0.045 A 
ATOM     33  C   UNL     1      -3.894  -1.282   2.626  0.00  0.00    +0.004 A 
ATOM     34  C   UNL     1      -5.270  -1.260   2.758  0.00  0.00    +0.000 A 
ATOM     35  C   UNL     1      -5.996  -2.429   2.619  0.00  0.00    +0.000 A 
ATOM     36  C   UNL     1      -5.347  -3.618   2.347  0.00  0.00    +0.000 A 
ATOM     37  C   UNL     1      -3.971  -3.639   2.211  0.00  0.00    +0.004 A 
ENDBRANCH  31  32
ENDBRANCH  23  31
ENDBRANCH   1  23
BRANCH  11  38
ATOM     38  C   UNL     1      -4.534  -4.330  -3.513  0.00  0.00    +0.141 C 
BRANCH  38  39
ATOM     39  C   UNL     1      -3.737  -3.829  -4.689  0.00  0.00    -0.015 C 
ATOM     40  C   UNL     1      -4.193  -3.992  -5.906  0.00  0.00    +0.005 C 
ENDBRANCH  38  39
ENDBRANCH  11  38
TORSDOF 9
