REMARK  Name = ZINC67089774
REMARK  7 active torsions:
REMARK  status: ('A' for Active; 'I' for Inactive)
REMARK    1  A    between atoms: C_6  and  C_7
REMARK    2  A    between atoms: C_7  and  C_10
REMARK    3  A    between atoms: C_10  and  N_11
REMARK    4  A    between atoms: N_14  and  C_15
REMARK    5  A    between atoms: C_15  and  C_16
REMARK    6  A    between atoms: C_19  and  S_21
REMARK    7  A    between atoms: S_21  and  N_24
REMARK                            x       y       z     vdW  Elec       q    Type
REMARK                         _______ _______ _______ _____ _____    ______ ____
ROOT
ATOM      1  N   UNL     1      -2.256   1.406  -0.534  0.00  0.00    -0.299 N 
ATOM      2  C   UNL     1      -3.206   2.256  -0.972  0.00  0.00    +0.300 C 
ATOM      3  O   UNL     1      -4.221   1.824  -1.482  0.00  0.00    -0.253 OA
ATOM      4  N   UNL     1      -3.029   3.587  -0.846  0.00  0.00    -0.295 N 
ATOM      5  H   UNL     1      -1.446   1.751  -0.128  0.00  0.00    +0.150 HD
ATOM      6  H   UNL     1      -2.219   3.932  -0.439  0.00  0.00    +0.151 HD
ENDROOT
BRANCH   1   7
ATOM      7  C   UNL     1      -2.448  -0.040  -0.672  0.00  0.00    +0.117 C 
BRANCH   7   8
ATOM      8  C   UNL     1      -1.263  -0.774  -0.042  0.00  0.00    +0.011 C 
ATOM      9  C   UNL     1      -1.263  -0.941   1.479  0.00  0.00    +0.014 C 
ATOM     10  C   UNL     1      -1.530  -2.147   0.577  0.00  0.00    +0.014 C 
BRANCH   8  16
ATOM     11  C   UNL     1       0.966   0.353  -0.205  0.00  0.00    +0.005 A 
ATOM     12  C   UNL     1       2.186   0.547  -0.825  0.00  0.00    +0.020 A 
ATOM     13  C   UNL     1       2.507  -0.176  -1.960  0.00  0.00    +0.041 A 
ATOM     14  C   UNL     1       1.607  -1.092  -2.474  0.00  0.00    +0.020 A 
ATOM     15  C   UNL     1       0.387  -1.285  -1.853  0.00  0.00    +0.005 A 
ATOM     16  C   UNL     1       0.067  -0.563  -0.719  0.00  0.00    -0.040 A 
ATOM     17 CL   UNL     1       4.039   0.067  -2.740  0.00  0.00    -0.084 Cl
ENDBRANCH   8  16
ENDBRANCH   7   8
ENDBRANCH   1   7
BRANCH   4  18
ATOM     18  C   UNL     1      -4.061   4.511  -1.322  0.00  0.00    +0.148 C 
BRANCH  18  19
ATOM     19  C   UNL     1      -3.622   5.929  -1.064  0.00  0.00    +0.009 A 
ATOM     20  C   UNL     1      -2.916   6.764  -1.866  0.00  0.00    +0.015 A 
ATOM     21  C   UNL     1      -2.625   8.038  -1.417  0.00  0.00    +0.036 A 
ATOM     22  C   UNL     1      -3.054   8.416  -0.188  0.00  0.00    +0.142 A 
ATOM     23  S   UNL     1      -3.904   6.950   0.373  0.00  0.00    -0.072 S 
BRANCH  22  24
ATOM     24  S   UNL     1      -2.836   9.957   0.638  0.00  0.00    +0.062 S 
ATOM     25  O   UNL     1      -2.949   9.691   2.029  0.00  0.00    -0.153 OA
ATOM     26  O   UNL     1      -1.683  10.563   0.069  0.00  0.00    -0.153 OA
BRANCH  24  27
ATOM     27  N   UNL     1      -4.123  10.917   0.233  0.00  0.00    -0.203 NA
ATOM     28  H   UNL     1      -4.811  10.579  -0.361  0.00  0.00    +0.144 HD
ATOM     29  H   UNL     1      -4.189  11.816   0.590  0.00  0.00    +0.144 HD
ENDBRANCH  24  27
ENDBRANCH  22  24
ENDBRANCH  18  19
ENDBRANCH   4  18
TORSDOF 7
