REMARK  Name = ZINC06820190
REMARK  5 active torsions:
REMARK  status: ('A' for Active; 'I' for Inactive)
REMARK    1  A    between atoms: C_1  and  C_2
REMARK    2  A    between atoms: C_2  and  C_3
REMARK    3  A    between atoms: C_2  and  O_4
REMARK    4  A    between atoms: O_4  and  C_5
REMARK    5  A    between atoms: C_9  and  C_11
REMARK                            x       y       z     vdW  Elec       q    Type
REMARK                         _______ _______ _______ _____ _____    ______ ____
ROOT
ATOM      1  C   UNL     1      -4.404  -4.127  -1.111  0.00  0.00    +0.060 C 
ATOM      2  C   UNL     1      -4.434  -5.423  -0.299  0.00  0.00    +0.109 C 
ATOM      3  C   UNL     1      -3.677  -6.501  -1.028  0.00  0.00    +0.218 C 
ATOM      4  O   UNL     1      -3.039  -7.316  -0.397  0.00  0.00    -0.275 OA
ATOM      5  N   UNL     1      -3.701  -6.570  -2.372  0.00  0.00    -0.285 N 
ATOM      6  C   UNL     1      -4.419  -5.628  -3.118  0.00  0.00    +0.041 A 
ATOM      7  C   UNL     1      -4.783  -4.419  -2.540  0.00  0.00    -0.015 A 
ATOM      8  C   UNL     1      -5.491  -3.486  -3.273  0.00  0.00    +0.055 A 
ATOM      9  C   UNL     1      -5.840  -3.755  -4.587  0.00  0.00    +0.167 A 
ATOM     10  C   UNL     1      -5.476  -4.967  -5.169  0.00  0.00    +0.168 A 
ATOM     11  C   UNL     1      -4.767  -5.901  -4.433  0.00  0.00    +0.073 A 
ATOM     12  O   UNL     1      -5.933  -4.988  -6.455  0.00  0.00    -0.453 OA
ATOM     13  C   UNL     1      -6.931  -3.951  -6.526  0.00  0.00    +0.466 C 
ATOM     14  O   UNL     1      -6.525  -3.016  -5.509  0.00  0.00    -0.453 OA
ATOM     15  H   UNL     1      -3.217  -7.277  -2.826  0.00  0.00    +0.155 HD
ENDROOT
BRANCH   1  20
ATOM     16  C   UNL     1      -1.538  -1.739  -0.505  0.00  0.00    +0.121 A 
ATOM     17  C   UNL     1      -0.465  -2.469  -0.997  0.00  0.00    +0.045 A 
ATOM     18  C   UNL     1      -0.671  -3.729  -1.522  0.00  0.00    +0.004 A 
ATOM     19  C   UNL     1      -1.945  -4.265  -1.558  0.00  0.00    +0.004 A 
ATOM     20  C   UNL     1      -3.016  -3.541  -1.069  0.00  0.00    -0.036 A 
ATOM     21  C   UNL     1      -2.815  -2.281  -0.538  0.00  0.00    +0.050 A 
BRANCH  16  22
ATOM     22  O   UNL     1      -1.339  -0.499   0.012  0.00  0.00    -0.489 OA
BRANCH  22  24
ATOM     23  C   UNL     1      -1.982   1.168   1.640  0.00  0.00    +0.051 C 
ATOM     24  C   UNL     1      -2.466   0.143   0.612  0.00  0.00    +0.167 C 
ATOM     25  C   UNL     1      -3.283   0.853  -0.469  0.00  0.00    +0.051 C 
ENDBRANCH  22  24
ENDBRANCH  16  22
ENDBRANCH   1  20
TORSDOF 3
