REMARK  Name = ZINC10810148
REMARK  7 active torsions:
REMARK  status: ('A' for Active; 'I' for Inactive)
REMARK    1  A    between atoms: C_1  and  C_2
REMARK    2  A    between atoms: C_15  and  C_17
REMARK    3  A    between atoms: C_17  and  N_18
REMARK    4  A    between atoms: N_18  and  C_19
REMARK    5  A    between atoms: N_18  and  C_20
REMARK    6  A    between atoms: C_23  and  C_29
REMARK    7  A    between atoms: C_25  and  N_26
REMARK                            x       y       z     vdW  Elec       q    Type
REMARK                         _______ _______ _______ _____ _____    ______ ____
ROOT
ATOM      1  C   UNL     1      -0.013   1.086   0.008  0.00  0.00    +0.201 C 
ENDROOT
BRANCH   1  15
ATOM      2  C   UNL     1      -1.738   0.575   4.278  0.00  0.00    +0.029 C 
ATOM      3  C   UNL     1      -0.913   1.716   3.679  0.00  0.00    +0.087 C 
ATOM      4  C   UNL     1       0.119   2.180   4.702  0.00  0.00    +0.118 C 
ATOM      5  C   UNL     1       1.178   3.009   4.024  0.00  0.00    +0.219 C 
ATOM      6  O   UNL     1       1.173   4.215   4.154  0.00  0.00    -0.275 OA
ATOM      7  N   UNL     1       2.133   2.418   3.273  0.00  0.00    -0.284 N 
ATOM      8  C   UNL     1       2.097   1.040   3.035  0.00  0.00    +0.055 A 
ATOM      9  C   UNL     1       3.231   0.262   3.197  0.00  0.00    +0.025 A 
ATOM     10  C   UNL     1       3.187  -1.089   2.903  0.00  0.00    +0.002 A 
ATOM     11  C   UNL     1       2.014  -1.664   2.447  0.00  0.00    +0.002 A 
ATOM     12  C   UNL     1       0.875  -0.896   2.293  0.00  0.00    +0.025 A 
ATOM     13  C   UNL     1       0.909   0.456   2.594  0.00  0.00    +0.058 A 
ATOM     14  N   UNL     1      -0.242   1.246   2.466  0.00  0.00    -0.265 N 
ATOM     15  C   UNL     1      -0.718   1.572   1.248  0.00  0.00    +0.237 C 
ATOM     16  O   UNL     1      -1.715   2.256   1.150  0.00  0.00    -0.274 OA
ATOM     17  H   UNL     1       2.848   2.954   2.896  0.00  0.00    +0.155 HD
ENDBRANCH   1  15
BRANCH   1  18
ATOM     18  N   UNL     1      -0.723   1.572  -1.182  0.00  0.00    -0.322 N 
ATOM     19  C   UNL     1      -0.640   3.036  -1.283  0.00  0.00    +0.130 C 
BRANCH  18  20
ATOM     20  C   UNL     1      -0.236   0.962  -2.340  0.00  0.00    +0.062 A 
ATOM     21  C   UNL     1       1.098   1.111  -2.697  0.00  0.00    +0.046 A 
ATOM     22  C   UNL     1       1.577   0.501  -3.841  0.00  0.00    +0.054 A 
ATOM     23  C   UNL     1       0.727  -0.247  -4.636  0.00  0.00    +0.075 A 
ATOM     24  C   UNL     1      -0.603  -0.392  -4.285  0.00  0.00    +0.048 A 
ATOM     25  C   UNL     1      -1.087   0.210  -3.140  0.00  0.00    +0.148 A 
ATOM     26 CL   UNL     1       3.246   0.680  -4.285  0.00  0.00    -0.083 Cl
BRANCH  23  27
ATOM     27  C   UNL     1       1.251  -0.905  -5.886  0.00  0.00    +0.419 C 
ATOM     28  F   UNL     1       0.213  -1.601  -6.517  0.00  0.00    -0.166 F 
ATOM     29  F   UNL     1       1.752   0.072  -6.753  0.00  0.00    -0.166 F 
ATOM     30  F   UNL     1       2.273  -1.799  -5.550  0.00  0.00    -0.166 F 
ENDBRANCH  23  27
BRANCH  25  31
ATOM     31  N   UNL     1      -2.510   0.053  -2.766  0.00  0.00    +0.058 N 
ATOM     32  O   UNL     1      -3.256  -0.606  -3.469  0.00  0.00    -0.126 OA
ATOM     33  O   UNL     1      -2.936   0.585  -1.756  0.00  0.00    -0.126 OA
ENDBRANCH  25  31
ENDBRANCH  18  20
ENDBRANCH   1  18
TORSDOF 5
