REMARK  Name = ZINC36611625
REMARK  9 active torsions:
REMARK  status: ('A' for Active; 'I' for Inactive)
REMARK    1  A    between atoms: C_1  and  C_2
REMARK    2  A    between atoms: C_3  and  C_8
REMARK    3  A    between atoms: N_5  and  C_7
REMARK    4  A    between atoms: C_10  and  C_25
REMARK    5  A    between atoms: N_11  and  S_13
REMARK    6  A    between atoms: S_13  and  C_16
REMARK    7  A    between atoms: C_20  and  N_22
REMARK    8  A    between atoms: N_27  and  C_31
REMARK    9  A    between atoms: C_29  and  C_30
REMARK                            x       y       z     vdW  Elec       q    Type
REMARK                         _______ _______ _______ _____ _____    ______ ____
ROOT
ATOM      1  C   UNL     1      -0.005  -0.361  -2.554  0.00  0.00    +0.117 A 
ATOM      2  C   UNL     1      -0.005  -1.188  -3.691  0.00  0.00    +0.096 A 
ATOM      3  C   UNL     1      -0.019  -0.381  -4.792  0.00  0.00    +0.117 A 
ATOM      4  N   UNL     1      -0.028   0.911  -4.354  0.00  0.00    -0.127 N 
ATOM      5  N   UNL     1      -0.025   0.892  -2.954  0.00  0.00    -0.147 NA
ATOM      6 CL   UNL     1       0.012  -2.924  -3.695  0.00  0.00    -0.079 Cl
ENDROOT
BRANCH   1   9
ATOM      7  C   UNL     1      -0.018   1.503   0.010  0.00  0.00    +0.068 C 
ATOM      8  C   UNL     1       0.002  -0.004   0.002  0.00  0.00    +0.069 A 
ATOM      9  C   UNL     1       0.008  -0.824  -1.143  0.00  0.00    +0.044 A 
ATOM     10  C   UNL     1       0.028  -2.121  -0.720  0.00  0.00    +0.118 A 
ATOM     11  N   UNL     1       0.034  -2.110   0.629  0.00  0.00    -0.274 N 
ATOM     12  N   UNL     1       0.023  -0.777   1.056  0.00  0.00    -0.176 NA
ATOM     13  C   UNL     1       0.053  -3.290   1.497  0.00  0.00    +0.172 C 
ENDBRANCH   1   9
BRANCH   3  14
ATOM     14  C   UNL     1      -0.023  -0.827  -6.204  0.00  0.00    +0.044 A 
ATOM     15  C   UNL     1       1.076  -1.066  -6.979  0.00  0.00    +0.118 A 
ATOM     16  N   UNL     1       0.641  -1.453  -8.195  0.00  0.00    -0.274 N 
ATOM     17  N   UNL     1      -0.758  -1.456  -8.179  0.00  0.00    -0.176 NA
ATOM     18  C   UNL     1      -1.162  -1.089  -6.992  0.00  0.00    +0.069 A 
ATOM     19  C   UNL     1      -2.595  -0.963  -6.545  0.00  0.00    +0.068 C 
ATOM     20  C   UNL     1       1.488  -1.809  -9.336  0.00  0.00    +0.172 C 
ENDBRANCH   3  14
BRANCH   4  21
ATOM     21  S   UNL     1      -0.046   2.262  -5.311  0.00  0.00    +0.099 S 
ATOM     22  O   UNL     1       0.500   3.318  -4.532  0.00  0.00    -0.146 OA
ATOM     23  O   UNL     1       0.500   1.880  -6.565  0.00  0.00    -0.146 OA
BRANCH  21  24
ATOM     24  C   UNL     1      -1.735   2.672  -5.601  0.00  0.00    +0.115 A 
ATOM     25  C   UNL     1      -2.399   2.137  -6.689  0.00  0.00    +0.029 A 
ATOM     26  C   UNL     1      -3.724   2.459  -6.917  0.00  0.00    +0.004 A 
ATOM     27  C   UNL     1      -4.386   3.315  -6.056  0.00  0.00    +0.033 A 
ATOM     28  C   UNL     1      -3.722   3.849  -4.968  0.00  0.00    +0.128 A 
ATOM     29  C   UNL     1      -2.398   3.524  -4.737  0.00  0.00    +0.061 A 
BRANCH  28  30
ATOM     30  N   UNL     1      -4.430   4.766  -4.046  0.00  0.00    +0.056 N 
ATOM     31  O   UNL     1      -5.588   5.048  -4.246  0.00  0.00    -0.126 OA
ATOM     32  O   UNL     1      -3.849   5.234  -3.095  0.00  0.00    -0.126 OA
ENDBRANCH  28  30
ENDBRANCH  21  24
ENDBRANCH   4  21
TORSDOF 5
