REMARK  Name = ZINC36848441
REMARK  6 active torsions:
REMARK  status: ('A' for Active; 'I' for Inactive)
REMARK    1  A    between atoms: C_1  and  C_2
REMARK    2  A    between atoms: C_2  and  C_25
REMARK    3  A    between atoms: N_5  and  C_9
REMARK    4  A    between atoms: C_9  and  C_10
REMARK    5  A    between atoms: C_10  and  C_12
REMARK    6  A    between atoms: C_28  and  C_31
REMARK                            x       y       z     vdW  Elec       q    Type
REMARK                         _______ _______ _______ _____ _____    ______ ____
ROOT
ATOM      1  C   UNL     1      -0.019   1.526   0.010  0.00  0.00    +0.047 C 
ATOM      2  C   UNL     1       0.002  -0.004   0.002  0.00  0.00    +0.135 C 
ATOM      3  C   UNL     1      -1.403  -0.557   0.139  0.00  0.00    +0.251 C 
ATOM      4  O   UNL     1      -2.332  -0.392  -0.621  0.00  0.00    -0.272 OA
ATOM      5  N   UNL     1      -1.403  -1.272   1.282  0.00  0.00    -0.216 N 
ATOM      6  C   UNL     1      -0.206  -1.247   1.879  0.00  0.00    +0.310 C 
ATOM      7  O   UNL     1       0.040  -1.819   2.924  0.00  0.00    -0.252 OA
ATOM      8  N   UNL     1       0.695  -0.520   1.195  0.00  0.00    -0.281 N 
ATOM      9  H   UNL     1       1.621  -0.365   1.440  0.00  0.00    +0.152 HD
ENDROOT
BRANCH   2  10
ATOM     10  C   UNL     1       0.657  -0.517  -1.255  0.00  0.00    -0.015 A 
ATOM     11  C   UNL     1      -0.111  -0.771  -2.377  0.00  0.00    +0.007 A 
ATOM     12  C   UNL     1       0.482  -1.241  -3.531  0.00  0.00    +0.019 A 
ATOM     13  C   UNL     1       1.861  -1.459  -3.564  0.00  0.00    +0.052 A 
ATOM     14  C   UNL     1       2.630  -1.200  -2.428  0.00  0.00    +0.019 A 
ATOM     15  C   UNL     1       2.024  -0.726  -1.282  0.00  0.00    +0.007 A 
BRANCH  13  16
ATOM     16  C   UNL     1       2.483  -1.947  -4.758  0.00  0.00    +0.099 C 
ATOM     17  N   UNL     1       2.976  -2.334  -5.705  0.00  0.00    -0.191 NA
ENDBRANCH  13  16
ENDBRANCH   2  10
BRANCH   5  18
ATOM     18  C   UNL     1      -2.569  -1.986   1.805  0.00  0.00    +0.197 C 
BRANCH  18  19
ATOM     19  C   UNL     1      -2.585  -3.391   1.260  0.00  0.00    +0.181 C 
ATOM     20  O   UNL     1      -1.707  -3.759   0.508  0.00  0.00    -0.290 OA
BRANCH  19  21
ATOM     21  C   UNL     1      -3.664  -4.317   1.640  0.00  0.00    +0.020 A 
ATOM     22  C   UNL     1      -4.680  -3.892   2.503  0.00  0.00    +0.012 A 
ATOM     23  C   UNL     1      -5.691  -4.761   2.857  0.00  0.00    +0.005 A 
ATOM     24  C   UNL     1      -5.705  -6.051   2.363  0.00  0.00    -0.035 A 
ATOM     25  C   UNL     1      -4.701  -6.491   1.502  0.00  0.00    -0.013 A 
ATOM     26  C   UNL     1      -3.679  -5.618   1.135  0.00  0.00    +0.020 A 
ATOM     27  C   UNL     1      -4.957  -7.904   1.127  0.00  0.00    -0.014 A 
ATOM     28  C   UNL     1      -4.248  -8.778   0.300  0.00  0.00    +0.009 A 
ATOM     29  C   UNL     1      -4.702 -10.067   0.110  0.00  0.00    +0.001 A 
ATOM     30  C   UNL     1      -5.859 -10.498   0.735  0.00  0.00    +0.000 A 
ATOM     31  C   UNL     1      -6.566  -9.637   1.555  0.00  0.00    +0.004 A 
ATOM     32  C   UNL     1      -6.119  -8.347   1.751  0.00  0.00    -0.035 A 
ATOM     33  C   UNL     1      -6.661  -7.201   2.570  0.00  0.00    +0.071 C 
ENDBRANCH  19  21
ENDBRANCH  18  19
ENDBRANCH   5  18
TORSDOF 5
