REMARK  Name = ZINC09095159
REMARK  13 active torsions:
REMARK  status: ('A' for Active; 'I' for Inactive)
REMARK    1  A    between atoms: C_1  and  C_2
REMARK    2  A    between atoms: C_2  and  N_74
REMARK    3  A    between atoms: C_3  and  C_4
REMARK    4  A    between atoms: C_3  and  N_74
REMARK    5  A    between atoms: C_5  and  C_6
REMARK    6  A    between atoms: C_5  and  N_74
REMARK    7  A    between atoms: C_6  and  N_7
REMARK    8  A    between atoms: C_8  and  C_10
REMARK    9  A    between atoms: C_10  and  C_12
REMARK   10  A    between atoms: C_10  and  N_13
REMARK   11  A    between atoms: C_14  and  C_24
REMARK   12  A    between atoms: C_33  and  C_34
REMARK   13  A    between atoms: C_37  and  C_40
REMARK                            x       y       z     vdW  Elec       q    Type
REMARK                         _______ _______ _______ _____ _____    ______ ____
ROOT
ATOM      1  N   UNL     1      -4.540   7.646   2.959  0.00  0.00    -0.275 N 
ATOM      2  C   UNL     1      -3.460   6.746   3.379  0.00  0.00    +0.141 C 
ATOM      3  C   UNL     1      -3.058   7.186   4.764  0.00  0.00    -0.010 A 
ATOM      4  C   UNL     1      -2.116   6.734   5.660  0.00  0.00    +0.006 A 
ATOM      5  C   UNL     1      -1.978   7.357   6.889  0.00  0.00    +0.000 A 
ATOM      6  C   UNL     1      -2.782   8.433   7.219  0.00  0.00    +0.001 A 
ATOM      7  C   UNL     1      -3.729   8.894   6.328  0.00  0.00    +0.013 A 
ATOM      8  C   UNL     1      -3.876   8.271   5.087  0.00  0.00    +0.042 A 
ATOM      9  C   UNL     1      -4.778   8.526   3.948  0.00  0.00    +0.248 C 
ATOM     10  O   UNL     1      -5.616   9.405   3.909  0.00  0.00    -0.270 OA
ENDROOT
BRANCH   2  11
ATOM     11  C   UNL     1      -2.289   6.868   2.437  0.00  0.00    +0.010 A 
ATOM     12  C   UNL     1      -1.730   8.107   1.900  0.00  0.00    +0.006 A 
ATOM     13  C   UNL     1      -2.049   9.459   2.053  0.00  0.00    +0.010 A 
ATOM     14  C   UNL     1      -1.319  10.407   1.393  0.00  0.00    +0.001 A 
ATOM     15  C   UNL     1      -0.263  10.038   0.571  0.00  0.00    +0.002 A 
ATOM     16  C   UNL     1       0.069   8.711   0.405  0.00  0.00    +0.026 A 
ATOM     17  C   UNL     1      -0.660   7.728   1.067  0.00  0.00    +0.047 A 
ATOM     18  N   UNL     1      -0.575   6.354   1.104  0.00  0.00    -0.354 N 
ATOM     19  H   UNL     1       0.077   5.822   0.621  0.00  0.00    +0.166 HD
ATOM     20  C   UNL     1      -1.553   5.849   1.930  0.00  0.00    +0.053 A 
BRANCH  20  21
ATOM     21  C   UNL     1      -1.771   4.414   2.215  0.00  0.00    -0.001 A 
ATOM     22  C   UNL     1      -0.686   3.584   2.503  0.00  0.00    +0.010 A 
ATOM     23  C   UNL     1      -0.897   2.247   2.769  0.00  0.00    +0.004 A 
ATOM     24  C   UNL     1      -2.179   1.728   2.750  0.00  0.00    -0.050 A 
ATOM     25  C   UNL     1      -3.258   2.544   2.460  0.00  0.00    +0.004 A 
ATOM     26  C   UNL     1      -3.062   3.884   2.197  0.00  0.00    +0.010 A 
ATOM     27  C   UNL     1      -2.401   0.266   3.041  0.00  0.00    +0.044 C 
ENDBRANCH  20  21
ENDBRANCH   2  11
BRANCH   1  28
ATOM     28  C   UNL     1      -5.242   7.596   1.674  0.00  0.00    +0.160 C 
ATOM     29  C   UNL     1      -6.734   7.360   1.917  0.00  0.00    +0.038 C 
BRANCH  28  31
ATOM     30  N   UNL     1      -5.613   9.087  -0.265  0.00  0.00    -0.316 N 
ATOM     31  C   UNL     1      -5.053   8.903   0.947  0.00  0.00    +0.233 C 
ATOM     32  O   UNL     1      -4.396   9.788   1.452  0.00  0.00    -0.274 OA
ATOM     33  H   UNL     1      -6.138   8.378  -0.669  0.00  0.00    +0.149 HD
BRANCH  30  34
ATOM     34  C   UNL     1      -5.429  10.356  -0.972  0.00  0.00    +0.086 C 
BRANCH  34  35
ATOM     35  C   UNL     1      -6.162  10.304  -2.313  0.00  0.00    -0.060 C 
BRANCH  35  36
ATOM     36  N   UNL     1      -5.985  11.598  -3.005  0.00  0.00    +0.380 N 
ATOM     37  H   UNL     1      -6.247  12.357  -2.364  0.00  0.00    -0.082 HD
BRANCH  36  39
ATOM     38  C   UNL     1      -4.135  10.642  -4.337  0.00  0.00    -0.017 C 
ATOM     39  C   UNL     1      -4.571  11.770  -3.400  0.00  0.00    -0.082 C 
ENDBRANCH  36  39
BRANCH  36  40
ATOM     40  C   UNL     1      -6.854  11.657  -4.199  0.00  0.00    -0.082 C 
ATOM     41  C   UNL     1      -6.933  13.107  -4.679  0.00  0.00    -0.017 C 
ENDBRANCH  36  40
ENDBRANCH  35  36
ENDBRANCH  34  35
ENDBRANCH  30  34
ENDBRANCH  28  31
ENDBRANCH   1  28
TORSDOF 9
