REMARK  Name = ZINC39914282
REMARK  16 active torsions:
REMARK  status: ('A' for Active; 'I' for Inactive)
REMARK    1  A    between atoms: C_1  and  C_2
REMARK    2  A    between atoms: C_2  and  C_3
REMARK    3  A    between atoms: C_3  and  C_4
REMARK    4  A    between atoms: C_4  and  C_5
REMARK    5  A    between atoms: C_5  and  O_6
REMARK    6  A    between atoms: O_6  and  C_7
REMARK    7  A    between atoms: C_10  and  C_16
REMARK    8  A    between atoms: C_12  and  O_13
REMARK    9  A    between atoms: O_13  and  C_14
REMARK   10  A    between atoms: C_14  and  C_15
REMARK   11  A    between atoms: C_19  and  C_30
REMARK   12  A    between atoms: N_26  and  C_27
REMARK   13  A    between atoms: C_27  and  C_28
REMARK   14  A    between atoms: C_28  and  C_29
REMARK   15  A    between atoms: C_33  and  C_37
REMARK   16  A    between atoms: C_35  and  O_36
REMARK                            x       y       z     vdW  Elec       q    Type
REMARK                         _______ _______ _______ _____ _____    ______ ____
ROOT
ATOM      1  C   UNL     1       3.319  -6.017  -6.970  0.00  0.00    +0.141 C 
ATOM      2  C   UNL     1       4.788  -6.274  -7.163  0.00  0.00    +0.035 A 
ATOM      3  C   UNL     1       5.953  -6.878  -6.678  0.00  0.00    +0.102 A 
ATOM      4  N   UNL     1       6.925  -6.596  -7.524  0.00  0.00    -0.173 NA
ATOM      5  N   UNL     1       6.488  -5.874  -8.495  0.00  0.00    -0.272 N 
ATOM      6  H   UNL     1       7.027  -5.549  -9.233  0.00  0.00    +0.189 HD
ATOM      7  C   UNL     1       5.154  -5.633  -8.331  0.00  0.00    +0.126 A 
ATOM      8  C   UNL     1       3.969  -4.975  -8.893  0.00  0.00    +0.265 C 
ATOM      9  O   UNL     1       3.957  -4.326  -9.922  0.00  0.00    -0.268 OA
ATOM     10  N   UNL     1       2.895  -5.192  -8.110  0.00  0.00    -0.285 N 
ENDROOT
BRANCH   3  11
ATOM     11  C   UNL     1       6.074  -7.686  -5.440  0.00  0.00    +0.045 A 
ATOM     12  C   UNL     1       4.938  -8.012  -4.704  0.00  0.00    +0.034 A 
ATOM     13  C   UNL     1       5.055  -8.765  -3.552  0.00  0.00    +0.045 A 
ATOM     14  C   UNL     1       6.300  -9.197  -3.126  0.00  0.00    -0.029 A 
ATOM     15  C   UNL     1       7.433  -8.878  -3.849  0.00  0.00    +0.050 A 
ATOM     16  C   UNL     1       7.328  -8.129  -5.010  0.00  0.00    +0.126 A 
ATOM     17  C   UNL     1       6.419 -10.017  -1.867  0.00  0.00    +0.045 C 
ATOM     18 CL   UNL     1       3.638  -9.170  -2.635  0.00  0.00    -0.083 Cl
BRANCH  16  19
ATOM     19  O   UNL     1       8.441  -7.820  -5.725  0.00  0.00    -0.506 OA
ATOM     20  H   UNL     1       8.863  -6.991  -5.459  0.00  0.00    +0.292 HD
ENDBRANCH  16  19
ENDBRANCH   3  11
BRANCH   1  24
ATOM     21  C   UNL     1       2.659  -3.916  -3.304  0.00  0.00    +0.162 A 
ATOM     22  C   UNL     1       2.217  -5.222  -3.447  0.00  0.00    +0.050 A 
ATOM     23  C   UNL     1       2.432  -5.898  -4.633  0.00  0.00    +0.009 A 
ATOM     24  C   UNL     1       3.087  -5.275  -5.679  0.00  0.00    -0.019 A 
ATOM     25  C   UNL     1       3.530  -3.972  -5.543  0.00  0.00    +0.055 A 
ATOM     26  C   UNL     1       3.313  -3.287  -4.358  0.00  0.00    +0.162 A 
BRANCH  21  27
ATOM     27  O   UNL     1       2.448  -3.249  -2.137  0.00  0.00    -0.488 OA
BRANCH  27  28
ATOM     28  C   UNL     1       1.770  -3.958  -1.098  0.00  0.00    +0.229 C 
BRANCH  28  29
ATOM     29  C   UNL     1       1.626  -3.053   0.127  0.00  0.00    +0.041 C 
BRANCH  29  30
ATOM     30  C   UNL     1       0.900  -3.812   1.239  0.00  0.00    +0.003 C 
BRANCH  30  32
ATOM     31  C   UNL     1       0.030  -3.665   3.577  0.00  0.00    +0.004 C 
ATOM     32  C   UNL     1       0.756  -2.906   2.464  0.00  0.00    -0.003 C 
ENDBRANCH  30  32
ENDBRANCH  29  30
ENDBRANCH  28  29
ENDBRANCH  27  28
ENDBRANCH  21  27
BRANCH  26  33
ATOM     33  O   UNL     1       3.744  -2.004  -4.225  0.00  0.00    -0.489 OA
BRANCH  33  34
ATOM     34  C   UNL     1       4.330  -1.393  -5.376  0.00  0.00    +0.226 C 
ATOM     35  C   UNL     1       4.669   0.066  -5.063  0.00  0.00    +0.048 C 
ENDBRANCH  33  34
ENDBRANCH  26  33
ENDBRANCH   1  24
BRANCH  10  36
ATOM     36  C   UNL     1       1.539  -4.693  -8.351  0.00  0.00    +0.109 C 
BRANCH  36  37
ATOM     37  C   UNL     1       1.373  -3.326  -7.685  0.00  0.00    +0.016 C 
ATOM     38  C   UNL     1      -0.043  -2.804  -7.938  0.00  0.00    +0.005 C 
ENDBRANCH  36  37
ENDBRANCH  10  36
TORSDOF 12
