REMARK  Name = ZINC38903821
REMARK  12 active torsions:
REMARK  status: ('A' for Active; 'I' for Inactive)
REMARK    1  A    between atoms: C_1  and  C_2
REMARK    2  A    between atoms: C_9  and  C_39
REMARK    3  A    between atoms: C_9  and  C_40
REMARK    4  A    between atoms: C_11  and  N_13
REMARK    5  A    between atoms: C_14  and  C_16
REMARK    6  A    between atoms: N_21  and  C_23
REMARK    7  A    between atoms: C_23  and  C_24
REMARK    8  A    between atoms: C_26  and  C_29
REMARK    9  A    between atoms: C_32  and  C_35
REMARK   10  A    between atoms: C_35  and  C_36
REMARK   11  A    between atoms: C_35  and  C_37
REMARK   12  A    between atoms: C_35  and  C_38
REMARK                            x       y       z     vdW  Elec       q    Type
REMARK                         _______ _______ _______ _____ _____    ______ ____
ROOT
ATOM      1  C   UNL     1       1.498  -5.279  -3.462  0.00  0.00    +0.058 C 
ATOM      2  C   UNL     1       1.995  -6.691  -3.138  0.00  0.00    +0.009 C 
ATOM      3  C   UNL     1       2.896  -7.178  -4.276  0.00  0.00    -0.018 C 
ATOM      4  C   UNL     1       2.118  -7.126  -5.593  0.00  0.00    -0.078 C 
ATOM      5  N   UNL     1       1.694  -5.746  -5.859  0.00  0.00    +0.386 N 
ATOM      6  C   UNL     1       0.772  -5.296  -4.809  0.00  0.00    -0.065 C 
ATOM      7  H   UNL     1       2.503  -5.143  -5.876  0.00  0.00    -0.081 HD
ENDROOT
BRANCH   1   9
ATOM      8  N   UNL     1       0.972  -4.728  -1.109  0.00  0.00    -0.308 N 
ATOM      9  C   UNL     1       0.549  -4.820  -2.385  0.00  0.00    +0.215 C 
ATOM     10  O   UNL     1      -0.595  -4.532  -2.667  0.00  0.00    -0.276 OA
ATOM     11  H   UNL     1       1.887  -4.958  -0.883  0.00  0.00    +0.149 HD
BRANCH   8  22
ATOM     12  C   UNL     1      -0.018   1.503   0.010  0.00  0.00    +0.044 C 
ATOM     13  C   UNL     1       0.002  -0.004   0.002  0.00  0.00    -0.047 A 
ATOM     14  C   UNL     1       0.006  -0.689  -1.199  0.00  0.00    +0.004 A 
ATOM     15  C   UNL     1       0.022  -2.070  -1.206  0.00  0.00    +0.009 A 
ATOM     16  C   UNL     1       0.036  -2.775  -0.013  0.00  0.00    +0.015 A 
ATOM     17  C   UNL     1       0.036  -2.092   1.190  0.00  0.00    +0.126 A 
ATOM     18  C   UNL     1       0.023  -0.701   1.193  0.00  0.00    +0.049 A 
ATOM     19  O   UNL     1       0.061  -2.743   2.382  0.00  0.00    -0.486 OA
ATOM     20  C   UNL     1      -0.288  -4.128   2.394  0.00  0.00    +0.107 C 
ATOM     21  C   UNL     1       0.506  -4.837   1.290  0.00  0.00    +0.074 C 
ATOM     22  C   UNL     1       0.049  -4.282  -0.062  0.00  0.00    +0.110 C 
ATOM     23  C   UNL     1      -1.788  -4.283   2.133  0.00  0.00    +0.055 C 
ATOM     24  C   UNL     1       0.064  -4.736   3.754  0.00  0.00    +0.055 C 
ENDBRANCH   8  22
ENDBRANCH   1   9
BRANCH   5  25
ATOM     25  C   UNL     1       1.016  -5.687  -7.161  0.00  0.00    +0.022 C 
BRANCH  25  26
ATOM     26  C   UNL     1       1.998  -6.021  -8.255  0.00  0.00    +0.211 A 
ATOM     27  N   UNL     1       2.237  -7.212  -8.725  0.00  0.00    -0.193 NA
ATOM     28  C   UNL     1       3.169  -7.146  -9.693  0.00  0.00    +0.202 A 
ATOM     29  N   UNL     1       3.530  -5.896  -9.842  0.00  0.00    -0.056 NA
ATOM     30  O   UNL     1       2.767  -5.143  -8.910  0.00  0.00    -0.340 OA
BRANCH  28  31
ATOM     31  C   UNL     1       3.701  -8.299 -10.462  0.00  0.00    +0.022 A 
ATOM     32  C   UNL     1       3.229  -9.585 -10.210  0.00  0.00    +0.012 A 
ATOM     33  C   UNL     1       3.727 -10.653 -10.929  0.00  0.00    +0.005 A 
ATOM     34  C   UNL     1       4.693 -10.448 -11.898  0.00  0.00    -0.042 A 
ATOM     35  C   UNL     1       5.164  -9.173 -12.152  0.00  0.00    +0.005 A 
ATOM     36  C   UNL     1       4.669  -8.097 -11.444  0.00  0.00    +0.012 A 
BRANCH  34  37
ATOM     37  C   UNL     1       5.233 -11.618 -12.678  0.00  0.00    -0.013 C 
ATOM     38  C   UNL     1       4.090 -12.300 -13.432  0.00  0.00    +0.015 C 
ATOM     39  C   UNL     1       6.281 -11.124 -13.678  0.00  0.00    +0.015 C 
ATOM     40  C   UNL     1       5.878 -12.618 -11.717  0.00  0.00    +0.015 C 
ENDBRANCH  34  37
ENDBRANCH  28  31
ENDBRANCH  25  26
ENDBRANCH   5  25
TORSDOF 6
