REMARK  Name = ZINC06133880
REMARK  9 active torsions:
REMARK  status: ('A' for Active; 'I' for Inactive)
REMARK    1  A    between atoms: C_1  and  C_2
REMARK    2  A    between atoms: C_2  and  O_3
REMARK    3  A    between atoms: O_3  and  C_4
REMARK    4  A    between atoms: C_11  and  C_16
REMARK    5  A    between atoms: C_16  and  C_18
REMARK    6  A    between atoms: C_16  and  N_71
REMARK    7  A    between atoms: N_22  and  C_23
REMARK    8  A    between atoms: N_30  and  C_33
REMARK    9  A    between atoms: C_36  and  O_39
REMARK                            x       y       z     vdW  Elec       q    Type
REMARK                         _______ _______ _______ _____ _____    ______ ____
ROOT
ATOM      1  C   UNL     1       2.591  -0.626  -0.056  0.00  0.00    +0.039 C 
ENDROOT
BRANCH   1   9
ATOM      2  C   UNL     1       4.578  -0.519   5.814  0.00  0.00    +0.121 A 
ATOM      3  C   UNL     1       4.756  -1.895   5.937  0.00  0.00    +0.047 A 
ATOM      4  C   UNL     1       4.481  -2.735   4.881  0.00  0.00    +0.030 A 
ATOM      5  C   UNL     1       4.019  -2.211   3.678  0.00  0.00    +0.049 A 
ATOM      6  C   UNL     1       3.838  -0.822   3.550  0.00  0.00    +0.002 A 
ATOM      7  C   UNL     1       4.122   0.022   4.630  0.00  0.00    +0.055 A 
ATOM      8  C   UNL     1       3.352  -0.283   2.278  0.00  0.00    +0.017 A 
ATOM      9  C   UNL     1       3.092  -1.147   1.266  0.00  0.00    +0.011 A 
ATOM     10  C   UNL     1       3.285  -2.533   1.447  0.00  0.00    +0.251 A 
ATOM     11  O   UNL     1       3.041  -3.293   0.525  0.00  0.00    -0.268 OA
ATOM     12  N   UNL     1       3.737  -3.037   2.609  0.00  0.00    -0.322 N 
ATOM     13  H   UNL     1       3.870  -4.024   2.700  0.00  0.00    +0.169 HD
BRANCH   2  14
ATOM     14  O   UNL     1       4.856   0.296   6.867  0.00  0.00    -0.492 OA
BRANCH  14  16
ATOM     15  C   UNL     1       5.582   0.740   9.129  0.00  0.00    +0.048 C 
ATOM     16  C   UNL     1       5.325  -0.328   8.064  0.00  0.00    +0.225 C 
ENDBRANCH  14  16
ENDBRANCH   2  14
ENDBRANCH   1   9
BRANCH   1  22
ATOM     17  C   UNL     1       4.888  -0.518  -0.814  0.00  0.00    -0.058 C 
ATOM     18  C   UNL     1       5.853  -0.993  -1.903  0.00  0.00    +0.086 C 
ATOM     19  N   UNL     1       5.401  -0.490  -3.207  0.00  0.00    -0.333 N 
ATOM     20  C   UNL     1       4.046  -0.970  -3.513  0.00  0.00    +0.086 C 
ATOM     21  C   UNL     1       3.082  -0.495  -2.424  0.00  0.00    -0.058 C 
ATOM     22  N   UNL     1       3.535  -1.026  -1.121  0.00  0.00    +0.391 N 
ATOM     23  H   UNL     1       3.566  -2.051  -1.171  0.00  0.00    -0.080 HD
BRANCH  19  24
ATOM     24  C   UNL     1       6.299  -0.845  -4.220  0.00  0.00    +0.030 A 
ATOM     25  C   UNL     1       5.855  -1.563  -5.322  0.00  0.00    +0.026 A 
ATOM     26  C   UNL     1       6.741  -1.908  -6.324  0.00  0.00    +0.047 A 
ATOM     27  C   UNL     1       8.077  -1.547  -6.224  0.00  0.00    +0.117 A 
ATOM     28  C   UNL     1       8.522  -0.834  -5.121  0.00  0.00    +0.047 A 
ATOM     29  C   UNL     1       7.636  -0.483  -4.121  0.00  0.00    +0.026 A 
BRANCH  27  30
ATOM     30  O   UNL     1       8.950  -1.892  -7.208  0.00  0.00    -0.507 OA
ATOM     31  H   UNL     1       9.376  -2.749  -7.072  0.00  0.00    +0.292 HD
ENDBRANCH  27  30
ENDBRANCH  19  24
ENDBRANCH   1  22
BRANCH   1  32
ATOM     32  C   UNL     1       2.473   0.875   0.008  0.00  0.00    +0.143 A 
ATOM     33  N   UNL     1       3.458   1.740  -0.029  0.00  0.00    -0.115 NA
ATOM     34  N   UNL     1       2.952   2.922   0.051  0.00  0.00    -0.023 NA
ATOM     35  N   UNL     1       1.671   2.835   0.133  0.00  0.00    -0.044 NA
ATOM     36  N   UNL     1       1.337   1.589   0.115  0.00  0.00    -0.227 N 
BRANCH  36  37
ATOM     37  C   UNL     1      -0.024   1.051   0.191  0.00  0.00    +0.111 C 
ATOM     38  C   UNL     1      -0.709   1.527   1.489  0.00  0.00    +0.027 C 
ATOM     39  C   UNL     1      -1.518   2.775   1.055  0.00  0.00    +0.002 C 
ATOM     40  C   UNL     1      -2.039   2.375  -0.347  0.00  0.00    +0.002 C 
ATOM     41  C   UNL     1      -0.870   1.591  -0.976  0.00  0.00    +0.027 C 
ENDBRANCH  36  37
ENDBRANCH   1  32
TORSDOF 8
