REMARK  Name = ZINC40035350
REMARK  10 active torsions:
REMARK  status: ('A' for Active; 'I' for Inactive)
REMARK    1  A    between atoms: C_1  and  C_2
REMARK    2  A    between atoms: C_2  and  C_3
REMARK    3  A    between atoms: C_3  and  C_39
REMARK    4  A    between atoms: N_15  and  C_30
REMARK    5  A    between atoms: N_18  and  N_19
REMARK    6  A    between atoms: C_20  and  C_21
REMARK    7  A    between atoms: C_24  and  N_27
REMARK    8  A    between atoms: C_33  and  O_36
REMARK    9  A    between atoms: O_36  and  C_37
REMARK   10  A    between atoms: C_37  and  C_38
REMARK                            x       y       z     vdW  Elec       q    Type
REMARK                         _______ _______ _______ _____ _____    ______ ____
ROOT
ATOM      1  C   UNL     1      -0.095   0.048  -1.000  0.00  0.00    +0.004 C 
ATOM      2  C   UNL     1       0.182  -1.333  -0.412  0.00  0.00    +0.047 C 
ATOM      3  C   UNL     1      -0.857  -2.321  -0.869  0.00  0.00    -0.037 A 
ATOM      4  C   UNL     1      -1.291  -3.321  -0.023  0.00  0.00    +0.004 A 
ATOM      5  C   UNL     1      -2.243  -4.228  -0.453  0.00  0.00    +0.000 A 
ATOM      6  C   UNL     1      -2.768  -4.140  -1.730  0.00  0.00    +0.001 A 
ATOM      7  C   UNL     1      -2.344  -3.143  -2.585  0.00  0.00    +0.010 A 
ATOM      8  C   UNL     1      -1.387  -2.227  -2.156  0.00  0.00    +0.004 A 
ATOM      9  C   UNL     1      -0.920  -1.141  -3.047  0.00  0.00    +0.084 A 
ATOM     10  C   UNL     1      -0.289  -0.040  -2.488  0.00  0.00    +0.050 A 
ATOM     11  C   UNL     1       0.160   0.983  -3.333  0.00  0.00    +0.264 A 
ATOM     12  O   UNL     1       0.722   1.966  -2.877  0.00  0.00    -0.267 OA
ATOM     13  N   UNL     1      -0.041   0.858  -4.662  0.00  0.00    -0.248 N 
ATOM     14  C   UNL     1      -0.672  -0.244  -5.161  0.00  0.00    +0.223 A 
ATOM     15  N   UNL     1      -1.096  -1.209  -4.371  0.00  0.00    -0.214 NA
ATOM     16  N   UNL     1      -0.870  -0.349  -6.514  0.00  0.00    -0.206 N 
ATOM     17  C   UNL     1       1.089   0.970  -0.700  0.00  0.00    +0.016 C 
ATOM     18  H   UNL     1      -0.496   0.318  -7.111  0.00  0.00    +0.177 HD
ENDROOT
BRANCH  13  19
ATOM     19  C   UNL     1       0.400   1.863  -5.533  0.00  0.00    +0.053 A 
ATOM     20  C   UNL     1       1.682   1.809  -6.065  0.00  0.00    +0.030 A 
ATOM     21  C   UNL     1       2.116   2.800  -6.923  0.00  0.00    +0.047 A 
ATOM     22  C   UNL     1       1.273   3.850  -7.253  0.00  0.00    +0.121 A 
ATOM     23  C   UNL     1      -0.008   3.906  -6.722  0.00  0.00    +0.047 A 
ATOM     24  C   UNL     1      -0.446   2.912  -5.869  0.00  0.00    +0.030 A 
BRANCH  22  25
ATOM     25  O   UNL     1       1.701   4.826  -8.097  0.00  0.00    -0.492 OA
BRANCH  25  26
ATOM     26  C   UNL     1       0.780   5.877  -8.394  0.00  0.00    +0.225 C 
ATOM     27  C   UNL     1       1.435   6.874  -9.353  0.00  0.00    +0.048 C 
ENDBRANCH  25  26
ENDBRANCH  22  25
ENDBRANCH  13  19
BRANCH   1  29
ATOM     28  C   UNL     1      -1.625   2.022  -0.926  0.00  0.00    +0.005 C 
ATOM     29  C   UNL     1      -1.359   0.625  -0.360  0.00  0.00    +0.008 C 
ENDBRANCH   1  29
BRANCH  16  30
ATOM     30  N   UNL     1      -1.610  -1.419  -7.033  0.00  0.00    -0.188 NA
ATOM     31  C   UNL     1      -1.797  -1.518  -8.313  0.00  0.00    +0.138 C 
BRANCH  31  32
ATOM     32  C   UNL     1      -2.577  -2.644  -8.859  0.00  0.00    -0.005 A 
ATOM     33  C   UNL     1      -3.120  -3.603  -8.001  0.00  0.00    +0.012 A 
ATOM     34  C   UNL     1      -3.849  -4.654  -8.519  0.00  0.00    +0.033 A 
ATOM     35  C   UNL     1      -4.041  -4.760  -9.885  0.00  0.00    +0.126 A 
ATOM     36  C   UNL     1      -3.505  -3.814 -10.741  0.00  0.00    +0.033 A 
ATOM     37  C   UNL     1      -2.780  -2.754 -10.237  0.00  0.00    +0.012 A 
BRANCH  35  38
ATOM     38  N   UNL     1      -4.823  -5.890 -10.433  0.00  0.00    +0.056 N 
ATOM     39  O   UNL     1      -5.292  -6.719  -9.688  0.00  0.00    -0.126 OA
ATOM     40  O   UNL     1      -4.992  -5.986 -11.627  0.00  0.00    -0.126 OA
ENDBRANCH  35  38
ENDBRANCH  31  32
ENDBRANCH  16  30
TORSDOF 7
