REMARK  Name = ZINC32697436
REMARK  8 active torsions:
REMARK  status: ('A' for Active; 'I' for Inactive)
REMARK    1  A    between atoms: C_4  and  N_7
REMARK    2  A    between atoms: C_11  and  S_13
REMARK    3  A    between atoms: S_13  and  C_14
REMARK    4  A    between atoms: C_14  and  C_15
REMARK    5  A    between atoms: N_17  and  C_18
REMARK    6  A    between atoms: C_19  and  C_33
REMARK    7  A    between atoms: C_20  and  C_28
REMARK    8  A    between atoms: C_21  and  C_23
REMARK                            x       y       z     vdW  Elec       q    Type
REMARK                         _______ _______ _______ _____ _____    ______ ____
ROOT
ATOM      1  C   UNL     1       1.942  -4.318  -0.039  0.00  0.00    +0.230 C 
ATOM      2  O   UNL     1       3.144  -4.476  -0.051  0.00  0.00    -0.274 OA
ATOM      3  N   UNL     1       1.122  -5.388  -0.037  0.00  0.00    -0.255 N 
ATOM      4  H   UNL     1       0.032  -5.246  -0.026  0.00  0.00    +0.158 HD
ENDROOT
BRANCH   3   5
ATOM      5  C   UNL     1       1.653  -6.665  -0.049  0.00  0.00    +0.211 A 
ATOM      6  C   UNL     1       0.921  -7.841  -0.043  0.00  0.00    +0.124 A 
ATOM      7  C   UNL     1       1.918  -8.929  -0.062  0.00  0.00    +0.085 A 
ATOM      8  C   UNL     1       3.152  -8.300  -0.070  0.00  0.00    +0.184 A 
ATOM      9  O   UNL     1       2.958  -6.966  -0.062  0.00  0.00    -0.436 OA
BRANCH   8  10
ATOM     10  C   UNL     1       4.454  -8.974  -0.084  0.00  0.00    +0.170 A 
ATOM     11  C   UNL     1       5.675  -8.361  -0.092  0.00  0.00    +0.053 A 
ATOM     12  C   UNL     1       6.641  -9.384  -0.104  0.00  0.00    +0.042 A 
ATOM     13  C   UNL     1       5.977 -10.557  -0.103  0.00  0.00    +0.196 A 
ATOM     14  O   UNL     1       4.656 -10.307  -0.086  0.00  0.00    -0.460 OA
ENDBRANCH   8  10
BRANCH   7  15
ATOM     15  C   UNL     1       1.656 -10.379  -0.067  0.00  0.00    +0.140 A 
ATOM     16  C   UNL     1       1.064 -11.088   0.935  0.00  0.00    +0.050 A 
ATOM     17  C   UNL     1       1.016 -12.430   0.508  0.00  0.00    +0.042 A 
ATOM     18  C   UNL     1       1.574 -12.475  -0.718  0.00  0.00    +0.196 A 
ATOM     19  O   UNL     1       1.955 -11.233  -1.064  0.00  0.00    -0.463 OA
ENDBRANCH   7  15
BRANCH   6  20
ATOM     20  C   UNL     1      -0.505  -7.973  -0.024  0.00  0.00    +0.105 C 
ATOM     21  N   UNL     1      -1.636  -8.078  -0.009  0.00  0.00    -0.191 NA
ENDBRANCH   6  20
ENDBRANCH   3   5
BRANCH   1  22
ATOM     22  C   UNL     1       1.364  -2.927  -0.026  0.00  0.00    +0.172 C 
BRANCH  22  23
ATOM     23  S   UNL     1       2.709  -1.715  -0.033  0.00  0.00    -0.088 S 
BRANCH  23  28
ATOM     24  N   UNL     1       1.305   2.062   0.001  0.00  0.00    -0.217 N 
ATOM     25  C   UNL     1      -0.022   1.782   0.012  0.00  0.00    +0.150 A 
ATOM     26  S   UNL     1      -1.359   2.852   0.024  0.00  0.00    -0.023 S 
ATOM     27  S   UNL     1       0.002  -0.004   0.002  0.00  0.00    -0.034 S 
ATOM     28  C   UNL     1       1.774  -0.221  -0.016  0.00  0.00    +0.158 A 
ATOM     29  N   UNL     1       2.200   1.017  -0.013  0.00  0.00    -0.151 NA
BRANCH  24  33
ATOM     30  C   UNL     1       2.646   6.006   0.007  0.00  0.00    +0.000 A 
ATOM     31  C   UNL     1       3.360   5.034   0.683  0.00  0.00    +0.002 A 
ATOM     32  C   UNL     1       2.918   3.725   0.683  0.00  0.00    +0.028 A 
ATOM     33  C   UNL     1       1.755   3.386   0.003  0.00  0.00    +0.067 A 
ATOM     34  C   UNL     1       1.044   4.365  -0.680  0.00  0.00    +0.028 A 
ATOM     35  C   UNL     1       1.488   5.672  -0.671  0.00  0.00    +0.002 A 
ENDBRANCH  24  33
ENDBRANCH  23  28
ENDBRANCH  22  23
ENDBRANCH   1  22
TORSDOF 8
