REMARK  Name = ZINC37146740
REMARK  2 active torsions:
REMARK  status: ('A' for Active; 'I' for Inactive)
REMARK    1  A    between atoms: N_5  and  C_9
REMARK    2  A    between atoms: C_14  and  C_16
REMARK                            x       y       z     vdW  Elec       q    Type
REMARK                         _______ _______ _______ _____ _____    ______ ____
ROOT
ATOM      1  C   UNL     1      -0.076   1.438   0.011  0.00  0.00    -0.000 C 
ATOM      2  C   UNL     1       1.308   2.089   0.016  0.00  0.00    -0.002 C 
ATOM      3  C   UNL     1       2.196   1.360  -0.999  0.00  0.00    -0.019 C 
ATOM      4  C   UNL     1       1.794   1.771  -2.414  0.00  0.00    -0.078 C 
ATOM      5  N   UNL     1       0.559   1.081  -2.813  0.00  0.00    +0.382 N 
ATOM      6  C   UNL     1       0.634  -0.337  -2.438  0.00  0.00    -0.078 C 
ATOM      7  C   UNL     1      -0.408  -0.629  -1.351  0.00  0.00    -0.019 C 
ATOM      8  C   UNL     1       0.087  -0.083  -0.014  0.00  0.00    -0.002 C 
ATOM      9  H   UNL     1      -0.228   1.510  -2.351  0.00  0.00    -0.081 HD
ENDROOT
BRANCH   5  10
ATOM     10  C   UNL     1       0.388   1.192  -4.268  0.00  0.00    -0.051 C 
ATOM     11  C   UNL     1      -0.938   0.529  -4.696  0.00  0.00    -0.014 C 
ATOM     12  C   UNL     1      -0.607  -0.139  -6.054  0.00  0.00    -0.000 C 
ATOM     13  C   UNL     1       0.832  -0.667  -5.833  0.00  0.00    +0.016 C 
ATOM     14  C   UNL     1       1.514   0.433  -4.991  0.00  0.00    +0.078 C 
BRANCH  14  15
ATOM     15  C   UNL     1       2.424  -0.176  -4.007  0.00  0.00    +0.064 C 
ATOM     16  N   UNL     1       3.126  -0.646  -3.248  0.00  0.00    -0.196 NA
ENDBRANCH  14  15
ENDBRANCH   5  10
TORSDOF 2
