REMARK  Name = ZINC64517054
REMARK  8 active torsions:
REMARK  status: ('A' for Active; 'I' for Inactive)
REMARK    1  A    between atoms: C_1  and  C_2
REMARK    2  A    between atoms: C_2  and  C_3
REMARK    3  A    between atoms: C_5  and  C_8
REMARK    4  A    between atoms: C_8  and  N_9
REMARK    5  A    between atoms: N_9  and  C_10
REMARK    6  A    between atoms: N_9  and  C_11
REMARK    7  A    between atoms: C_11  and  C_12
REMARK    8  A    between atoms: N_17  and  C_18
REMARK                            x       y       z     vdW  Elec       q    Type
REMARK                         _______ _______ _______ _____ _____    ______ ____
ROOT
ATOM      1  C   UNL     1       6.812   0.799  -3.380  0.00  0.00    +0.204 C 
ATOM      2  O   UNL     1       6.198   1.840  -3.473  0.00  0.00    -0.277 OA
ATOM      3  N   UNL     1       8.156   0.798  -3.478  0.00  0.00    -0.242 N 
ATOM      4  C   UNL     1       8.818   1.955  -3.678  0.00  0.00    +0.306 C 
ATOM      5  O   UNL     1       8.202   2.999  -3.771  0.00  0.00    -0.252 OA
ATOM      6  N   UNL     1      10.162   1.954  -3.776  0.00  0.00    -0.295 N 
ATOM      7  H   UNL     1       8.647  -0.035  -3.404  0.00  0.00    +0.159 HD
ATOM      8  H   UNL     1      10.653   1.121  -3.702  0.00  0.00    +0.151 HD
ENDROOT
BRANCH   6   9
ATOM      9  C   UNL     1      10.881   3.212  -3.994  0.00  0.00    +0.097 C 
ATOM     10  C   UNL     1      10.951   3.516  -5.499  0.00  0.00    +0.046 C 
ATOM     11  C   UNL     1      11.969   4.652  -5.761  0.00  0.00    +0.168 C 
ATOM     12  S   UNL     1      13.151   4.465  -4.365  0.00  0.00    -0.029 S 
ATOM     13  O   UNL     1      13.108   5.637  -3.562  0.00  0.00    -0.174 OA
ATOM     14  O   UNL     1      14.399   4.012  -4.873  0.00  0.00    -0.174 OA
ATOM     15  C   UNL     1      12.335   3.085  -3.457  0.00  0.00    +0.188 C 
ENDBRANCH   6   9
BRANCH   1  16
ATOM     16  C   UNL     1       6.072  -0.495  -3.156  0.00  0.00    +0.019 C 
BRANCH  16  17
ATOM     17  N   UNL     1       4.629  -0.228  -3.086  0.00  0.00    +0.387 N 
ATOM     18  C   UNL     1       4.159   0.268  -4.387  0.00  0.00    -0.095 C 
ATOM     19  H   UNL     1       4.449   0.466  -2.377  0.00  0.00    -0.081 HD
BRANCH  17  20
ATOM     20  C   UNL     1       3.917  -1.468  -2.749  0.00  0.00    -0.022 C 
BRANCH  20  23
ATOM     21  C   UNL     1       0.707  -0.490  -1.238  0.00  0.00    +0.078 A 
ATOM     22  N   UNL     1       1.981  -0.748  -1.401  0.00  0.00    -0.251 NA
ATOM     23  C   UNL     1       2.453  -1.171  -2.557  0.00  0.00    +0.032 A 
ATOM     24  C   UNL     1       1.558  -1.325  -3.567  0.00  0.00    +0.068 A 
ATOM     25  S   UNL     1       0.049  -0.840  -2.747  0.00  0.00    -0.080 S 
BRANCH  21  27
ATOM     26  C   UNL     1      -0.019   1.526   0.010  0.00  0.00    +0.011 C 
ATOM     27  C   UNL     1       0.002  -0.004   0.002  0.00  0.00    +0.059 C 
ENDBRANCH  21  27
ENDBRANCH  20  23
ENDBRANCH  17  20
ENDBRANCH  16  17
ENDBRANCH   1  16
TORSDOF 6
