REMARK  Name = ZINC40673818
REMARK  4 active torsions:
REMARK  status: ('A' for Active; 'I' for Inactive)
REMARK    1  A    between atoms: C_1  and  N_2
REMARK    2  A    between atoms: C_6  and  N_9
REMARK    3  A    between atoms: N_9  and  S_10
REMARK    4  A    between atoms: S_10  and  C_13
REMARK                            x       y       z     vdW  Elec       q    Type
REMARK                         _______ _______ _______ _____ _____    ______ ____
ROOT
ATOM      1  S   UNL     1       0.842  -3.851   3.211  0.00  0.00    +0.061 S 
ATOM      2  O   UNL     1       1.743  -4.074   4.287  0.00  0.00    -0.153 OA
ATOM      3  O   UNL     1      -0.555  -3.679   3.410  0.00  0.00    -0.153 OA
ENDROOT
BRANCH   1   4
ATOM      4  C   UNL     1       1.029  -5.212   2.107  0.00  0.00    +0.142 A 
ATOM      5  C   UNL     1      -0.000  -5.553   1.248  0.00  0.00    +0.070 A 
ATOM      6  C   UNL     1       0.147  -6.621   0.381  0.00  0.00    +0.037 A 
ATOM      7  C   UNL     1       1.324  -7.348   0.373  0.00  0.00    +0.021 A 
ATOM      8  C   UNL     1       2.353  -7.007   1.232  0.00  0.00    +0.037 A 
ATOM      9  C   UNL     1       2.208  -5.936   2.095  0.00  0.00    +0.070 A 
ATOM     10 CL   UNL     1       3.503  -5.504   3.168  0.00  0.00    -0.081 Cl
ATOM     11 BR   UNL     1       1.525  -8.808  -0.812  0.00  0.00    -0.050 Br
ATOM     12 CL   UNL     1      -1.477  -4.641   1.258  0.00  0.00    -0.081 Cl
ENDBRANCH   1   4
BRANCH   1  13
ATOM     13  N   UNL     1       1.377  -2.500   2.417  0.00  0.00    -0.189 NA
ATOM     14  H   UNL     1       2.161  -2.027   2.738  0.00  0.00    +0.148 HD
BRANCH  13  20
ATOM     15  C   UNL     1      -0.018   1.465   0.010  0.00  0.00    -0.096 C 
ATOM     16  N   UNL     1       0.002  -0.004   0.002  0.00  0.00    +0.379 N 
ATOM     17  C   UNL     1       0.681  -0.476  -1.210  0.00  0.00    -0.079 C 
ATOM     18  C   UNL     1       0.634  -2.005  -1.264  0.00  0.00    -0.017 C 
ATOM     19  C   UNL     1       1.336  -2.575  -0.029  0.00  0.00    +0.017 C 
ATOM     20  C   UNL     1       0.666  -2.018   1.230  0.00  0.00    +0.060 C 
ATOM     21  C   UNL     1       0.712  -0.489   1.192  0.00  0.00    -0.059 C 
ATOM     22  H   UNL     1      -0.945  -0.352   0.012  0.00  0.00    -0.082 HD
ENDBRANCH  13  20
ENDBRANCH   1  13
TORSDOF 3
