REMARK  Name = ZINC39946243
REMARK  7 active torsions:
REMARK  status: ('A' for Active; 'I' for Inactive)
REMARK    1  A    between atoms: C_4  and  C_7
REMARK    2  A    between atoms: C_9  and  C_12
REMARK    3  A    between atoms: C_12  and  S_13
REMARK    4  A    between atoms: S_13  and  C_14
REMARK    5  A    between atoms: C_18  and  C_27
REMARK    6  A    between atoms: N_19  and  C_20
REMARK    7  A    between atoms: C_20  and  C_21
REMARK                            x       y       z     vdW  Elec       q    Type
REMARK                         _______ _______ _______ _____ _____    ______ ____
ROOT
ATOM      1  C   UNL     1       5.707  -6.354  -1.857  0.00  0.00    +0.237 C 
ATOM      2  N   UNL     1       6.994  -6.681  -1.224  0.00  0.00    -0.237 N 
ATOM      3  N   UNL     1       6.695  -7.200   0.041  0.00  0.00    -0.169 NA
ATOM      4  C   UNL     1       5.405  -7.228   0.249  0.00  0.00    +0.147 C 
ATOM      5  N   UNL     1       4.699  -6.732  -0.853  0.00  0.00    -0.283 N 
ATOM      6  H   UNL     1       7.877  -6.561  -1.607  0.00  0.00    +0.171 HD
ENDROOT
BRANCH   4   7
ATOM      7  C   UNL     1       4.804  -7.697   1.427  0.00  0.00    +0.022 C 
ATOM      8  C   UNL     1       5.446  -8.117   2.593  0.00  0.00    +0.006 A 
ATOM      9  C   UNL     1       6.807  -8.204   2.953  0.00  0.00    +0.010 A 
ATOM     10  C   UNL     1       7.151  -8.659   4.185  0.00  0.00    +0.001 A 
ATOM     11  C   UNL     1       6.186  -9.048   5.116  0.00  0.00    +0.002 A 
ATOM     12  C   UNL     1       4.860  -8.991   4.838  0.00  0.00    +0.026 A 
ATOM     13  C   UNL     1       4.424  -8.526   3.571  0.00  0.00    +0.043 A 
ATOM     14  N   UNL     1       3.216  -8.377   3.064  0.00  0.00    -0.380 N 
ATOM     15  C   UNL     1       3.324  -7.848   1.701  0.00  0.00    +0.152 C 
ATOM     16  H   UNL     1       2.386  -8.582   3.523  0.00  0.00    +0.160 HD
ENDBRANCH   4   7
BRANCH   1  17
ATOM     17  S   UNL     1       5.609  -4.579  -2.217  0.00  0.00    -0.112 S 
BRANCH  17  18
ATOM     18  C   UNL     1       5.873  -3.789  -0.605  0.00  0.00    +0.128 C 
BRANCH  18  21
ATOM     19  C   UNL     1       4.594  -0.344  -0.772  0.00  0.00    +0.109 A 
ATOM     20  N   UNL     1       4.673  -1.661  -0.638  0.00  0.00    -0.243 NA
ATOM     21  C   UNL     1       5.816  -2.292  -0.764  0.00  0.00    +0.059 A 
ATOM     22  C   UNL     1       6.949  -1.592  -1.037  0.00  0.00    +0.071 A 
ATOM     23  S   UNL     1       6.298   0.071  -1.119  0.00  0.00    -0.075 S 
BRANCH  19  27
ATOM     24  C   UNL     1       1.205   2.199  -0.476  0.00  0.00    +0.000 A 
ATOM     25  C   UNL     1       2.448   2.738  -0.756  0.00  0.00    +0.001 A 
ATOM     26  C   UNL     1       3.553   1.917  -0.854  0.00  0.00    +0.010 A 
ATOM     27  C   UNL     1       3.415   0.541  -0.669  0.00  0.00    +0.007 A 
ATOM     28  C   UNL     1       2.158   0.004  -0.387  0.00  0.00    +0.010 A 
ATOM     29  C   UNL     1       1.061   0.836  -0.292  0.00  0.00    +0.001 A 
ENDBRANCH  19  27
ENDBRANCH  18  21
ENDBRANCH  17  18
ENDBRANCH   1  17
BRANCH   5  30
ATOM     30  C   UNL     1       3.244  -6.612  -0.984  0.00  0.00    +0.140 C 
BRANCH  30  31
ATOM     31  C   UNL     1       2.782  -5.301  -0.344  0.00  0.00    +0.136 C 
ATOM     32  C   UNL     1       1.240  -5.231  -0.351  0.00  0.00    +0.035 C 
ATOM     33  C   UNL     1       0.979  -3.736  -0.685  0.00  0.00    +0.031 C 
ATOM     34  C   UNL     1       2.167  -3.436  -1.634  0.00  0.00    +0.160 C 
ATOM     35  O   UNL     1       3.271  -4.190  -1.105  0.00  0.00    -0.375 OA
ENDBRANCH  30  31
ENDBRANCH   5  30
TORSDOF 7
