REMARK  Name = ZINC39630578
REMARK  14 active torsions:
REMARK  status: ('A' for Active; 'I' for Inactive)
REMARK    1  A    between atoms: C_1  and  C_2
REMARK    2  A    between atoms: C_2  and  C_3
REMARK    3  A    between atoms: C_3  and  C_4
REMARK    4  A    between atoms: C_4  and  C_6
REMARK    5  A    between atoms: C_4  and  C_7
REMARK    6  A    between atoms: C_11  and  C_20
REMARK    7  A    between atoms: N_22  and  C_23
REMARK    8  A    between atoms: C_23  and  C_24
REMARK    9  A    between atoms: C_24  and  C_25
REMARK   10  A    between atoms: C_24  and  C_26
REMARK   11  A    between atoms: C_24  and  C_27
REMARK   12  A    between atoms: C_27  and  N_28
REMARK   13  A    between atoms: N_28  and  C_29
REMARK   14  A    between atoms: N_28  and  C_30
REMARK                            x       y       z     vdW  Elec       q    Type
REMARK                         _______ _______ _______ _____ _____    ______ ____
ROOT
ATOM      1  C   UNL     1       1.625  -2.514   2.604  0.00  0.00    +0.218 C 
ATOM      2  O   UNL     1       2.099  -1.646   3.305  0.00  0.00    -0.275 OA
ATOM      3  N   UNL     1       1.928  -3.807   2.833  0.00  0.00    -0.300 N 
ATOM      4  C   UNL     1       1.457  -4.997   2.087  0.00  0.00    +0.121 C 
ATOM      5  C   UNL     1       2.692  -5.923   2.009  0.00  0.00    +0.100 C 
ATOM      6  C   UNL     1       3.574  -5.501   3.196  0.00  0.00    -0.004 C 
ATOM      7  C   UNL     1       2.814  -4.359   3.886  0.00  0.00    +0.115 C 
ATOM      8  C   UNL     1       4.927  -5.001   2.697  0.00  0.00    -0.010 C 
ATOM      9  C   UNL     1       5.807  -4.641   3.897  0.00  0.00    -0.082 C 
ATOM     10  N   UNL     1       5.983  -5.824   4.749  0.00  0.00    +0.379 N 
ATOM     11  C   UNL     1       4.688  -6.243   5.299  0.00  0.00    -0.082 C 
ATOM     12  C   UNL     1       3.761  -6.670   4.158  0.00  0.00    -0.010 C 
ATOM     13  H   UNL     1       6.373  -6.576   4.201  0.00  0.00    -0.086 HD
ATOM     14  H   UNL     1       6.612  -5.601   5.506  0.00  0.00    -0.086 HD
ENDROOT
BRANCH   5  15
ATOM     15  C   UNL     1       3.423  -5.715   0.708  0.00  0.00    +0.218 C 
ATOM     16  O   UNL     1       3.358  -4.645   0.140  0.00  0.00    -0.275 OA
ATOM     17  N   UNL     1       4.150  -6.717   0.175  0.00  0.00    -0.315 N 
ATOM     18  H   UNL     1       4.202  -7.573   0.629  0.00  0.00    +0.149 HD
BRANCH  17  19
ATOM     19  C   UNL     1       4.861  -6.514  -1.089  0.00  0.00    +0.108 C 
BRANCH  19  20
ATOM     20  C   UNL     1       5.602  -7.797  -1.469  0.00  0.00    -0.034 C 
ATOM     21  C   UNL     1       6.607  -8.150  -0.370  0.00  0.00    +0.010 C 
ATOM     22  C   UNL     1       4.597  -8.940  -1.627  0.00  0.00    +0.010 C 
BRANCH  20  23
ATOM     23  C   UNL     1       6.345  -7.585  -2.790  0.00  0.00    -0.072 C 
BRANCH  23  24
ATOM     24  N   UNL     1       7.060  -8.816  -3.153  0.00  0.00    +0.376 N 
ATOM     25  C   UNL     1       6.166  -9.695  -3.918  0.00  0.00    -0.097 C 
ATOM     26  C   UNL     1       8.232  -8.479  -3.971  0.00  0.00    -0.097 C 
ATOM     27  H   UNL     1       7.360  -9.290  -2.314  0.00  0.00    -0.083 HD
ENDBRANCH  23  24
ENDBRANCH  20  23
ENDBRANCH  19  20
ENDBRANCH  17  19
ENDBRANCH   5  15
BRANCH   1  28
ATOM     28  C   UNL     1       0.696  -2.148   1.475  0.00  0.00    +0.072 C 
ATOM     29  C   UNL     1      -0.664  -2.813   1.697  0.00  0.00    +0.017 C 
BRANCH  28  30
ATOM     30  C   UNL     1       0.519  -0.628   1.433  0.00  0.00    +0.012 C 
BRANCH  30  32
ATOM     31  C   UNL     1      -0.499   1.273   0.172  0.00  0.00    +0.004 C 
ATOM     32  C   UNL     1      -0.322  -0.246   0.214  0.00  0.00    -0.003 C 
ENDBRANCH  30  32
ENDBRANCH  28  30
ENDBRANCH   1  28
TORSDOF 8
