REMARK  Name = ZINC48948621
REMARK  6 active torsions:
REMARK  status: ('A' for Active; 'I' for Inactive)
REMARK    1  A    between atoms: C_1  and  N_2
REMARK    2  A    between atoms: N_2  and  C_3
REMARK    3  A    between atoms: N_2  and  C_10
REMARK    4  A    between atoms: C_3  and  C_4
REMARK    5  A    between atoms: C_13  and  C_19
REMARK    6  A    between atoms: C_15  and  N_16
REMARK                            x       y       z     vdW  Elec       q    Type
REMARK                         _______ _______ _______ _____ _____    ______ ____
ROOT
ATOM      1  C   UNL     1       0.132  -1.103  -1.074  0.00  0.00    +0.060 A 
ATOM      2  C   UNL     1      -1.081  -1.616  -1.518  0.00  0.00    +0.026 A 
ATOM      3  C   UNL     1      -1.103  -2.549  -2.536  0.00  0.00    +0.007 A 
ATOM      4  C   UNL     1       0.081  -2.973  -3.113  0.00  0.00    -0.031 A 
ATOM      5  C   UNL     1       1.289  -2.466  -2.673  0.00  0.00    +0.039 A 
ATOM      6  C   UNL     1       1.318  -1.528  -1.659  0.00  0.00    +0.147 A 
ENDROOT
BRANCH   6   7
ATOM      7  N   UNL     1       2.611  -0.980  -1.193  0.00  0.00    +0.058 N 
ATOM      8  O   UNL     1       3.648  -1.423  -1.630  0.00  0.00    -0.126 OA
ATOM      9  O   UNL     1       2.631  -0.090  -0.375  0.00  0.00    -0.126 OA
ENDBRANCH   6   7
BRANCH   1  11
ATOM     10  C   UNL     1      -0.031   1.262  -0.350  0.00  0.00    +0.129 C 
ATOM     11  N   UNL     1       0.158  -0.159  -0.045  0.00  0.00    -0.329 N 
BRANCH  11  12
ATOM     12  C   UNL     1       0.373  -0.589   1.338  0.00  0.00    +0.136 C 
BRANCH  12  13
ATOM     13  C   UNL     1      -0.978  -0.757   2.037  0.00  0.00    +0.135 C 
ATOM     14  C   UNL     1      -0.759  -1.117   3.522  0.00  0.00    +0.035 C 
ATOM     15  C   UNL     1      -1.879  -2.163   3.776  0.00  0.00    +0.031 C 
ATOM     16  C   UNL     1      -1.938  -2.871   2.399  0.00  0.00    +0.160 C 
ATOM     17  O   UNL     1      -1.707  -1.831   1.432  0.00  0.00    -0.375 OA
ENDBRANCH  12  13
ENDBRANCH  11  12
ENDBRANCH   1  11
BRANCH   4  18
ATOM     18  C   UNL     1       0.053  -3.992  -4.223  0.00  0.00    +0.143 C 
ATOM     19 CL   UNL     1      -0.068  -3.147  -5.811  0.00  0.00    -0.120 Cl
ENDBRANCH   4  18
TORSDOF 5
