REMARK  Name = ZINC20610973
REMARK  4 active torsions:
REMARK  status: ('A' for Active; 'I' for Inactive)
REMARK    1  A    between atoms: C_1  and  O_2
REMARK    2  A    between atoms: O_2  and  C_3
REMARK    3  A    between atoms: C_13  and  C_18
REMARK    4  A    between atoms: N_24  and  C_27
REMARK                            x       y       z     vdW  Elec       q    Type
REMARK                         _______ _______ _______ _____ _____    ______ ____
ROOT
ATOM      1  C   UNL     1      -0.544  -3.560   1.729  0.00  0.00    +0.121 A 
ATOM      2  C   UNL     1      -1.552  -2.729   2.211  0.00  0.00    +0.047 A 
ATOM      3  C   UNL     1      -2.875  -3.015   1.961  0.00  0.00    +0.030 A 
ATOM      4  C   UNL     1      -3.217  -4.141   1.221  0.00  0.00    +0.047 A 
ATOM      5  C   UNL     1      -2.201  -4.985   0.731  0.00  0.00    +0.006 A 
ATOM      6  C   UNL     1      -0.861  -4.680   0.987  0.00  0.00    +0.056 A 
ATOM      7  C   UNL     1      -2.884  -6.052   0.012  0.00  0.00    -0.022 A 
ATOM      8  C   UNL     1      -4.209  -5.815   0.097  0.00  0.00    +0.011 A 
ATOM      9  N   UNL     1      -4.424  -4.677   0.817  0.00  0.00    -0.359 N 
ATOM     10  H   UNL     1      -5.295  -4.300   1.016  0.00  0.00    +0.166 HD
ATOM     11  C   UNL     1      -5.244  -6.714  -0.538  0.00  0.00    +0.018 C 
ATOM     12  N   UNL     1      -4.580  -7.551  -1.549  0.00  0.00    +0.388 N 
ATOM     13  C   UNL     1      -3.426  -8.243  -0.957  0.00  0.00    -0.076 C 
ATOM     14  C   UNL     1      -2.294  -7.235  -0.712  0.00  0.00    +0.018 C 
ATOM     15  H   UNL     1      -5.234  -8.234  -1.900  0.00  0.00    -0.084 HD
ATOM     16  H   UNL     1      -4.265  -6.970  -2.311  0.00  0.00    -0.084 HD
ENDROOT
BRANCH  11  17
ATOM     17  C   UNL     1      -6.311  -5.874  -1.194  0.00  0.00    +0.073 A 
ATOM     18  C   UNL     1      -5.998  -5.056  -2.294  0.00  0.00    +0.260 A 
ATOM     19  N   UNL     1      -6.966  -4.313  -2.866  0.00  0.00    -0.274 N 
ATOM     20  H   UNL     1      -6.753  -3.748  -3.626  0.00  0.00    +0.173 HD
ATOM     21  C   UNL     1      -8.225  -4.348  -2.392  0.00  0.00    +0.337 A 
ATOM     22  O   UNL     1      -9.083  -3.670  -2.922  0.00  0.00    -0.246 OA
ATOM     23  N   UNL     1      -8.547  -5.123  -1.341  0.00  0.00    -0.229 N 
ATOM     24  C   UNL     1      -7.592  -5.901  -0.731  0.00  0.00    +0.267 A 
ATOM     25  O   UNL     1      -7.920  -6.682   0.320  0.00  0.00    -0.267 OA
ATOM     26  O   UNL     1      -4.859  -5.020  -2.728  0.00  0.00    -0.267 OA
BRANCH  23  27
ATOM     27  C   UNL     1      -9.866  -5.142  -0.867  0.00  0.00    +0.054 A 
ATOM     28  C   UNL     1     -10.776  -6.058  -1.379  0.00  0.00    +0.027 A 
ATOM     29  C   UNL     1     -12.075  -6.073  -0.911  0.00  0.00    +0.017 A 
ATOM     30  C   UNL     1     -12.470  -5.178   0.067  0.00  0.00    +0.018 A 
ATOM     31  C   UNL     1     -11.566  -4.264   0.578  0.00  0.00    +0.017 A 
ATOM     32  C   UNL     1     -10.264  -4.248   0.118  0.00  0.00    +0.027 A 
ATOM     33 BR   UNL     1     -14.250  -5.202   0.705  0.00  0.00    -0.050 Br
ENDBRANCH  23  27
ENDBRANCH  11  17
BRANCH   1  35
ATOM     34  C   UNL     1       1.017  -2.090   2.757  0.00  0.00    +0.277 C 
ATOM     35  O   UNL     1       0.758  -3.264   1.984  0.00  0.00    -0.495 OA
ENDBRANCH   1  35
TORSDOF 3
