REMARK  Name = ZINC40119608
REMARK  8 active torsions:
REMARK  status: ('A' for Active; 'I' for Inactive)
REMARK    1  A    between atoms: C_1  and  C_2
REMARK    2  A    between atoms: N_8  and  C_9
REMARK    3  A    between atoms: C_9  and  C_10
REMARK    4  A    between atoms: C_13  and  N_16
REMARK    5  A    between atoms: N_16  and  C_17
REMARK    6  A    between atoms: C_20  and  S_26
REMARK    7  A    between atoms: C_22  and  N_23
REMARK    8  A    between atoms: S_26  and  C_29
REMARK                            x       y       z     vdW  Elec       q    Type
REMARK                         _______ _______ _______ _____ _____    ______ ____
ROOT
ATOM      1  C   UNL     1       2.653  -0.459   2.453  0.00  0.00    -0.064 A 
ATOM      2  C   UNL     1       2.561   0.379   3.549  0.00  0.00    +0.003 A 
ATOM      3  C   UNL     1       3.215   0.059   4.722  0.00  0.00    +0.023 A 
ATOM      4  C   UNL     1       3.966  -1.107   4.801  0.00  0.00    +0.031 A 
ATOM      5  C   UNL     1       4.057  -1.947   3.698  0.00  0.00    +0.023 A 
ATOM      6  C   UNL     1       3.396  -1.623   2.530  0.00  0.00    +0.003 A 
ENDROOT
BRANCH   4   7
ATOM      7  N   UNL     1       4.629  -1.434   5.986  0.00  0.00    -0.313 N 
ATOM      8  H   UNL     1       4.617  -0.818   6.735  0.00  0.00    +0.152 HD
BRANCH   7   9
ATOM      9  C   UNL     1       5.311  -2.649   6.093  0.00  0.00    +0.062 A 
ATOM     10  C   UNL     1       4.745  -3.706   6.797  0.00  0.00    +0.027 A 
ATOM     11  C   UNL     1       5.421  -4.905   6.900  0.00  0.00    +0.029 A 
ATOM     12  C   UNL     1       6.660  -5.056   6.304  0.00  0.00    +0.090 A 
ATOM     13  C   UNL     1       7.226  -4.007   5.604  0.00  0.00    +0.061 A 
ATOM     14  C   UNL     1       6.553  -2.806   5.492  0.00  0.00    +0.149 A 
BRANCH  12  15
ATOM     15  S   UNL     1       7.519  -6.588   6.440  0.00  0.00    -0.006 S 
ATOM     16  O   UNL     1       8.892  -6.247   6.305  0.00  0.00    -0.170 OA
ATOM     17  O   UNL     1       7.033  -7.172   7.640  0.00  0.00    -0.170 OA
ATOM     18  C   UNL     1       6.973  -7.557   5.007  0.00  0.00    +0.200 C 
ENDBRANCH  12  15
BRANCH  14  19
ATOM     19  N   UNL     1       7.157  -1.686   4.737  0.00  0.00    +0.058 N 
ATOM     20  O   UNL     1       8.181  -1.857   4.117  0.00  0.00    -0.126 OA
ATOM     21  O   UNL     1       6.627  -0.599   4.739  0.00  0.00    -0.126 OA
ENDBRANCH  14  19
ENDBRANCH   7   9
ENDBRANCH   4   7
BRANCH   1  22
ATOM     22  C   UNL     1       1.938  -0.106   1.174  0.00  0.00    -0.043 C 
BRANCH  22  29
ATOM     23  C   UNL     1      -0.171   1.295  -0.040  0.00  0.00    -0.013 C 
ATOM     24  C   UNL     1      -0.151  -0.234   0.006  0.00  0.00    -0.071 C 
ATOM     25  C   UNL     1      -1.587  -0.760   0.065  0.00  0.00    -0.016 C 
ATOM     26  C   UNL     1      -1.563  -2.291   0.112  0.00  0.00    -0.003 C 
ATOM     27  C   UNL     1      -0.729  -2.742   1.314  0.00  0.00    -0.019 C 
ATOM     28  C   UNL     1       0.675  -2.143   1.209  0.00  0.00    -0.078 C 
ATOM     29  N   UNL     1       0.585  -0.678   1.196  0.00  0.00    +0.384 N 
ATOM     30  H   UNL     1       0.103  -0.364   2.025  0.00  0.00    -0.081 HD
ENDBRANCH  22  29
ENDBRANCH   1  22
TORSDOF 6
