REMARK  Name = ZINC13112922
REMARK  8 active torsions:
REMARK  status: ('A' for Active; 'I' for Inactive)
REMARK    1  A    between atoms: C_1  and  C_2
REMARK    2  A    between atoms: C_2  and  C_4
REMARK    3  A    between atoms: C_2  and  N_14
REMARK    4  A    between atoms: C_15  and  C_17
REMARK    5  A    between atoms: C_17  and  N_18
REMARK    6  A    between atoms: C_21  and  C_25
REMARK    7  A    between atoms: C_21  and  C_32
REMARK    8  A    between atoms: C_25  and  C_26
REMARK                            x       y       z     vdW  Elec       q    Type
REMARK                         _______ _______ _______ _____ _____    ______ ____
ROOT
ATOM      1  N   UNL     1       4.159  -2.418  -1.485  0.00  0.00    -0.215 N 
ATOM      2  C   UNL     1       4.101  -1.071  -1.457  0.00  0.00    +0.252 C 
ATOM      3  O   UNL     1       4.314  -0.310  -2.376  0.00  0.00    -0.272 OA
ATOM      4  C   UNL     1       3.711  -0.707  -0.038  0.00  0.00    +0.142 C 
ATOM      5  N   UNL     1       3.583  -2.013   0.632  0.00  0.00    -0.281 N 
ATOM      6  C   UNL     1       3.863  -2.949  -0.293  0.00  0.00    +0.310 C 
ATOM      7  O   UNL     1       3.850  -4.144  -0.070  0.00  0.00    -0.252 OA
ATOM      8  H   UNL     1       3.343  -2.167   1.559  0.00  0.00    +0.152 HD
ENDROOT
BRANCH   4   9
ATOM      9  C   UNL     1       2.396   0.029  -0.022  0.00  0.00    -0.015 A 
ATOM     10  C   UNL     1       1.208  -0.679  -0.013  0.00  0.00    +0.006 A 
ATOM     11  C   UNL     1       0.002  -0.004   0.002  0.00  0.00    +0.000 A 
ATOM     12  C   UNL     1      -0.017   1.378   0.010  0.00  0.00    +0.000 A 
ATOM     13  C   UNL     1       1.171   2.086   0.002  0.00  0.00    +0.000 A 
ATOM     14  C   UNL     1       2.377   1.411  -0.015  0.00  0.00    +0.006 A 
ENDBRANCH   4   9
BRANCH   1  15
ATOM     15  C   UNL     1       4.502  -3.202  -2.673  0.00  0.00    +0.213 C 
BRANCH  15  17
ATOM     16  N   UNL     1       3.320  -4.242  -4.581  0.00  0.00    -0.307 N 
ATOM     17  C   UNL     1       3.247  -3.523  -3.443  0.00  0.00    +0.231 C 
ATOM     18  O   UNL     1       2.172  -3.134  -3.039  0.00  0.00    -0.274 OA
ATOM     19  H   UNL     1       4.180  -4.553  -4.904  0.00  0.00    +0.149 HD
BRANCH  16  21
ATOM     20  C   UNL     1       1.761  -3.388  -6.261  0.00  0.00    +0.033 C 
ATOM     21  C   UNL     1       2.100  -4.553  -5.330  0.00  0.00    +0.100 C 
BRANCH  21  22
ATOM     22  C   UNL     1       2.317  -5.801  -6.146  0.00  0.00    -0.027 A 
ATOM     23  C   UNL     1       3.522  -6.007  -6.793  0.00  0.00    +0.006 A 
ATOM     24  C   UNL     1       3.714  -7.154  -7.535  0.00  0.00    +0.004 A 
ATOM     25  C   UNL     1       2.702  -8.099  -7.649  0.00  0.00    -0.044 A 
ATOM     26  C   UNL     1       1.502  -7.893  -7.007  0.00  0.00    -0.044 A 
ATOM     27  C   UNL     1       1.312  -6.740  -6.256  0.00  0.00    +0.009 A 
ATOM     28  C   UNL     1       0.365  -8.879  -7.078  0.00  0.00    +0.035 C 
ATOM     29  C   UNL     1       0.558  -9.838  -8.250  0.00  0.00    +0.005 C 
ATOM     30  C   UNL     1       1.971 -10.427  -8.165  0.00  0.00    +0.005 C 
ATOM     31  C   UNL     1       2.974  -9.321  -8.486  0.00  0.00    +0.035 C 
ENDBRANCH  21  22
ENDBRANCH  16  21
ENDBRANCH  15  17
ENDBRANCH   1  15
BRANCH   4  32
ATOM     32  C   UNL     1       4.804   0.133   0.625  0.00  0.00    +0.075 C 
BRANCH  32  33
ATOM     33  C   UNL     1       6.107  -0.624   0.595  0.00  0.00    -0.045 A 
ATOM     34  C   UNL     1       6.445  -1.460   1.643  0.00  0.00    +0.004 A 
ATOM     35  C   UNL     1       7.638  -2.158   1.614  0.00  0.00    +0.000 A 
ATOM     36  C   UNL     1       8.497  -2.013   0.541  0.00  0.00    +0.000 A 
ATOM     37  C   UNL     1       8.162  -1.172  -0.504  0.00  0.00    +0.000 A 
ATOM     38  C   UNL     1       6.967  -0.478  -0.477  0.00  0.00    +0.004 A 
ENDBRANCH  32  33
ENDBRANCH   4  32
TORSDOF 7
