REMARK  Name = ZINC39745096
REMARK  14 active torsions:
REMARK  status: ('A' for Active; 'I' for Inactive)
REMARK    1  A    between atoms: C_1  and  C_2
REMARK    2  A    between atoms: C_2  and  C_3
REMARK    3  A    between atoms: C_3  and  C_5
REMARK    4  A    between atoms: C_3  and  S_14
REMARK    5  A    between atoms: C_11  and  C_13
REMARK    6  A    between atoms: S_14  and  C_15
REMARK    7  A    between atoms: C_18  and  C_24
REMARK    8  A    between atoms: N_19  and  C_20
REMARK    9  A    between atoms: C_20  and  C_21
REMARK   10  A    between atoms: C_21  and  C_22
REMARK   11  A    between atoms: C_21  and  C_23
REMARK   12  A    between atoms: C_24  and  C_26
REMARK   13  A    between atoms: C_24  and  N_27
REMARK   14  A    between atoms: C_28  and  C_30
REMARK                            x       y       z     vdW  Elec       q    Type
REMARK                         _______ _______ _______ _____ _____    ______ ____
ROOT
ATOM      1  C   UNL     1      -2.584   1.521   1.679  0.00  0.00    +0.192 A 
ATOM      2  N   UNL     1      -2.265   2.354   0.716  0.00  0.00    -0.122 NA
ATOM      3  N   UNL     1      -2.657   3.541   1.019  0.00  0.00    -0.132 NA
ATOM      4  C   UNL     1      -3.243   3.535   2.182  0.00  0.00    +0.154 A 
ATOM      5  N   UNL     1      -3.223   2.247   2.642  0.00  0.00    -0.304 N 
ENDROOT
BRANCH   4   6
ATOM      6  C   UNL     1      -3.839   4.726   2.888  0.00  0.00    +0.138 C 
ATOM      7  C   UNL     1      -2.716   5.595   3.458  0.00  0.00    +0.036 C 
BRANCH   6   8
ATOM      8  N   UNL     1      -4.629   5.512   1.937  0.00  0.00    -0.302 N 
ATOM      9  C   UNL     1      -5.634   6.293   2.379  0.00  0.00    +0.245 C 
ATOM     10  O   UNL     1      -5.885   6.346   3.567  0.00  0.00    -0.270 OA
ATOM     11  H   UNL     1      -4.429   5.470   0.988  0.00  0.00    +0.150 HD
BRANCH   9  12
ATOM     12  C   UNL     1      -6.431   7.086   1.420  0.00  0.00    +0.037 A 
ATOM     13  C   UNL     1      -6.149   7.023   0.054  0.00  0.00    +0.014 A 
ATOM     14  C   UNL     1      -6.897   7.765  -0.837  0.00  0.00    +0.021 A 
ATOM     15  C   UNL     1      -7.925   8.571  -0.378  0.00  0.00    +0.041 A 
ATOM     16  C   UNL     1      -8.210   8.638   0.976  0.00  0.00    +0.021 A 
ATOM     17  C   UNL     1      -7.473   7.896   1.875  0.00  0.00    +0.014 A 
ATOM     18 CL   UNL     1      -8.861   9.503  -1.505  0.00  0.00    -0.084 Cl
ENDBRANCH   9  12
ENDBRANCH   6   8
ENDBRANCH   4   6
BRANCH   1  19
ATOM     19  S   UNL     1      -2.255  -0.210   1.718  0.00  0.00    -0.073 S 
BRANCH  19  20
ATOM     20  C   UNL     1      -1.532  -0.556   0.091  0.00  0.00    +0.140 C 
BRANCH  20  21
ATOM     21  C   UNL     1      -2.578  -0.359  -0.976  0.00  0.00    +0.232 C 
ATOM     22  O   UNL     1      -3.755  -0.379  -0.682  0.00  0.00    -0.274 OA
ATOM     23  N   UNL     1      -2.206  -0.161  -2.256  0.00  0.00    -0.262 N 
ATOM     24  C   UNL     1      -3.172   0.021  -3.240  0.00  0.00    +0.188 A 
ATOM     25  N   UNL     1      -4.485   0.039  -3.124  0.00  0.00    -0.126 NA
ATOM     26  N   UNL     1      -5.241   0.217  -4.120  0.00  0.00    -0.145 NA
ATOM     27  C   UNL     1      -4.703   0.390  -5.311  0.00  0.00    +0.101 A 
ATOM     28  S   UNL     1      -2.969   0.284  -4.893  0.00  0.00    -0.036 S 
ATOM     29  C   UNL     1      -5.364   0.619  -6.646  0.00  0.00    +0.075 C 
ATOM     30  H   UNL     1      -1.265  -0.144  -2.491  0.00  0.00    +0.157 HD
ENDBRANCH  20  21
BRANCH  20  32
ATOM     31  C   UNL     1       0.128  -2.165   1.039  0.00  0.00    +0.005 C 
ATOM     32  C   UNL     1      -1.030  -2.001   0.053  0.00  0.00    +0.020 C 
ENDBRANCH  20  32
ENDBRANCH  19  20
ENDBRANCH   1  19
BRANCH   5  33
ATOM     33  C   UNL     1      -3.770   1.751   3.908  0.00  0.00    +0.128 C 
BRANCH  33  34
ATOM     34  C   UNL     1      -2.697   1.834   4.995  0.00  0.00    +0.003 C 
ATOM     35  C   UNL     1      -3.304   1.434   6.341  0.00  0.00    +0.009 C 
ATOM     36  C   UNL     1      -1.548   0.884   4.651  0.00  0.00    +0.009 C 
ENDBRANCH  33  34
ENDBRANCH   5  33
TORSDOF 9
