REMARK  Name = ZINC36698976
REMARK  17 active torsions:
REMARK  status: ('A' for Active; 'I' for Inactive)
REMARK    1  A    between atoms: C_1  and  C_2
REMARK    2  A    between atoms: C_2  and  C_3
REMARK    3  A    between atoms: C_3  and  C_4
REMARK    4  A    between atoms: C_4  and  N_5
REMARK    5  A    between atoms: N_5  and  C_6
REMARK    6  A    between atoms: N_5  and  S_8
REMARK    7  A    between atoms: C_6  and  C_7
REMARK    8  A    between atoms: S_8  and  C_11
REMARK    9  A    between atoms: C_14  and  C_17
REMARK   10  A    between atoms: N_19  and  C_20
REMARK   11  A    between atoms: C_20  and  C_21
REMARK   12  A    between atoms: C_21  and  C_22
REMARK   13  A    between atoms: C_22  and  N_23
REMARK   14  A    between atoms: N_23  and  C_24
REMARK   15  A    between atoms: N_23  and  C_25
REMARK   16  A    between atoms: C_30  and  C_36
REMARK   17  A    between atoms: C_31  and  C_35
REMARK                            x       y       z     vdW  Elec       q    Type
REMARK                         _______ _______ _______ _____ _____    ______ ____
ROOT
ATOM      1  C   UNL     1       5.855   1.795   3.590  0.00  0.00    +0.252 C 
ATOM      2  O   UNL     1       6.181   2.358   2.563  0.00  0.00    -0.270 OA
ATOM      3  N   UNL     1       6.310   2.242   4.777  0.00  0.00    -0.246 N 
ATOM      4  C   UNL     1       7.048   3.411   4.840  0.00  0.00    +0.168 A 
ATOM      5  N   UNL     1       7.577   3.996   5.890  0.00  0.00    -0.224 NA
ATOM      6  C   UNL     1       8.280   5.146   5.803  0.00  0.00    +0.081 A 
ATOM      7  C   UNL     1       8.896   5.874   6.848  0.00  0.00    +0.032 A 
ATOM      8  C   UNL     1       9.577   7.033   6.586  0.00  0.00    -0.045 A 
ATOM      9  C   UNL     1       9.688   7.534   5.296  0.00  0.00    -0.046 A 
ATOM     10  C   UNL     1       9.099   6.848   4.251  0.00  0.00    +0.021 A 
ATOM     11  C   UNL     1       8.414   5.685   4.504  0.00  0.00    +0.041 A 
ATOM     12  S   UNL     1       7.532   4.505   3.511  0.00  0.00    -0.052 S 
ATOM     13  C   UNL     1      10.444   8.812   5.038  0.00  0.00    +0.044 C 
ATOM     14  C   UNL     1      10.220   7.783   7.724  0.00  0.00    +0.044 C 
ENDROOT
BRANCH   1  18
ATOM     15  C   UNL     1       3.281  -1.579   3.435  0.00  0.00    +0.106 A 
ATOM     16  C   UNL     1       2.984  -0.452   2.690  0.00  0.00    +0.029 A 
ATOM     17  C   UNL     1       3.816   0.648   2.736  0.00  0.00    +0.015 A 
ATOM     18  C   UNL     1       4.959   0.621   3.536  0.00  0.00    +0.037 A 
ATOM     19  C   UNL     1       5.253  -0.520   4.286  0.00  0.00    +0.015 A 
ATOM     20  C   UNL     1       4.410  -1.610   4.235  0.00  0.00    +0.029 A 
BRANCH  15  21
ATOM     21  S   UNL     1       2.213  -2.979   3.371  0.00  0.00    +0.061 S 
ATOM     22  O   UNL     1       2.997  -4.106   3.740  0.00  0.00    -0.153 OA
ATOM     23  O   UNL     1       1.521  -2.906   2.132  0.00  0.00    -0.153 OA
BRANCH  21  24
ATOM     24  N   UNL     1       1.077  -2.784   4.560  0.00  0.00    -0.177 NA
BRANCH  24  25
ATOM     25  C   UNL     1       1.327  -3.309   5.905  0.00  0.00    +0.106 C 
ATOM     26  C   UNL     1       0.695  -4.696   6.036  0.00  0.00    +0.022 C 
ENDBRANCH  24  25
BRANCH  24  27
ATOM     27  C   UNL     1      -0.177  -2.086   4.267  0.00  0.00    +0.109 C 
BRANCH  27  28
ATOM     28  C   UNL     1      -0.045  -0.613   4.658  0.00  0.00    +0.017 C 
BRANCH  28  30
ATOM     29  C   UNL     1      -1.223   1.589   4.743  0.00  0.00    +0.004 C 
ATOM     30  C   UNL     1      -1.355   0.116   4.352  0.00  0.00    -0.002 C 
ENDBRANCH  28  30
ENDBRANCH  27  28
ENDBRANCH  24  27
ENDBRANCH  21  24
ENDBRANCH  15  21
ENDBRANCH   1  18
BRANCH   3  31
ATOM     31  C   UNL     1       6.024   1.490   6.002  0.00  0.00    +0.114 C 
BRANCH  31  32
ATOM     32  C   UNL     1       7.229   0.616   6.357  0.00  0.00    +0.001 C 
BRANCH  32  33
ATOM     33  C   UNL     1       6.882  -0.269   7.556  0.00  0.00    -0.078 C 
BRANCH  33  34
ATOM     34  N   UNL     1       8.039  -1.107   7.896  0.00  0.00    +0.376 N 
ATOM     35  C   UNL     1       9.145  -0.255   8.351  0.00  0.00    -0.097 C 
ATOM     36  C   UNL     1       7.668  -2.041   8.969  0.00  0.00    -0.097 C 
ATOM     37  H   UNL     1       8.328  -1.629   7.082  0.00  0.00    -0.083 HD
ENDBRANCH  33  34
ENDBRANCH  32  33
ENDBRANCH  31  32
ENDBRANCH   3  31
TORSDOF 11
