REMARK  Name = ZINC23156923
REMARK  5 active torsions:
REMARK  status: ('A' for Active; 'I' for Inactive)
REMARK    1  A    between atoms: C_1  and  C_2
REMARK    2  A    between atoms: C_8  and  C_10
REMARK    3  A    between atoms: C_10  and  C_12
REMARK    4  A    between atoms: C_10  and  N_19
REMARK    5  A    between atoms: C_22  and  C_25
REMARK                            x       y       z     vdW  Elec       q    Type
REMARK                         _______ _______ _______ _____ _____    ______ ____
ROOT
ATOM      1  C   UNL     1      -0.013   1.086   0.008  0.00  0.00    +0.006 C 
ENDROOT
BRANCH   1   9
ATOM      2  C   UNL     1      -3.367   2.394   6.540  0.00  0.00    +0.090 C 
ATOM      3  C   UNL     1      -2.718   2.286   5.184  0.00  0.00    +0.150 A 
ATOM      4  N   UNL     1      -2.602   3.277   4.304  0.00  0.00    -0.205 NA
ATOM      5  C   UNL     1      -1.990   2.839   3.238  0.00  0.00    +0.199 A 
ATOM      6  N   UNL     1      -1.683   1.522   3.397  0.00  0.00    -0.170 N 
ATOM      7  N   UNL     1      -2.181   1.204   4.688  0.00  0.00    -0.147 NA
ATOM      8  C   UNL     1      -1.031   0.898   2.361  0.00  0.00    +0.282 A 
ATOM      9  C   UNL     1      -0.718   1.572   1.248  0.00  0.00    +0.050 A 
ATOM     10  S   UNL     1      -1.349   3.201   1.621  0.00  0.00    -0.050 S 
ATOM     11  O   UNL     1      -0.701  -0.417   2.467  0.00  0.00    -0.265 OA
ENDBRANCH   1   9
BRANCH   1  12
ATOM     12  N   UNL     1      -0.723   1.572  -1.182  0.00  0.00    +0.387 N 
ATOM     13  C   UNL     1       0.050   1.306  -2.402  0.00  0.00    -0.077 C 
ATOM     14  C   UNL     1      -0.648   1.953  -3.601  0.00  0.00    -0.015 C 
ATOM     15  C   UNL     1      -2.061   1.378  -3.734  0.00  0.00    -0.018 C 
ATOM     16  C   UNL     1      -2.829   1.626  -2.433  0.00  0.00    -0.015 C 
ATOM     17  C   UNL     1      -2.068   0.989  -1.268  0.00  0.00    -0.077 C 
ATOM     18  C   UNL     1      -2.785   2.064  -4.894  0.00  0.00    +0.007 C 
ATOM     19  H   UNL     1      -0.836   2.663  -1.088  0.00  0.00    -0.080 HD
ENDBRANCH   1  12
BRANCH   1  20
ATOM     20  C   UNL     1       1.401   1.607  -0.003  0.00  0.00    -0.056 A 
ATOM     21  C   UNL     1       1.657   2.903  -0.413  0.00  0.00    +0.004 A 
ATOM     22  C   UNL     1       2.953   3.383  -0.418  0.00  0.00    +0.020 A 
ATOM     23  C   UNL     1       3.995   2.564  -0.022  0.00  0.00    +0.041 A 
ATOM     24  C   UNL     1       3.740   1.267   0.383  0.00  0.00    +0.020 A 
ATOM     25  C   UNL     1       2.443   0.789   0.393  0.00  0.00    +0.004 A 
ATOM     26 CL   UNL     1       5.624   3.166  -0.034  0.00  0.00    -0.084 Cl
ENDBRANCH   1  20
TORSDOF 3
