REMARK  Name = ZINC02267836
REMARK  7 active torsions:
REMARK  status: ('A' for Active; 'I' for Inactive)
REMARK    1  A    between atoms: C_1  and  C_2
REMARK    2  A    between atoms: C_2  and  O_3
REMARK    3  A    between atoms: O_3  and  C_4
REMARK    4  A    between atoms: C_7  and  C_10
REMARK    5  A    between atoms: C_12  and  C_27
REMARK    6  A    between atoms: C_13  and  N_26
REMARK    7  A    between atoms: C_23  and  C_24
REMARK                            x       y       z     vdW  Elec       q    Type
REMARK                         _______ _______ _______ _____ _____    ______ ____
ROOT
ATOM      1  C   UNL     1      -1.968  -6.058  -0.013  0.00  0.00    +0.106 C 
ATOM      2  C   UNL     1      -1.477  -6.582  -1.347  0.00  0.00    +0.078 C 
ATOM      3  C   UNL     1      -0.511  -7.539  -1.341  0.00  0.00    +0.108 C 
ATOM      4  N   UNL     1       0.024  -8.039  -0.174  0.00  0.00    -0.242 N 
ATOM      5  C   UNL     1       1.013  -9.017   0.003  0.00  0.00    +0.062 A 
ATOM      6  C   UNL     1       1.750  -9.773  -0.896  0.00  0.00    +0.026 A 
ATOM      7  C   UNL     1       2.679 -10.683  -0.429  0.00  0.00    +0.002 A 
ATOM      8  C   UNL     1       2.875 -10.842   0.932  0.00  0.00    +0.002 A 
ATOM      9  C   UNL     1       2.146 -10.093   1.834  0.00  0.00    +0.025 A 
ATOM     10  C   UNL     1       1.210  -9.176   1.373  0.00  0.00    +0.054 A 
ATOM     11  N   UNL     1       0.346  -8.300   2.022  0.00  0.00    -0.300 N 
ATOM     12  C   UNL     1      -0.370  -7.615   1.068  0.00  0.00    +0.115 C 
ATOM     13  C   UNL     1      -1.335  -6.653   1.226  0.00  0.00    +0.078 C 
ATOM     14  H   UNL     1       0.262  -8.192   2.982  0.00  0.00    +0.153 HD
ENDROOT
BRANCH   1  18
ATOM     15  C   UNL     1      -1.318  -1.835   0.070  0.00  0.00    +0.121 A 
ATOM     16  C   UNL     1      -0.237  -2.705   0.053  0.00  0.00    +0.046 A 
ATOM     17  C   UNL     1      -0.450  -4.069   0.033  0.00  0.00    +0.008 A 
ATOM     18  C   UNL     1      -1.739  -4.569   0.016  0.00  0.00    -0.034 A 
ATOM     19  C   UNL     1      -2.818  -3.704   0.027  0.00  0.00    +0.008 A 
ATOM     20  C   UNL     1      -2.610  -2.339   0.054  0.00  0.00    +0.046 A 
BRANCH  15  21
ATOM     21  O   UNL     1      -1.111  -0.492   0.096  0.00  0.00    -0.492 OA
BRANCH  21  23
ATOM     22  C   UNL     1       0.279   1.484   0.141  0.00  0.00    +0.048 C 
ATOM     23  C   UNL     1       0.246  -0.045   0.112  0.00  0.00    +0.225 C 
ENDBRANCH  21  23
ENDBRANCH  15  21
ENDBRANCH   1  18
BRANCH   3  24
ATOM     24  N   UNL     1      -0.054  -8.026  -2.542  0.00  0.00    -0.345 N 
ATOM     25  H   UNL     1       0.365  -8.900  -2.583  0.00  0.00    +0.144 HD
ATOM     26  H   UNL     1      -0.149  -7.496  -3.349  0.00  0.00    +0.144 HD
ENDBRANCH   3  24
BRANCH  13  27
ATOM     27  C   UNL     1      -1.733  -6.223   2.532  0.00  0.00    +0.099 C 
ATOM     28  N   UNL     1      -2.050  -5.881   3.568  0.00  0.00    -0.191 NA
ENDBRANCH  13  27
BRANCH   2  29
ATOM     29  C   UNL     1      -2.013  -6.082  -2.578  0.00  0.00    +0.099 C 
ATOM     30  N   UNL     1      -2.438  -5.687  -3.554  0.00  0.00    -0.191 NA
ENDBRANCH   2  29
TORSDOF 6
