REMARK  Name = ZINC09672331
REMARK  9 active torsions:
REMARK  status: ('A' for Active; 'I' for Inactive)
REMARK    1  A    between atoms: C_3  and  S_6
REMARK    2  A    between atoms: S_6  and  N_9
REMARK    3  A    between atoms: N_9  and  C_10
REMARK    4  A    between atoms: C_13  and  C_17
REMARK    5  A    between atoms: C_14  and  O_16
REMARK    6  A    between atoms: C_17  and  O_19
REMARK    7  A    between atoms: O_19  and  C_20
REMARK    8  A    between atoms: C_20  and  C_21
REMARK    9  A    between atoms: C_21  and  C_23
REMARK                            x       y       z     vdW  Elec       q    Type
REMARK                         _______ _______ _______ _____ _____    ______ ____
ROOT
ATOM      1  C   UNL     1       1.333   6.315   0.024  0.00  0.00    +0.052 A 
ATOM      2  C   UNL     1       0.103   5.658   0.032  0.00  0.00    +0.025 A 
ATOM      3  C   UNL     1       0.050   4.294   0.025  0.00  0.00    +0.020 A 
ATOM      4  C   UNL     1       1.232   3.546   0.009  0.00  0.00    +0.100 A 
ATOM      5  C   UNL     1       2.473   4.203   0.007  0.00  0.00    +0.133 A 
ATOM      6  C   UNL     1       2.515   5.586   0.008  0.00  0.00    +0.070 A 
ENDROOT
BRANCH   1   7
ATOM      7  N   UNL     1       1.375   7.704   0.031  0.00  0.00    -0.216 N 
ATOM      8  H   UNL     1       1.978   8.174  -0.566  0.00  0.00    +0.174 HD
BRANCH   7   9
ATOM      9  S   UNL     1       0.397   8.558   1.059  0.00  0.00    +0.079 S 
ATOM     10  O   UNL     1       0.689   9.932   0.850  0.00  0.00    -0.149 OA
ATOM     11  O   UNL     1      -0.912   8.026   0.909  0.00  0.00    -0.149 OA
BRANCH   9  14
ATOM     12  C   UNL     1       2.076   8.323   4.747  0.00  0.00    +0.010 A 
ATOM     13  C   UNL     1       1.835   8.800   3.472  0.00  0.00    +0.036 A 
ATOM     14  C   UNL     1       0.910   8.178   2.701  0.00  0.00    +0.146 A 
ATOM     15  S   UNL     1       0.340   6.878   3.785  0.00  0.00    -0.077 S 
ATOM     16  C   UNL     1       1.380   7.247   5.188  0.00  0.00    +0.047 A 
ENDBRANCH   9  14
ENDBRANCH   7   9
ENDBRANCH   1   7
BRANCH   5  17
ATOM     17  O   UNL     1       3.624   3.486  -0.003  0.00  0.00    -0.506 OA
ATOM     18  H   UNL     1       3.954   3.282  -0.889  0.00  0.00    +0.292 HD
ENDBRANCH   5  17
BRANCH   4  19
ATOM     19  C   UNL     1       1.175   2.076   0.002  0.00  0.00    +0.343 C 
ATOM     20  O   UNL     1       2.203   1.428  -0.011  0.00  0.00    -0.245 OA
BRANCH  19  21
ATOM     21  O   UNL     1      -0.018   1.448   0.010  0.00  0.00    -0.453 OA
BRANCH  21  22
ATOM     22  C   UNL     1       0.002  -0.004   0.002  0.00  0.00    +0.311 C 
BRANCH  22  23
ATOM     23  C   UNL     1      -1.412  -0.526   0.013  0.00  0.00    +0.200 C 
ATOM     24  O   UNL     1      -2.344   0.250   0.026  0.00  0.00    -0.288 OA
BRANCH  23  25
ATOM     25  C   UNL     1      -1.661  -1.976   0.007  0.00  0.00    +0.021 A 
ATOM     26  C   UNL     1      -0.588  -2.873  -0.013  0.00  0.00    +0.012 A 
ATOM     27  C   UNL     1      -0.829  -4.230  -0.012  0.00  0.00    +0.016 A 
ATOM     28  C   UNL     1      -2.130  -4.706  -0.002  0.00  0.00    +0.018 A 
ATOM     29  C   UNL     1      -3.198  -3.823   0.012  0.00  0.00    +0.016 A 
ATOM     30  C   UNL     1      -2.972  -2.463   0.017  0.00  0.00    +0.012 A 
ATOM     31 BR   UNL     1      -2.450  -6.569  -0.009  0.00  0.00    -0.050 Br
ENDBRANCH  23  25
ENDBRANCH  22  23
ENDBRANCH  21  22
ENDBRANCH  19  21
ENDBRANCH   4  19
TORSDOF 9
