REMARK  Name = ZINC38596415
REMARK  14 active torsions:
REMARK  status: ('A' for Active; 'I' for Inactive)
REMARK    1  A    between atoms: C_1  and  C_2
REMARK    2  A    between atoms: C_3  and  C_38
REMARK    3  A    between atoms: C_4  and  C_37
REMARK    4  A    between atoms: C_5  and  S_10
REMARK    5  A    between atoms: C_6  and  C_9
REMARK    6  A    between atoms: C_7  and  C_8
REMARK    7  A    between atoms: S_10  and  N_13
REMARK    8  A    between atoms: N_13  and  C_14
REMARK    9  A    between atoms: C_14  and  C_16
REMARK   10  A    between atoms: C_14  and  C_17
REMARK   11  A    between atoms: C_17  and  C_19
REMARK   12  A    between atoms: C_17  and  N_24
REMARK   13  A    between atoms: N_27  and  C_30
REMARK   14  A    between atoms: C_30  and  C_31
REMARK                            x       y       z     vdW  Elec       q    Type
REMARK                         _______ _______ _______ _____ _____    ______ ____
ROOT
ATOM      1  C   UNL     1       2.439  -5.272   0.932  0.00  0.00    +0.112 C 
ENDROOT
BRANCH   1   2
ATOM      2  N   UNL     1       3.300  -5.399   2.116  0.00  0.00    -0.297 NA
ATOM      3  C   UNL     1       4.703  -5.603   1.727  0.00  0.00    +0.066 C 
ATOM      4  C   UNL     1       5.555  -5.789   2.985  0.00  0.00    -0.063 C 
ATOM      5  N   UNL     1       5.434  -4.601   3.839  0.00  0.00    +0.384 N 
ATOM      6  C   UNL     1       4.032  -4.424   4.239  0.00  0.00    -0.063 C 
ATOM      7  C   UNL     1       3.167  -4.227   2.992  0.00  0.00    +0.066 C 
ATOM      8  H   UNL     1       5.743  -3.787   3.329  0.00  0.00    -0.081 HD
BRANCH   5   9
ATOM      9  C   UNL     1       6.266  -4.772   5.037  0.00  0.00    -0.043 C 
BRANCH   9  10
ATOM     10  C   UNL     1       6.239  -3.506   5.853  0.00  0.00    -0.064 A 
ATOM     11  C   UNL     1       7.174  -2.514   5.622  0.00  0.00    +0.002 A 
ATOM     12  C   UNL     1       7.149  -1.353   6.370  0.00  0.00    +0.000 A 
ATOM     13  C   UNL     1       6.189  -1.182   7.350  0.00  0.00    +0.000 A 
ATOM     14  C   UNL     1       5.254  -2.173   7.581  0.00  0.00    +0.000 A 
ATOM     15  C   UNL     1       5.276  -3.333   6.830  0.00  0.00    +0.002 A 
ENDBRANCH   9  10
ENDBRANCH   5   9
ENDBRANCH   1   2
BRANCH   1  16
ATOM     16  C   UNL     1       2.553  -6.519   0.093  0.00  0.00    +0.008 A 
ATOM     17  C   UNL     1       2.667  -6.634  -1.253  0.00  0.00    +0.013 A 
ATOM     18  C   UNL     1       2.760  -7.894  -1.813  0.00  0.00    +0.008 A 
ATOM     19  C   UNL     1       2.734  -8.978  -0.999  0.00  0.00    +0.045 A 
ATOM     20  S   UNL     1       2.581  -8.226   0.613  0.00  0.00    -0.100 S 
ENDBRANCH   1  16
BRANCH   1  21
ATOM     21  C   UNL     1       0.987  -5.087   1.375  0.00  0.00    +0.095 C 
ATOM     22  C   UNL     1       0.577  -6.253   2.278  0.00  0.00    +0.027 C 
BRANCH  21  23
ATOM     23  N   UNL     1       0.117  -5.052   0.197  0.00  0.00    -0.185 NA
ATOM     24  H   UNL     1       0.325  -5.602  -0.575  0.00  0.00    +0.148 HD
BRANCH  23  25
ATOM     25  S   UNL     1      -1.220  -4.075   0.183  0.00  0.00    +0.059 S 
ATOM     26  O   UNL     1      -1.913  -4.318   1.399  0.00  0.00    -0.153 OA
ATOM     27  O   UNL     1      -1.831  -4.242  -1.089  0.00  0.00    -0.153 OA
BRANCH  25  32
ATOM     28  C   UNL     1       0.739   1.627   0.422  0.00  0.00    +0.044 C 
ATOM     29  C   UNL     1       0.250   0.203   0.362  0.00  0.00    -0.044 A 
ATOM     30  C   UNL     1      -0.090  -0.461   1.527  0.00  0.00    -0.043 A 
ATOM     31  C   UNL     1      -0.539  -1.767   1.472  0.00  0.00    -0.021 A 
ATOM     32  C   UNL     1      -0.649  -2.410   0.253  0.00  0.00    +0.112 A 
ATOM     33  C   UNL     1      -0.309  -1.746  -0.911  0.00  0.00    -0.021 A 
ATOM     34  C   UNL     1       0.135  -0.438  -0.857  0.00  0.00    -0.043 A 
ATOM     35  C   UNL     1       0.500   0.287  -2.127  0.00  0.00    +0.044 C 
ATOM     36  C   UNL     1      -0.428  -2.447  -2.240  0.00  0.00    +0.046 C 
ATOM     37  C   UNL     1      -0.909  -2.491   2.741  0.00  0.00    +0.046 C 
ATOM     38  C   UNL     1       0.029   0.240   2.856  0.00  0.00    +0.044 C 
ENDBRANCH  25  32
ENDBRANCH  23  25
ENDBRANCH  21  23
ENDBRANCH   1  21
TORSDOF 8
