REMARK  Name = ZINC02223365
REMARK  6 active torsions:
REMARK  status: ('A' for Active; 'I' for Inactive)
REMARK    1  A    between atoms: C_1  and  C_2
REMARK    2  A    between atoms: C_12  and  C_14
REMARK    3  A    between atoms: N_16  and  C_17
REMARK    4  A    between atoms: C_18  and  C_25
REMARK    5  A    between atoms: N_27  and  C_28
REMARK    6  A    between atoms: C_28  and  C_29
REMARK                            x       y       z     vdW  Elec       q    Type
REMARK                         _______ _______ _______ _____ _____    ______ ____
ROOT
ATOM      1  C   UNL     1       0.907  -4.412  -6.113  0.00  0.00    +0.085 A 
ATOM      2  C   UNL     1       0.924  -3.779  -7.343  0.00  0.00    +0.069 A 
ATOM      3  C   UNL     1       1.269  -4.591  -8.509  0.00  0.00    -0.023 A 
ATOM      4  C   UNL     1       1.529  -5.880  -8.222  0.00  0.00    -0.004 A 
ATOM      5  S   UNL     1       1.330  -5.996  -6.462  0.00  0.00    -0.077 S 
ATOM      6  C   UNL     1       1.873  -6.670  -9.456  0.00  0.00    +0.043 C 
ATOM      7  C   UNL     1       1.378  -5.797 -10.630  0.00  0.00    +0.010 C 
ATOM      8  C   UNL     1       1.426  -4.384 -10.014  0.00  0.00    +0.037 C 
ENDROOT
BRANCH   1  11
ATOM      9  C   UNL     1       0.651  -4.630  -3.771  0.00  0.00    +0.284 C 
ATOM     10  O   UNL     1       0.943  -5.807  -3.859  0.00  0.00    -0.266 OA
ATOM     11  N   UNL     1       0.614  -3.861  -4.877  0.00  0.00    -0.273 N 
ATOM     12  H   UNL     1       0.382  -2.922  -4.807  0.00  0.00    +0.156 HD
BRANCH   9  24
ATOM     13  C   UNL     1      -0.018   1.503   0.010  0.00  0.00    +0.045 C 
ATOM     14  C   UNL     1       0.002  -0.004   0.002  0.00  0.00    -0.029 A 
ATOM     15  C   UNL     1       0.006  -0.678  -1.200  0.00  0.00    +0.051 A 
ATOM     16  C   UNL     1       0.025  -2.069  -1.217  0.00  0.00    +0.140 A 
ATOM     17  C   UNL     1       0.048  -2.767   0.003  0.00  0.00    +0.065 A 
ATOM     18  C   UNL     1       0.041  -2.075   1.212  0.00  0.00    +0.035 A 
ATOM     19  C   UNL     1       0.023  -0.696   1.206  0.00  0.00    +0.045 A 
ATOM     20 CL   UNL     1       0.020   0.176   2.706  0.00  0.00    -0.083 Cl
ATOM     21  C   UNL     1       0.087  -4.243  -0.042  0.00  0.00    +0.193 A 
ATOM     22  O   UNL     1      -0.115  -4.924   0.948  0.00  0.00    -0.287 OA
ATOM     23  C   UNL     1       0.384  -4.841  -1.354  0.00  0.00    +0.103 A 
ATOM     24  C   UNL     1       0.338  -4.042  -2.449  0.00  0.00    +0.194 A 
ATOM     25  O   UNL     1       0.020  -2.741  -2.384  0.00  0.00    -0.450 OA
ENDBRANCH   9  24
ENDBRANCH   1  11
BRANCH   2  26
ATOM     26  C   UNL     1       0.610  -2.353  -7.473  0.00  0.00    +0.247 C 
ATOM     27  O   UNL     1       1.497  -1.524  -7.391  0.00  0.00    -0.270 OA
ATOM     28  N   UNL     1      -0.662  -1.960  -7.683  0.00  0.00    -0.309 N 
ATOM     29  H   UNL     1      -1.370  -2.621  -7.748  0.00  0.00    +0.149 HD
BRANCH  28  30
ATOM     30  C   UNL     1      -0.977  -0.535  -7.812  0.00  0.00    +0.136 C 
BRANCH  30  31
ATOM     31  C   UNL     1      -2.480  -0.364  -8.043  0.00  0.00    +0.135 C 
ATOM     32  C   UNL     1      -2.830   1.135  -8.218  0.00  0.00    +0.035 C 
ATOM     33  C   UNL     1      -4.141   1.038  -9.043  0.00  0.00    +0.031 C 
ATOM     34  C   UNL     1      -3.886  -0.207  -9.919  0.00  0.00    +0.160 C 
ATOM     35  O   UNL     1      -2.869  -0.988  -9.277  0.00  0.00    -0.375 OA
ENDBRANCH  30  31
ENDBRANCH  28  30
ENDBRANCH   2  26
TORSDOF 5
