REMARK  Name = ZINC17304493
REMARK  9 active torsions:
REMARK  status: ('A' for Active; 'I' for Inactive)
REMARK    1  A    between atoms: C_1  and  S_2
REMARK    2  A    between atoms: S_2  and  C_3
REMARK    3  A    between atoms: C_3  and  C_4
REMARK    4  A    between atoms: C_4  and  C_5
REMARK    5  A    between atoms: C_5  and  C_7
REMARK    6  A    between atoms: C_5  and  N_21
REMARK    7  A    between atoms: C_7  and  N_9
REMARK    8  A    between atoms: N_21  and  S_22
REMARK    9  A    between atoms: S_22  and  C_25
REMARK                            x       y       z     vdW  Elec       q    Type
REMARK                         _______ _______ _______ _____ _____    ______ ____
ROOT
ATOM      1  C   UNL     1       1.241  -2.103   2.863  0.00  0.00    +0.165 C 
ENDROOT
BRANCH   1   2
ATOM      2  C   UNL     1       1.551  -3.578   2.874  0.00  0.00    +0.258 C 
ATOM      3  O   UNL     1       1.461  -4.210   3.908  0.00  0.00    -0.272 OA
BRANCH   2   4
ATOM      4  N   UNL     1       1.922  -4.187   1.752  0.00  0.00    -0.145 NA
ATOM      5  C   UNL     1       2.097  -5.505   1.738  0.00  0.00    +0.198 A 
ATOM      6  N   UNL     1       1.797  -6.350   2.759  0.00  0.00    -0.326 N 
ATOM      7  H   UNL     1       1.422  -6.095   3.616  0.00  0.00    +0.169 HD
ATOM      8  C   UNL     1       2.121  -7.644   2.364  0.00  0.00    +0.065 A 
ATOM      9  C   UNL     1       2.028  -8.878   2.993  0.00  0.00    +0.028 A 
ATOM     10  C   UNL     1       2.438 -10.019   2.333  0.00  0.00    +0.002 A 
ATOM     11  C   UNL     1       2.942  -9.938   1.046  0.00  0.00    +0.002 A 
ATOM     12  C   UNL     1       3.039  -8.716   0.411  0.00  0.00    +0.028 A 
ATOM     13  C   UNL     1       2.629  -7.563   1.066  0.00  0.00    +0.065 A 
ATOM     14  N   UNL     1       2.598  -6.222   0.697  0.00  0.00    -0.326 N 
ATOM     15  H   UNL     1       2.887  -5.860  -0.155  0.00  0.00    +0.169 HD
ENDBRANCH   2   4
ENDBRANCH   1   2
BRANCH   1  16
ATOM     16  N   UNL     1       0.859  -1.675   4.211  0.00  0.00    -0.178 NA
ATOM     17  H   UNL     1       0.041  -2.007   4.612  0.00  0.00    +0.149 HD
BRANCH  16  18
ATOM     18  S   UNL     1       1.825  -0.623   5.051  0.00  0.00    +0.061 S 
ATOM     19  O   UNL     1       1.230  -0.460   6.331  0.00  0.00    -0.153 OA
ATOM     20  O   UNL     1       3.161  -1.077   4.884  0.00  0.00    -0.153 OA
BRANCH  18  21
ATOM     21  C   UNL     1       1.719   0.939   4.243  0.00  0.00    +0.125 A 
ATOM     22  C   UNL     1       0.930   1.941   4.777  0.00  0.00    +0.050 A 
ATOM     23  C   UNL     1       0.847   3.168   4.143  0.00  0.00    +0.043 A 
ATOM     24  C   UNL     1       1.554   3.392   2.974  0.00  0.00    +0.021 A 
ATOM     25  C   UNL     1       2.342   2.390   2.441  0.00  0.00    +0.023 A 
ATOM     26  C   UNL     1       2.430   1.165   3.078  0.00  0.00    +0.067 A 
ATOM     27 CL   UNL     1       3.426  -0.091   2.412  0.00  0.00    -0.082 Cl
ATOM     28 CL   UNL     1      -0.144   4.426   4.812  0.00  0.00    -0.083 Cl
ENDBRANCH  18  21
ENDBRANCH  16  18
ENDBRANCH   1  16
BRANCH   1  29
ATOM     29  C   UNL     1       0.088  -1.830   1.895  0.00  0.00    +0.040 C 
BRANCH  29  30
ATOM     30  C   UNL     1      -0.165  -0.324   1.815  0.00  0.00    +0.071 C 
BRANCH  30  32
ATOM     31  C   UNL     1      -1.585   1.811   0.550  0.00  0.00    +0.084 C 
ATOM     32  S   UNL     1      -1.513   0.001   0.645  0.00  0.00    -0.164 S 
ENDBRANCH  30  32
ENDBRANCH  29  30
ENDBRANCH   1  29
TORSDOF 8
