REMARK  Name = ZINC09384427
REMARK  8 active torsions:
REMARK  status: ('A' for Active; 'I' for Inactive)
REMARK    1  A    between atoms: C_1  and  C_2
REMARK    2  A    between atoms: C_2  and  O_3
REMARK    3  A    between atoms: O_3  and  C_4
REMARK    4  A    between atoms: C_7  and  C_9
REMARK    5  A    between atoms: C_13  and  N_14
REMARK    6  A    between atoms: C_15  and  C_17
REMARK    7  A    between atoms: C_20  and  S_23
REMARK    8  A    between atoms: S_23  and  N_26
REMARK                            x       y       z     vdW  Elec       q    Type
REMARK                         _______ _______ _______ _____ _____    ______ ____
ROOT
ATOM      1  C   UNL     1      -5.492   4.772   0.056  0.00  0.00    +0.037 A 
ATOM      2  C   UNL     1      -4.438   5.687   0.062  0.00  0.00    +0.015 A 
ATOM      3  C   UNL     1      -4.704   7.041   0.065  0.00  0.00    +0.029 A 
ATOM      4  C   UNL     1      -6.012   7.492   0.074  0.00  0.00    +0.109 A 
ATOM      5  C   UNL     1      -7.061   6.590   0.073  0.00  0.00    +0.029 A 
ATOM      6  C   UNL     1      -6.809   5.234   0.064  0.00  0.00    +0.015 A 
ENDROOT
BRANCH   1   8
ATOM      7  N   UNL     1      -3.942   2.877   0.037  0.00  0.00    -0.275 N 
ATOM      8  C   UNL     1      -5.215   3.320   0.045  0.00  0.00    +0.249 C 
ATOM      9  O   UNL     1      -6.135   2.526   0.045  0.00  0.00    -0.270 OA
ATOM     10  H   UNL     1      -3.208   3.511   0.038  0.00  0.00    +0.156 HD
BRANCH   7  15
ATOM     11  C   UNL     1      -2.449   0.873   0.019  0.00  0.00    +0.066 A 
ATOM     12  C   UNL     1      -2.471  -0.571   0.005  0.00  0.00    +0.022 A 
ATOM     13  C   UNL     1      -3.677  -1.166   0.012  0.00  0.00    +0.048 A 
ATOM     14  S   UNL     1      -4.812   0.206   0.025  0.00  0.00    -0.081 S 
ATOM     15  C   UNL     1      -3.682   1.517   0.028  0.00  0.00    +0.084 A 
BRANCH  11  19
ATOM     16  C   UNL     1       1.144   1.653   0.001  0.00  0.00    +0.407 C 
ATOM     17  O   UNL     1       1.128   2.868   0.007  0.00  0.00    -0.226 OA
ATOM     18  N   UNL     1      -0.014   0.964   0.008  0.00  0.00    -0.217 N 
ATOM     19  C   UNL     1      -1.190   1.622   0.017  0.00  0.00    +0.255 C 
ATOM     20  O   UNL     1      -1.206   2.839   0.024  0.00  0.00    -0.270 OA
ATOM     21  H   UNL     1      -0.001  -0.006   0.003  0.00  0.00    +0.161 HD
BRANCH  16  22
ATOM     22  O   UNL     1       2.319   0.995  -0.014  0.00  0.00    -0.450 OA
BRANCH  22  24
ATOM     23  C   UNL     1       4.751   0.886  -0.038  0.00  0.00    +0.048 C 
ATOM     24  C   UNL     1       3.526   1.802  -0.021  0.00  0.00    +0.230 C 
ENDBRANCH  22  24
ENDBRANCH  16  22
ENDBRANCH  11  19
ENDBRANCH   7  15
ENDBRANCH   1   8
BRANCH   4  25
ATOM     25  S   UNL     1      -6.343   9.222   0.085  0.00  0.00    +0.075 S 
ATOM     26  O   UNL     1      -5.198   9.858  -0.467  0.00  0.00    -0.150 OA
ATOM     27  O   UNL     1      -7.644   9.391  -0.459  0.00  0.00    -0.150 OA
BRANCH  25  28
ATOM     28  N   UNL     1      -6.428   9.694   1.670  0.00  0.00    -0.203 N 
ATOM     29  C   UNL     1      -7.724   9.779   2.356  0.00  0.00    +0.132 C 
ATOM     30  C   UNL     1      -7.756  11.087   3.149  0.00  0.00    +0.025 C 
ATOM     31  C   UNL     1      -6.661  11.048   4.215  0.00  0.00    +0.038 C 
ATOM     32  C   UNL     1      -5.338  10.676   3.599  0.00  0.00    -0.025 A 
ATOM     33  C   UNL     1      -5.266  10.024   2.377  0.00  0.00    +0.054 A 
ATOM     34  C   UNL     1      -4.028   9.690   1.839  0.00  0.00    +0.025 A 
ATOM     35  C   UNL     1      -2.870  10.009   2.520  0.00  0.00    +0.002 A 
ATOM     36  C   UNL     1      -2.943  10.662   3.736  0.00  0.00    +0.000 A 
ATOM     37  C   UNL     1      -4.172  10.994   4.274  0.00  0.00    +0.005 A 
ENDBRANCH  25  28
ENDBRANCH   4  25
TORSDOF 7
