REMARK  Name = ZINC36013958
REMARK  12 active torsions:
REMARK  status: ('A' for Active; 'I' for Inactive)
REMARK    1  A    between atoms: C_1  and  C_2
REMARK    2  A    between atoms: C_2  and  N_3
REMARK    3  A    between atoms: N_10  and  C_13
REMARK    4  A    between atoms: C_13  and  C_14
REMARK    5  A    between atoms: C_15  and  C_31
REMARK    6  A    between atoms: C_16  and  C_24
REMARK    7  A    between atoms: N_21  and  C_22
REMARK    8  A    between atoms: C_22  and  C_23
REMARK    9  A    between atoms: C_28  and  C_30
REMARK   10  A    between atoms: C_31  and  O_33
REMARK   11  A    between atoms: O_33  and  C_34
REMARK   12  A    between atoms: C_34  and  C_35
REMARK                            x       y       z     vdW  Elec       q    Type
REMARK                         _______ _______ _______ _____ _____    ______ ____
ROOT
ATOM      1  C   UNL     1      -0.133  -5.931   5.690  0.00  0.00    +0.010 C 
ATOM      2  C   UNL     1       0.066  -6.763   6.735  0.00  0.00    +0.076 C 
ATOM      3  C   UNL     1       0.125  -8.251   6.450  0.00  0.00    +0.143 C 
ATOM      4  N   UNL     1      -0.041  -8.668   5.048  0.00  0.00    -0.288 N 
ATOM      5  C   UNL     1      -0.232  -7.716   4.113  0.00  0.00    +0.307 C 
ATOM      6  O   UNL     1      -0.370  -8.051   2.953  0.00  0.00    -0.252 OA
ATOM      7  N   UNL     1      -0.281  -6.415   4.422  0.00  0.00    -0.261 N 
ATOM      8  H   UNL     1      -0.012  -9.606   4.802  0.00  0.00    +0.151 HD
ENDROOT
BRANCH   3   9
ATOM      9  C   UNL     1       1.457  -8.763   6.933  0.00  0.00    -0.022 A 
ATOM     10  C   UNL     1       2.589  -8.581   6.161  0.00  0.00    +0.006 A 
ATOM     11  C   UNL     1       3.811  -9.051   6.603  0.00  0.00    +0.001 A 
ATOM     12  C   UNL     1       3.901  -9.704   7.819  0.00  0.00    +0.003 A 
ATOM     13  C   UNL     1       2.770  -9.886   8.591  0.00  0.00    -0.050 A 
ATOM     14  C   UNL     1       1.548  -9.411   8.150  0.00  0.00    +0.009 A 
ATOM     15  C   UNL     1       2.868 -10.598   9.916  0.00  0.00    +0.044 C 
ENDBRANCH   3   9
BRANCH   7  16
ATOM     16  C   UNL     1      -0.500  -5.454   3.337  0.00  0.00    +0.111 C 
ATOM     17  C   UNL     1       0.838  -5.116   2.678  0.00  0.00    +0.025 C 
ENDBRANCH   7  16
BRANCH   2  18
ATOM     18  C   UNL     1       0.214  -6.264   8.050  0.00  0.00    +0.339 C 
ATOM     19  O   UNL     1       0.040  -5.081   8.275  0.00  0.00    -0.245 OA
BRANCH  18  20
ATOM     20  O   UNL     1       0.548  -7.100   9.055  0.00  0.00    -0.462 OA
BRANCH  20  21
ATOM     21  C   UNL     1       0.681  -6.528  10.358  0.00  0.00    +0.229 C 
ATOM     22  C   UNL     1       1.061  -7.621  11.359  0.00  0.00    +0.048 C 
ENDBRANCH  20  21
ENDBRANCH  18  20
ENDBRANCH   2  18
BRANCH   1  23
ATOM     23  C   UNL     1      -0.199  -4.444   5.929  0.00  0.00    -0.026 C 
BRANCH  23  31
ATOM     24  N   UNL     1      -3.968  -3.739   9.714  0.00  0.00    -0.300 N 
ATOM     25  C   UNL     1      -4.115  -2.755   8.806  0.00  0.00    +0.302 C 
ATOM     26  O   UNL     1      -4.392  -1.628   9.170  0.00  0.00    -0.253 OA
ATOM     27  N   UNL     1      -3.955  -3.018   7.494  0.00  0.00    -0.287 N 
ATOM     28  C   UNL     1      -4.001  -1.899   6.532  0.00  0.00    +0.107 C 
ATOM     29  C   UNL     1      -2.915  -2.052   5.452  0.00  0.00    +0.000 C 
ATOM     30  C   UNL     1      -1.641  -2.562   6.088  0.00  0.00    -0.077 C 
ATOM     31  N   UNL     1      -1.604  -4.020   5.991  0.00  0.00    +0.384 N 
ATOM     32  C   UNL     1      -2.230  -4.704   7.057  0.00  0.00    -0.059 C 
ATOM     33  C   UNL     1      -3.738  -4.389   7.079  0.00  0.00    +0.091 C 
ATOM     34  H   UNL     1      -3.818  -4.652   9.420  0.00  0.00    +0.150 HD
ATOM     35  H   UNL     1      -2.053  -4.293   5.130  0.00  0.00    -0.081 HD
BRANCH  24  37
ATOM     36  C   UNL     1      -3.837  -4.717  11.952  0.00  0.00    +0.024 C 
ATOM     37  C   UNL     1      -4.034  -3.432  11.145  0.00  0.00    +0.102 C 
ENDBRANCH  24  37
ENDBRANCH  23  31
ENDBRANCH   1  23
TORSDOF 8
