REMARK  Name = ZINC15051121
REMARK  6 active torsions:
REMARK  status: ('A' for Active; 'I' for Inactive)
REMARK    1  A    between atoms: C_1  and  C_2
REMARK    2  A    between atoms: C_2  and  C_10
REMARK    3  A    between atoms: C_3  and  C_4
REMARK    4  A    between atoms: N_14  and  C_18
REMARK    5  A    between atoms: N_23  and  C_26
REMARK    6  A    between atoms: C_26  and  C_27
REMARK                            x       y       z     vdW  Elec       q    Type
REMARK                         _______ _______ _______ _____ _____    ______ ____
ROOT
ATOM      1  C   UNL     1       0.081  -0.759  -0.968  0.00  0.00    +0.023 C 
ATOM      2  C   UNL     1       0.464  -0.220  -2.161  0.00  0.00    +0.077 C 
ATOM      3  C   UNL     1       0.329  -0.764  -3.525  0.00  0.00    +0.259 C 
ATOM      4  O   UNL     1      -0.186  -1.848  -3.732  0.00  0.00    -0.269 OA
ATOM      5  N   UNL     1       0.793  -0.016  -4.512  0.00  0.00    -0.243 N 
ATOM      6  C   UNL     1       1.361   1.184  -4.278  0.00  0.00    +0.121 C 
ATOM      7  S   UNL     1       2.015   2.290  -5.409  0.00  0.00    -0.027 S 
ATOM      8  S   UNL     1       1.260   1.344  -2.502  0.00  0.00    -0.061 S 
ENDROOT
BRANCH   5   9
ATOM      9  C   UNL     1       0.688  -0.503  -5.889  0.00  0.00    +0.178 C 
ATOM     10  C   UNL     1       1.324  -1.902  -6.021  0.00  0.00    +0.128 C 
ATOM     11  C   UNL     1       0.169  -2.777  -6.456  0.00  0.00    +0.225 C 
ATOM     12  O   UNL     1       0.234  -3.967  -6.676  0.00  0.00    -0.275 OA
ATOM     13  N   UNL     1      -0.936  -2.028  -6.559  0.00  0.00    -0.230 N 
ATOM     14  C   UNL     1      -0.760  -0.731  -6.265  0.00  0.00    +0.244 C 
ATOM     15  O   UNL     1      -1.621   0.122  -6.294  0.00  0.00    -0.273 OA
BRANCH  13  16
ATOM     16  C   UNL     1      -2.232  -2.580  -6.962  0.00  0.00    +0.241 C 
BRANCH  16  17
ATOM     17  C   UNL     1      -3.032  -2.933  -5.734  0.00  0.00    +0.373 C 
ATOM     18  O   UNL     1      -2.603  -2.655  -4.627  0.00  0.00    -0.245 OA
ATOM     19  O   UNL     1      -4.107  -3.497  -5.848  0.00  0.00    -0.245 OA
ENDBRANCH  16  17
ENDBRANCH  13  16
ENDBRANCH   5   9
BRANCH   1  21
ATOM     20  C   UNL     1       1.343   1.081   0.218  0.00  0.00    +0.044 C 
ATOM     21  C   UNL     1       0.436  -0.123   0.239  0.00  0.00    -0.049 C 
ATOM     22  C   UNL     1      -0.037  -0.594   1.417  0.00  0.00    +0.011 C 
BRANCH  22  23
ATOM     23  C   UNL     1       0.185   0.167   2.655  0.00  0.00    -0.025 A 
ATOM     24  C   UNL     1       0.089   1.563   2.649  0.00  0.00    +0.008 A 
ATOM     25  C   UNL     1       0.299   2.270   3.814  0.00  0.00    +0.001 A 
ATOM     26  C   UNL     1       0.603   1.602   4.988  0.00  0.00    +0.000 A 
ATOM     27  C   UNL     1       0.699   0.221   5.002  0.00  0.00    +0.001 A 
ATOM     28  C   UNL     1       0.487  -0.501   3.847  0.00  0.00    +0.008 A 
ENDBRANCH  22  23
ENDBRANCH   1  21
TORSDOF 5
