REMARK  Name = ZINC40360784
REMARK  7 active torsions:
REMARK  status: ('A' for Active; 'I' for Inactive)
REMARK    1  A    between atoms: C_1  and  C_2
REMARK    2  A    between atoms: C_6  and  C_9
REMARK    3  A    between atoms: C_7  and  O_8
REMARK    4  A    between atoms: N_11  and  C_12
REMARK    5  A    between atoms: C_12  and  C_14
REMARK    6  A    between atoms: C_12  and  C_20
REMARK    7  A    between atoms: C_20  and  N_22
REMARK                            x       y       z     vdW  Elec       q    Type
REMARK                         _______ _______ _______ _____ _____    ______ ____
ROOT
ATOM      1  C   UNL     1      -0.095  -2.655   2.944  0.00  0.00    +0.248 C 
ATOM      2  O   UNL     1      -0.083  -2.302   4.107  0.00  0.00    -0.270 OA
ATOM      3  N   UNL     1      -0.010  -3.965   2.637  0.00  0.00    -0.302 N 
ATOM      4  H   UNL     1      -0.020  -4.247   1.709  0.00  0.00    +0.150 HD
ENDROOT
BRANCH   1  10
ATOM      5  C   UNL     1      -0.488   2.114   1.497  0.00  0.00    +0.047 C 
ATOM      6  C   UNL     1      -0.393   0.647   1.165  0.00  0.00    -0.008 A 
ATOM      7  C   UNL     1      -0.406   0.236  -0.153  0.00  0.00    +0.007 A 
ATOM      8  C   UNL     1      -0.319  -1.109  -0.468  0.00  0.00    +0.001 A 
ATOM      9  C   UNL     1      -0.217  -2.053   0.531  0.00  0.00    +0.017 A 
ATOM     10  C   UNL     1      -0.203  -1.651   1.869  0.00  0.00    +0.078 A 
ATOM     11  C   UNL     1      -0.287  -0.288   2.184  0.00  0.00    +0.132 A 
BRANCH  11  12
ATOM     12  O   UNL     1      -0.268   0.115   3.479  0.00  0.00    -0.506 OA
ATOM     13  H   UNL     1      -1.143   0.167   3.887  0.00  0.00    +0.292 HD
ENDBRANCH  11  12
ENDBRANCH   1  10
BRANCH   3  14
ATOM     14  C   UNL     1       0.097  -4.962   3.705  0.00  0.00    +0.128 C 
BRANCH  14  15
ATOM     15  C   UNL     1      -0.433  -6.307   3.202  0.00  0.00    +0.016 C 
ATOM     16  C   UNL     1       0.355  -6.734   1.962  0.00  0.00    +0.006 C 
ATOM     17  C   UNL     1      -0.175  -8.079   1.460  0.00  0.00    +0.000 C 
ATOM     18  C   UNL     1      -1.656  -7.941   1.100  0.00  0.00    +0.000 C 
ATOM     19  C   UNL     1      -2.444  -7.513   2.340  0.00  0.00    +0.000 C 
ATOM     20  C   UNL     1      -1.914  -6.169   2.843  0.00  0.00    +0.006 C 
ENDBRANCH  14  15
BRANCH  14  21
ATOM     21  C   UNL     1       1.541  -5.112   4.110  0.00  0.00    +0.067 C 
ATOM     22  S   UNL     1       2.687  -4.379   3.269  0.00  0.00    -0.039 S 
BRANCH  21  23
ATOM     23  N   UNL     1       1.867  -5.862   5.180  0.00  0.00    -0.354 N 
ATOM     24  H   UNL     1       1.181  -6.365   5.647  0.00  0.00    +0.143 HD
ATOM     25  H   UNL     1       2.787  -5.900   5.485  0.00  0.00    +0.143 HD
ENDBRANCH  21  23
ENDBRANCH  14  21
ENDBRANCH   3  14
TORSDOF 6
