REMARK  Name = ZINC10860989
REMARK  6 active torsions:
REMARK  status: ('A' for Active; 'I' for Inactive)
REMARK    1  A    between atoms: C_1  and  C_2
REMARK    2  A    between atoms: C_2  and  C_4
REMARK    3  A    between atoms: C_2  and  O_10
REMARK    4  A    between atoms: O_10  and  C_11
REMARK    5  A    between atoms: C_11  and  C_13
REMARK    6  A    between atoms: C_27  and  C_28
REMARK                            x       y       z     vdW  Elec       q    Type
REMARK                         _______ _______ _______ _____ _____    ______ ____
ROOT
ATOM      1  C   UNL     1       2.544  -1.157  -2.353  0.00  0.00    +0.073 A 
ATOM      2  C   UNL     1       3.325  -0.216  -3.156  0.00  0.00    +0.015 A 
ATOM      3  C   UNL     1       3.248   1.165  -2.946  0.00  0.00    +0.011 A 
ATOM      4  C   UNL     1       3.995   2.007  -3.717  0.00  0.00    +0.001 A 
ATOM      5  C   UNL     1       4.834   1.509  -4.711  0.00  0.00    +0.002 A 
ATOM      6  C   UNL     1       4.932   0.171  -4.942  0.00  0.00    +0.028 A 
ATOM      7  C   UNL     1       4.177  -0.729  -4.167  0.00  0.00    +0.072 A 
ATOM      8  N   UNL     1       4.251  -2.043  -4.370  0.00  0.00    -0.247 NA
ATOM      9  C   UNL     1       3.555  -2.915  -3.659  0.00  0.00    +0.072 A 
ATOM     10  C   UNL     1       2.690  -2.511  -2.626  0.00  0.00    -0.007 A 
ATOM     11  C   UNL     1       1.916  -3.504  -1.804  0.00  0.00    +0.038 C 
ATOM     12  C   UNL     1       1.753  -4.829  -2.544  0.00  0.00    +0.009 C 
ATOM     13  C   UNL     1       3.134  -5.347  -2.966  0.00  0.00    +0.037 C 
ATOM     14  C   UNL     1       3.700  -4.356  -3.964  0.00  0.00    -0.021 C 
ATOM     15  C   UNL     1       4.324  -4.771  -5.080  0.00  0.00    +0.013 C 
ENDROOT
BRANCH  15  16
ATOM     16  C   UNL     1       4.607  -6.203  -5.277  0.00  0.00    -0.025 A 
ATOM     17  C   UNL     1       4.587  -6.752  -6.562  0.00  0.00    +0.011 A 
ATOM     18  C   UNL     1       4.853  -8.092  -6.740  0.00  0.00    +0.039 A 
ATOM     19  C   UNL     1       5.139  -8.896  -5.648  0.00  0.00    +0.123 A 
ATOM     20  C   UNL     1       5.160  -8.358  -4.370  0.00  0.00    +0.039 A 
ATOM     21  C   UNL     1       4.902  -7.017  -4.180  0.00  0.00    +0.011 A 
ATOM     22  F   UNL     1       5.399 -10.210  -5.828  0.00  0.00    -0.205 F 
ENDBRANCH  15  16
BRANCH   1  23
ATOM     23  C   UNL     1       1.637  -0.684  -1.286  0.00  0.00    +0.341 C 
ATOM     24  O   UNL     1       2.052  -0.545  -0.154  0.00  0.00    -0.245 OA
BRANCH  23  25
ATOM     25  O   UNL     1       0.349  -0.408  -1.571  0.00  0.00    -0.449 OA
BRANCH  25  27
ATOM     26  C   UNL     1      -0.404   1.570  -0.405  0.00  0.00    +0.062 C 
ATOM     27  C   UNL     1      -0.470   0.044  -0.491  0.00  0.00    +0.259 C 
BRANCH  27  28
ATOM     28  C   UNL     1      -1.896  -0.384  -0.729  0.00  0.00    +0.261 C 
ATOM     29  O   UNL     1      -2.198  -0.934  -1.766  0.00  0.00    -0.271 OA
ATOM     30  N   UNL     1      -2.834  -0.155   0.211  0.00  0.00    -0.237 N 
ATOM     31  C   UNL     1      -4.109  -0.538  -0.002  0.00  0.00    +0.303 C 
ATOM     32  O   UNL     1      -4.412  -1.090  -1.042  0.00  0.00    -0.253 OA
ATOM     33  N   UNL     1      -5.047  -0.309   0.938  0.00  0.00    -0.313 N 
ATOM     34  H   UNL     1      -2.592   0.285   1.040  0.00  0.00    +0.159 HD
ATOM     35  H   UNL     1      -4.805   0.131   1.768  0.00  0.00    +0.146 HD
ATOM     36  H   UNL     1      -5.964  -0.585   0.785  0.00  0.00    +0.146 HD
ENDBRANCH  27  28
ENDBRANCH  25  27
ENDBRANCH  23  25
ENDBRANCH   1  23
TORSDOF 5
