REMARK  Name = ZINC00058549
REMARK  5 active torsions:
REMARK  status: ('A' for Active; 'I' for Inactive)
REMARK    1  A    between atoms: C_4  and  C_7
REMARK    2  A    between atoms: C_8  and  C_17
REMARK    3  A    between atoms: C_9  and  N_16
REMARK    4  A    between atoms: C_11  and  N_15
REMARK    5  A    between atoms: C_12  and  C_13
REMARK                            x       y       z     vdW  Elec       q    Type
REMARK                         _______ _______ _______ _____ _____    ______ ____
ROOT
ATOM      1  C   UNL     1      -0.013   1.086   0.008  0.00  0.00    +0.104 C 
ATOM      2  C   UNL     1      -0.671   1.547   1.263  0.00  0.00    +0.069 C 
ATOM      3  C   UNL     1      -1.445   2.636   1.385  0.00  0.00    +0.079 C 
ATOM      4  S   UNL     1      -1.824   3.699   0.041  0.00  0.00    -0.058 S 
ATOM      5  C   UNL     1      -1.474   2.651  -1.322  0.00  0.00    +0.079 C 
ATOM      6  C   UNL     1      -0.694   1.560  -1.229  0.00  0.00    +0.069 C 
ENDROOT
BRANCH   1  10
ATOM      7  C   UNL     1       4.016   2.504  -0.024  0.00  0.00    +0.000 A 
ATOM      8  C   UNL     1       3.762   1.145  -0.028  0.00  0.00    +0.000 A 
ATOM      9  C   UNL     1       2.458   0.686  -0.018  0.00  0.00    +0.004 A 
ATOM     10  C   UNL     1       1.409   1.586  -0.003  0.00  0.00    -0.034 A 
ATOM     11  C   UNL     1       1.663   2.945  -0.004  0.00  0.00    +0.004 A 
ATOM     12  C   UNL     1       2.967   3.404  -0.009  0.00  0.00    +0.000 A 
ENDBRANCH   1  10
BRANCH   5  13
ATOM     13  N   UNL     1      -2.024   2.960  -2.543  0.00  0.00    -0.352 N 
ATOM     14  H   UNL     1      -1.821   2.321  -3.415  0.00  0.00    +0.143 HD
ATOM     15  H   UNL     1      -2.666   3.847  -2.648  0.00  0.00    +0.143 HD
ENDBRANCH   5  13
BRANCH   3  16
ATOM     16  N   UNL     1      -1.969   2.932   2.621  0.00  0.00    -0.352 N 
ATOM     17  H   UNL     1      -2.607   3.819   2.750  0.00  0.00    +0.143 HD
ATOM     18  H   UNL     1      -1.750   2.282   3.481  0.00  0.00    +0.143 HD
ENDBRANCH   3  16
BRANCH   6  19
ATOM     19  C   UNL     1      -0.503   0.788  -2.420  0.00  0.00    +0.098 C 
ATOM     20  N   UNL     1      -0.352   0.175  -3.364  0.00  0.00    -0.191 NA
ENDBRANCH   6  19
BRANCH   2  21
ATOM     21  C   UNL     1      -0.457   0.762   2.441  0.00  0.00    +0.098 C 
ATOM     22  N   UNL     1      -0.288   0.139   3.376  0.00  0.00    -0.191 NA
ENDBRANCH   2  21
TORSDOF 5
