REMARK  Name = ZINC40530357
REMARK  9 active torsions:
REMARK  status: ('A' for Active; 'I' for Inactive)
REMARK    1  A    between atoms: C_1  and  C_2
REMARK    2  A    between atoms: C_2  and  O_3
REMARK    3  A    between atoms: O_3  and  C_4
REMARK    4  A    between atoms: C_9  and  C_10
REMARK    5  A    between atoms: C_15  and  O_24
REMARK    6  A    between atoms: C_19  and  N_23
REMARK    7  A    between atoms: C_20  and  C_21
REMARK    8  A    between atoms: O_24  and  C_25
REMARK    9  A    between atoms: C_25  and  C_27
REMARK                            x       y       z     vdW  Elec       q    Type
REMARK                         _______ _______ _______ _____ _____    ______ ____
ROOT
ATOM      1  C   UNL     1       1.931  -1.393  -3.462  0.00  0.00    +0.101 C 
ATOM      2  C   UNL     1       1.282  -1.650  -4.796  0.00  0.00    +0.008 A 
ATOM      3  C   UNL     1      -0.030  -1.258  -5.001  0.00  0.00    +0.012 A 
ATOM      4  C   UNL     1      -0.642  -1.485  -6.218  0.00  0.00    +0.047 A 
ATOM      5  C   UNL     1       0.059  -2.109  -7.241  0.00  0.00    +0.135 A 
ATOM      6  C   UNL     1       1.372  -2.502  -7.039  0.00  0.00    +0.093 A 
ATOM      7  C   UNL     1       1.986  -2.273  -5.814  0.00  0.00    +0.138 A 
ATOM      8  O   UNL     1       3.271  -2.665  -5.632  0.00  0.00    -0.441 OA
ATOM      9  C   UNL     1       4.000  -2.130  -4.639  0.00  0.00    +0.199 C 
ATOM     10  C   UNL     1       3.425  -1.514  -3.583  0.00  0.00    +0.098 C 
ENDROOT
BRANCH   1  16
ATOM     11  C   UNL     1       0.759  -1.972  -1.323  0.00  0.00    +0.125 A 
ATOM     12  C   UNL     1       0.293  -2.902  -0.404  0.00  0.00    +0.046 A 
ATOM     13  C   UNL     1       0.501  -4.250  -0.622  0.00  0.00    +0.004 A 
ATOM     14  C   UNL     1       1.173  -4.673  -1.754  0.00  0.00    +0.001 A 
ATOM     15  C   UNL     1       1.639  -3.749  -2.670  0.00  0.00    +0.008 A 
ATOM     16  C   UNL     1       1.429  -2.400  -2.460  0.00  0.00    +0.007 A 
BRANCH  11  17
ATOM     17  O   UNL     1       0.555  -0.645  -1.111  0.00  0.00    -0.492 OA
BRANCH  17  19
ATOM     18  C   UNL     1      -0.275   1.245   0.145  0.00  0.00    +0.048 C 
ATOM     19  C   UNL     1      -0.142  -0.278   0.081  0.00  0.00    +0.225 C 
ENDBRANCH  17  19
ENDBRANCH  11  17
ENDBRANCH   1  16
BRANCH   9  20
ATOM     20  N   UNL     1       5.369  -2.212  -4.699  0.00  0.00    -0.328 N 
ATOM     21  H   UNL     1       5.796  -2.652  -5.450  0.00  0.00    +0.145 HD
ATOM     22  H   UNL     1       5.910  -1.831  -3.989  0.00  0.00    +0.145 HD
ENDBRANCH   9  20
BRANCH  10  23
ATOM     23  C   UNL     1       4.258  -0.965  -2.557  0.00  0.00    +0.101 C 
ATOM     24  N   UNL     1       4.920  -0.530  -1.742  0.00  0.00    -0.191 NA
ENDBRANCH  10  23
BRANCH   5  25
ATOM     25  O   UNL     1      -0.542  -2.333  -8.439  0.00  0.00    -0.422 OA
BRANCH  25  26
ATOM     26  C   UNL     1      -0.823  -1.267  -9.216  0.00  0.00    +0.353 C 
ATOM     27  O   UNL     1      -0.445  -0.159  -8.888  0.00  0.00    -0.244 OA
BRANCH  26  28
ATOM     28  C   UNL     1      -1.582  -1.445 -10.458  0.00  0.00    +0.116 A 
ATOM     29  C   UNL     1      -1.954  -0.502 -11.367  0.00  0.00    +0.070 A 
ATOM     30  C   UNL     1      -2.689  -0.879 -12.507  0.00  0.00    +0.008 A 
ATOM     31  C   UNL     1      -3.164  -0.053 -13.558  0.00  0.00    +0.010 A 
ATOM     32  C   UNL     1      -3.865  -0.582 -14.594  0.00  0.00    +0.001 A 
ATOM     33  C   UNL     1      -4.142  -1.942 -14.668  0.00  0.00    +0.001 A 
ATOM     34  C   UNL     1      -3.698  -2.781 -13.667  0.00  0.00    +0.016 A 
ATOM     35  C   UNL     1      -2.985  -2.259 -12.608  0.00  0.00    +0.022 A 
ATOM     36  S   UNL     1      -2.240  -2.951 -11.153  0.00  0.00    -0.080 S 
ATOM     37 CL   UNL     1      -1.524   1.162 -11.121  0.00  0.00    -0.082 Cl
ENDBRANCH  26  28
ENDBRANCH  25  26
ENDBRANCH   5  25
TORSDOF 8
