REMARK  Name = ZINC06498581
REMARK  9 active torsions:
REMARK  status: ('A' for Active; 'I' for Inactive)
REMARK    1  A    between atoms: C_1  and  C_2
REMARK    2  A    between atoms: C_2  and  C_3
REMARK    3  A    between atoms: C_12  and  N_19
REMARK    4  A    between atoms: C_13  and  C_14
REMARK    5  A    between atoms: C_14  and  O_16
REMARK    6  A    between atoms: O_16  and  C_17
REMARK    7  A    between atoms: C_17  and  C_18
REMARK    8  A    between atoms: C_20  and  C_22
REMARK    9  A    between atoms: C_22  and  N_23
REMARK                            x       y       z     vdW  Elec       q    Type
REMARK                         _______ _______ _______ _____ _____    ______ ____
ROOT
ATOM      1  C   UNL     1       0.742  -0.563   1.194  0.00  0.00    +0.059 C 
ATOM      2  N   UNL     1       1.176   0.366   1.964  0.00  0.00    -0.249 NA
ATOM      3  C   UNL     1       1.869   0.220   3.130  0.00  0.00    +0.085 A 
ATOM      4  C   UNL     1       2.928   1.088   3.405  0.00  0.00    +0.029 A 
ATOM      5  C   UNL     1       3.618   0.986   4.597  0.00  0.00    +0.002 A 
ATOM      6  C   UNL     1       3.264   0.027   5.526  0.00  0.00    +0.002 A 
ATOM      7  C   UNL     1       2.227  -0.851   5.259  0.00  0.00    +0.025 A 
ATOM      8  C   UNL     1       1.540  -0.771   4.060  0.00  0.00    +0.058 A 
ATOM      9  N   UNL     1       0.553  -1.730   3.768  0.00  0.00    -0.300 N 
ATOM     10  C   UNL     1       0.734  -2.547   2.687  0.00  0.00    +0.110 C 
ATOM     11  C   UNL     1       0.873  -1.994   1.417  0.00  0.00    +0.116 C 
ATOM     12  H   UNL     1      -0.239  -1.810   4.323  0.00  0.00    +0.153 HD
ENDROOT
BRANCH  10  13
ATOM     13  N   UNL     1       0.774  -3.905   2.853  0.00  0.00    -0.271 N 
ATOM     14  C   UNL     1       0.761  -4.433   4.093  0.00  0.00    +0.238 C 
ATOM     15  O   UNL     1       0.714  -3.705   5.061  0.00  0.00    -0.273 OA
ATOM     16  H   UNL     1       0.812  -4.487   2.078  0.00  0.00    +0.156 HD
BRANCH  14  17
ATOM     17  C   UNL     1       0.805  -5.928   4.276  0.00  0.00    +0.222 C 
BRANCH  17  18
ATOM     18  N   UNL     1       0.781  -6.246   5.706  0.00  0.00    -0.290 N 
ATOM     19  C   UNL     1       1.949  -6.349   6.392  0.00  0.00    +0.203 A 
ATOM     20  N   UNL     1       2.010  -6.628   7.659  0.00  0.00    -0.237 NA
ATOM     21  C   UNL     1       0.891  -6.839   8.396  0.00  0.00    +0.078 A 
ATOM     22  C   UNL     1       0.956  -7.138   9.758  0.00  0.00    +0.028 A 
ATOM     23  C   UNL     1      -0.205  -7.345  10.467  0.00  0.00    +0.002 A 
ATOM     24  C   UNL     1      -1.444  -7.259   9.845  0.00  0.00    +0.001 A 
ATOM     25  C   UNL     1      -1.534  -6.965   8.502  0.00  0.00    +0.015 A 
ATOM     26  C   UNL     1      -0.370  -6.753   7.766  0.00  0.00    +0.065 A 
ATOM     27  C   UNL     1      -0.405  -6.430   6.332  0.00  0.00    +0.262 A 
ATOM     28  O   UNL     1      -1.459  -6.336   5.730  0.00  0.00    -0.267 OA
ENDBRANCH  17  18
ENDBRANCH  14  17
ENDBRANCH  10  13
BRANCH   1  30
ATOM     29  C   UNL     1      -0.017   1.397  -0.122  0.00  0.00    +0.010 C 
ATOM     30  C   UNL     1       0.022  -0.131  -0.058  0.00  0.00    +0.053 C 
ENDBRANCH   1  30
BRANCH  11  31
ATOM     31  C   UNL     1       1.153  -2.845   0.322  0.00  0.00    +0.344 C 
ATOM     32  O   UNL     1       1.163  -4.053   0.476  0.00  0.00    -0.245 OA
BRANCH  31  33
ATOM     33  O   UNL     1       1.411  -2.318  -0.894  0.00  0.00    -0.461 OA
BRANCH  33  34
ATOM     34  C   UNL     1       1.685  -3.236  -1.954  0.00  0.00    +0.229 C 
ATOM     35  C   UNL     1       1.951  -2.459  -3.245  0.00  0.00    +0.048 C 
ENDBRANCH  33  34
ENDBRANCH  31  33
ENDBRANCH  11  31
TORSDOF 7
