REMARK  Name = ZINC25776887
REMARK  9 active torsions:
REMARK  status: ('A' for Active; 'I' for Inactive)
REMARK    1  A    between atoms: C_1  and  C_2
REMARK    2  A    between atoms: C_2  and  C_4
REMARK    3  A    between atoms: C_2  and  O_33
REMARK    4  A    between atoms: C_4  and  N_5
REMARK    5  A    between atoms: N_14  and  C_15
REMARK    6  A    between atoms: C_15  and  N_16
REMARK    7  A    between atoms: N_19  and  S_22
REMARK    8  A    between atoms: S_22  and  C_25
REMARK    9  A    between atoms: C_26  and  C_27
REMARK                            x       y       z     vdW  Elec       q    Type
REMARK                         _______ _______ _______ _____ _____    ______ ____
ROOT
ATOM      1  C   UNL     1       2.361   0.336  -5.192  0.00  0.00    +0.212 C 
ENDROOT
BRANCH   1  11
ATOM      2  N   UNL     1       2.274  -1.986  -7.132  0.00  0.00    -0.314 N 
ATOM      3  C   UNL     1       1.401  -0.918  -7.164  0.00  0.00    +0.175 A 
ATOM      4  N   UNL     1       0.426  -0.769  -8.025  0.00  0.00    -0.327 N 
ATOM      5  C   UNL     1      -0.231   0.394  -7.774  0.00  0.00    +0.066 A 
ATOM      6  C   UNL     1      -1.320   1.030  -8.375  0.00  0.00    +0.028 A 
ATOM      7  C   UNL     1      -1.767   2.234  -7.879  0.00  0.00    +0.002 A 
ATOM      8  C   UNL     1      -1.145   2.820  -6.787  0.00  0.00    +0.002 A 
ATOM      9  C   UNL     1      -0.069   2.204  -6.182  0.00  0.00    +0.028 A 
ATOM     10  C   UNL     1       0.395   0.991  -6.668  0.00  0.00    +0.069 A 
ATOM     11  N   UNL     1       1.422   0.138  -6.299  0.00  0.00    -0.300 N 
ATOM     12  H   UNL     1       3.063  -2.028  -6.367  0.00  0.00    +0.149 HD
ATOM     13  H   UNL     1       0.252  -1.534  -8.797  0.00  0.00    +0.169 HD
BRANCH   2  14
ATOM     14  C   UNL     1       2.150  -3.063  -8.117  0.00  0.00    +0.135 C 
BRANCH  14  16
ATOM     15  C   UNL     1       3.182  -5.175  -8.964  0.00  0.00    +0.039 C 
ATOM     16  C   UNL     1       3.232  -4.114  -7.862  0.00  0.00    +0.128 C 
BRANCH  16  17
ATOM     17  O   UNL     1       3.005  -4.733  -6.594  0.00  0.00    -0.391 OA
ATOM     18  H   UNL     1       3.003  -4.125  -5.678  0.00  0.00    +0.210 HD
ENDBRANCH  16  17
ENDBRANCH  14  16
ENDBRANCH   2  14
ENDBRANCH   1  11
BRANCH   1  19
ATOM     19  N   UNL     1       1.812  -0.269  -3.971  0.00  0.00    -0.282 NA
ATOM     20  C   UNL     1       2.605   0.110  -2.794  0.00  0.00    +0.103 C 
ATOM     21  C   UNL     1       2.114  -0.680  -1.576  0.00  0.00    +0.125 C 
ATOM     22  N   UNL     1       0.663  -0.477  -1.441  0.00  0.00    -0.175 NA
ATOM     23  C   UNL     1      -0.185  -0.711  -2.619  0.00  0.00    +0.125 C 
ATOM     24  C   UNL     1       0.397   0.086  -3.798  0.00  0.00    +0.103 C 
BRANCH  22  25
ATOM     25  S   UNL     1       0.002  -0.004   0.002  0.00  0.00    +0.054 S 
ATOM     26  O   UNL     1       0.913  -0.404   1.017  0.00  0.00    -0.153 OA
ATOM     27  O   UNL     1      -1.354  -0.428  -0.014  0.00  0.00    -0.153 OA
BRANCH  25  28
ATOM     28  C   UNL     1      -0.022   1.758   0.012  0.00  0.00    +0.153 C 
ATOM     29  C   UNL     1      -1.179   2.405   0.021  0.00  0.00    +0.028 C 
BRANCH  29  30
ATOM     30  C   UNL     1      -1.199   3.883   0.029  0.00  0.00    -0.024 A 
ATOM     31  C   UNL     1      -0.002   4.600   0.033  0.00  0.00    +0.008 A 
ATOM     32  C   UNL     1      -0.027   5.979   0.035  0.00  0.00    +0.001 A 
ATOM     33  C   UNL     1      -1.236   6.652   0.044  0.00  0.00    +0.000 A 
ATOM     34  C   UNL     1      -2.427   5.947   0.046  0.00  0.00    +0.001 A 
ATOM     35  C   UNL     1      -2.415   4.567   0.038  0.00  0.00    +0.008 A 
ENDBRANCH  29  30
ENDBRANCH  25  28
ENDBRANCH  22  25
ENDBRANCH   1  19
TORSDOF 8
