REMARK  Name = ZINC20941487
REMARK  10 active torsions:
REMARK  status: ('A' for Active; 'I' for Inactive)
REMARK    1  A    between atoms: C_1  and  C_2
REMARK    2  A    between atoms: C_2  and  C_3
REMARK    3  A    between atoms: C_2  and  C_4
REMARK    4  A    between atoms: C_4  and  N_5
REMARK    5  A    between atoms: C_7  and  N_16
REMARK    6  A    between atoms: N_19  and  C_20
REMARK    7  A    between atoms: C_20  and  C_21
REMARK    8  A    between atoms: C_21  and  C_22
REMARK    9  A    between atoms: C_22  and  N_23
REMARK   10  A    between atoms: C_26  and  N_29
REMARK                            x       y       z     vdW  Elec       q    Type
REMARK                         _______ _______ _______ _____ _____    ______ ____
ROOT
ATOM      1  N   UNL     1       1.178  -0.662  -0.013  0.00  0.00    -0.268 N 
ATOM      2  C   UNL     1       0.009  -0.018  -0.195  0.00  0.00    +0.304 C 
ATOM      3  O   UNL     1      -1.015  -0.652  -0.367  0.00  0.00    -0.253 OA
ATOM      4  N   UNL     1      -0.027   1.329  -0.186  0.00  0.00    -0.299 N 
ATOM      5  H   UNL     1       2.115  -0.091   0.059  0.00  0.00    +0.156 HD
ATOM      6  H   UNL     1       0.897   1.903  -0.026  0.00  0.00    +0.150 HD
ENDROOT
BRANCH   1   9
ATOM      7  N   UNL     1       1.961  -4.162  -0.736  0.00  0.00    -0.313 N 
ATOM      8  C   UNL     1       1.912  -2.795  -0.795  0.00  0.00    +0.113 A 
ATOM      9  C   UNL     1       1.201  -2.062   0.086  0.00  0.00    +0.059 A 
ATOM     10  C   UNL     1       0.455  -2.742   1.150  0.00  0.00    +0.010 A 
ATOM     11  C   UNL     1      -0.303  -2.039   2.086  0.00  0.00    +0.010 A 
ATOM     12  C   UNL     1      -0.983  -2.724   3.054  0.00  0.00    +0.001 A 
ATOM     13  C   UNL     1      -0.933  -4.111   3.114  0.00  0.00    +0.001 A 
ATOM     14  C   UNL     1      -0.202  -4.827   2.206  0.00  0.00    +0.014 A 
ATOM     15  C   UNL     1       0.502  -4.154   1.207  0.00  0.00    +0.048 A 
ATOM     16  C   UNL     1       1.303  -4.866   0.206  0.00  0.00    +0.259 A 
ATOM     17  O   UNL     1       1.372  -6.082   0.225  0.00  0.00    -0.267 OA
BRANCH   7  18
ATOM     18  C   UNL     1       2.758  -4.884  -1.730  0.00  0.00    +0.128 C 
BRANCH  18  20
ATOM     19  C   UNL     1       4.175  -5.955   0.027  0.00  0.00    +0.009 C 
ATOM     20  C   UNL     1       4.187  -5.056  -1.212  0.00  0.00    +0.003 C 
ATOM     21  C   UNL     1       5.050  -5.699  -2.299  0.00  0.00    +0.009 C 
ENDBRANCH  18  20
ENDBRANCH   7  18
ENDBRANCH   1   9
BRANCH   4  22
ATOM     22  C   UNL     1      -1.298   2.030  -0.391  0.00  0.00    +0.107 C 
BRANCH  22  23
ATOM     23  C   UNL     1      -1.062   3.541  -0.335  0.00  0.00    +0.034 C 
BRANCH  23  24
ATOM     24  C   UNL     1      -2.389   4.272  -0.548  0.00  0.00    +0.086 C 
BRANCH  24  25
ATOM     25  N   UNL     1      -2.163   5.722  -0.495  0.00  0.00    -0.302 NA
ATOM     26  C   UNL     1      -1.739   6.140   0.848  0.00  0.00    +0.083 C 
ATOM     27  C   UNL     1      -1.373   7.626   0.830  0.00  0.00    +0.000 C 
ATOM     28  C   UNL     1      -2.590   8.441   0.381  0.00  0.00    -0.066 C 
ATOM     29  C   UNL     1      -3.040   7.953  -0.999  0.00  0.00    +0.000 C 
ATOM     30  C   UNL     1      -3.358   6.458  -0.927  0.00  0.00    +0.083 C 
BRANCH  28  31
ATOM     31  N   UNL     1      -2.228   9.862   0.306  0.00  0.00    +0.382 N 
ATOM     32  C   UNL     1      -1.121  10.074  -0.635  0.00  0.00    -0.078 C 
ATOM     33  C   UNL     1      -0.868  11.575  -0.798  0.00  0.00    -0.019 C 
ATOM     34  C   UNL     1      -0.526  12.181   0.566  0.00  0.00    -0.004 C 
ATOM     35  C   UNL     1      -1.675  11.904   1.540  0.00  0.00    -0.019 C 
ATOM     36  C   UNL     1      -1.904  10.394   1.635  0.00  0.00    -0.078 C 
ATOM     37  H   UNL     1      -3.100  10.415  -0.073  0.00  0.00    -0.081 HD
ENDBRANCH  28  31
ENDBRANCH  24  25
ENDBRANCH  23  24
ENDBRANCH  22  23
ENDBRANCH   4  22
TORSDOF 8
