REMARK  Name = ZINC10041916
REMARK  9 active torsions:
REMARK  status: ('A' for Active; 'I' for Inactive)
REMARK    1  A    between atoms: C_1  and  C_2
REMARK    2  A    between atoms: C_2  and  C_3
REMARK    3  A    between atoms: C_2  and  C_4
REMARK    4  A    between atoms: C_4  and  C_6
REMARK    5  A    between atoms: C_4  and  N_19
REMARK    6  A    between atoms: N_8  and  N_9
REMARK    7  A    between atoms: C_10  and  C_11
REMARK    8  A    between atoms: C_14  and  O_18
REMARK    9  A    between atoms: C_20  and  C_22
REMARK                            x       y       z     vdW  Elec       q    Type
REMARK                         _______ _______ _______ _____ _____    ______ ____
ROOT
ATOM      1  C   UNL     1      -3.906   6.157  -0.043  0.00  0.00    +0.163 C 
ENDROOT
BRANCH   1   2
ATOM      2  C   UNL     1      -2.611   5.403   0.119  0.00  0.00    +0.253 C 
ATOM      3  O   UNL     1      -1.586   5.851  -0.349  0.00  0.00    -0.272 OA
ATOM      4  N   UNL     1      -2.593   4.231   0.784  0.00  0.00    -0.205 N 
ATOM      5  H   UNL     1      -3.398   3.905   1.216  0.00  0.00    +0.177 HD
BRANCH   4   6
ATOM      6  N   UNL     1      -1.411   3.482   0.851  0.00  0.00    -0.188 NA
ATOM      7  C   UNL     1      -1.393   2.353   1.491  0.00  0.00    +0.138 C 
BRANCH   7   8
ATOM      8  C   UNL     1      -0.149   1.565   1.561  0.00  0.00    -0.004 A 
ATOM      9  C   UNL     1       1.010   2.028   0.934  0.00  0.00    +0.013 A 
ATOM     10  C   UNL     1       2.170   1.286   0.998  0.00  0.00    +0.047 A 
ATOM     11  C   UNL     1       2.187   0.078   1.683  0.00  0.00    +0.131 A 
ATOM     12  C   UNL     1       1.036  -0.387   2.308  0.00  0.00    +0.060 A 
ATOM     13  C   UNL     1      -0.128   0.349   2.249  0.00  0.00    +0.028 A 
ATOM     14 BR   UNL     1       1.067  -2.033   3.239  0.00  0.00    -0.047 Br
BRANCH  11  15
ATOM     15  O   UNL     1       3.332  -0.651   1.742  0.00  0.00    -0.506 OA
ATOM     16  H   UNL     1       3.433  -1.285   1.019  0.00  0.00    +0.292 HD
ENDBRANCH  11  15
ENDBRANCH   7   8
ENDBRANCH   4   6
ENDBRANCH   1   2
BRANCH   1  17
ATOM     17  N   UNL     1      -3.625   7.589  -0.165  0.00  0.00    -0.300 N 
ATOM     18  C   UNL     1      -4.564   8.492   0.179  0.00  0.00    +0.245 C 
ATOM     19  O   UNL     1      -5.645   8.118   0.590  0.00  0.00    -0.270 OA
ATOM     20  H   UNL     1      -2.762   7.888  -0.494  0.00  0.00    +0.150 HD
BRANCH  18  21
ATOM     21  C   UNL     1      -4.281   9.938   0.056  0.00  0.00    +0.038 A 
ATOM     22  C   UNL     1      -3.038  10.370  -0.411  0.00  0.00    +0.014 A 
ATOM     23  C   UNL     1      -2.780  11.720  -0.529  0.00  0.00    +0.022 A 
ATOM     24  C   UNL     1      -3.747  12.646  -0.175  0.00  0.00    +0.059 A 
ATOM     25  C   UNL     1      -4.981  12.223   0.294  0.00  0.00    +0.060 A 
ATOM     26  C   UNL     1      -5.252  10.875   0.411  0.00  0.00    +0.034 A 
ATOM     27 CL   UNL     1      -6.187  13.391   0.735  0.00  0.00    -0.082 Cl
ATOM     28 CL   UNL     1      -3.413  14.344  -0.320  0.00  0.00    -0.082 Cl
ENDBRANCH  18  21
ENDBRANCH   1  17
BRANCH   1  30
ATOM     29  C   UNL     1      -4.965   4.185  -1.153  0.00  0.00    +0.009 C 
ATOM     30  C   UNL     1      -4.626   5.669  -1.302  0.00  0.00    +0.012 C 
ATOM     31  C   UNL     1      -5.915   6.470  -1.495  0.00  0.00    +0.009 C 
ENDBRANCH   1  30
TORSDOF 7
