REMARK  Name = ZINC36555804
REMARK  11 active torsions:
REMARK  status: ('A' for Active; 'I' for Inactive)
REMARK    1  A    between atoms: C_1  and  C_2
REMARK    2  A    between atoms: C_5  and  C_7
REMARK    3  A    between atoms: C_7  and  N_8
REMARK    4  A    between atoms: N_8  and  C_9
REMARK    5  A    between atoms: C_9  and  C_11
REMARK    6  A    between atoms: C_9  and  C_20
REMARK    7  A    between atoms: C_12  and  O_19
REMARK    8  A    between atoms: C_14  and  O_18
REMARK    9  A    between atoms: C_16  and  O_17
REMARK   10  A    between atoms: N_22  and  C_23
REMARK   11  A    between atoms: C_29  and  C_31
REMARK                            x       y       z     vdW  Elec       q    Type
REMARK                         _______ _______ _______ _____ _____    ______ ____
ROOT
ATOM      1  C   UNL     1       3.241  -3.436  -2.636  0.00  0.00    +0.200 C 
ENDROOT
BRANCH   1   2
ATOM      2  C   UNL     1       3.183  -2.031  -3.176  0.00  0.00    +0.065 A 
ATOM      3  C   UNL     1       2.763  -0.991  -2.360  0.00  0.00    +0.129 A 
ATOM      4  C   UNL     1       2.709   0.302  -2.857  0.00  0.00    +0.091 A 
ATOM      5  C   UNL     1       3.075   0.556  -4.171  0.00  0.00    +0.124 A 
ATOM      6  C   UNL     1       3.495  -0.483  -4.987  0.00  0.00    +0.091 A 
ATOM      7  C   UNL     1       3.554  -1.776  -4.488  0.00  0.00    +0.129 A 
BRANCH   7   8
ATOM      8  O   UNL     1       3.970  -2.794  -5.286  0.00  0.00    -0.506 OA
ATOM      9  H   UNL     1       3.258  -3.224  -5.779  0.00  0.00    +0.292 HD
ENDBRANCH   7   8
BRANCH   5  10
ATOM     10  O   UNL     1       3.021   1.823  -4.658  0.00  0.00    -0.507 OA
ATOM     11  H   UNL     1       3.839   2.325  -4.541  0.00  0.00    +0.292 HD
ENDBRANCH   5  10
BRANCH   3  12
ATOM     12  O   UNL     1       2.404  -1.240  -1.073  0.00  0.00    -0.506 OA
ATOM     13  H   UNL     1       3.115  -1.101  -0.433  0.00  0.00    +0.292 HD
ENDBRANCH   3  12
ENDBRANCH   1   2
BRANCH   1  14
ATOM     14  C   UNL     1       4.162  -3.478  -1.444  0.00  0.00    +0.239 C 
ATOM     15  O   UNL     1       3.739  -3.828  -0.362  0.00  0.00    -0.273 OA
ATOM     16  N   UNL     1       5.457  -3.127  -1.579  0.00  0.00    -0.311 N 
ATOM     17  H   UNL     1       5.795  -2.847  -2.444  0.00  0.00    +0.149 HD
BRANCH  16  18
ATOM     18  C   UNL     1       6.352  -3.167  -0.420  0.00  0.00    +0.073 C 
ATOM     19  C   UNL     1       6.231  -1.859   0.363  0.00  0.00    +0.022 C 
ATOM     20  C   UNL     1       7.166  -1.901   1.574  0.00  0.00    +0.002 C 
ATOM     21  C   UNL     1       8.609  -2.079   1.098  0.00  0.00    +0.000 C 
ATOM     22  C   UNL     1       8.730  -3.387   0.314  0.00  0.00    +0.002 C 
ATOM     23  C   UNL     1       7.795  -3.345  -0.896  0.00  0.00    +0.022 C 
ENDBRANCH  16  18
ENDBRANCH   1  14
BRANCH   1  24
ATOM     24  N   UNL     1       1.899  -3.861  -2.231  0.00  0.00    -0.278 N 
ATOM     25  C   UNL     1       1.717  -5.069  -1.664  0.00  0.00    +0.220 C 
ATOM     26  O   UNL     1       2.675  -5.742  -1.350  0.00  0.00    -0.275 OA
BRANCH  25  27
ATOM     27  C   UNL     1       0.322  -5.585  -1.420  0.00  0.00    +0.075 C 
ATOM     28  C   UNL     1      -0.277  -4.878  -0.202  0.00  0.00    +0.013 C 
ATOM     29  C   UNL     1      -1.694  -5.401   0.046  0.00  0.00    +0.001 C 
ATOM     30  C   UNL     1      -1.643  -6.909   0.304  0.00  0.00    +0.000 C 
ATOM     31  C   UNL     1      -1.044  -7.615  -0.914  0.00  0.00    +0.001 C 
ATOM     32  C   UNL     1       0.373  -7.092  -1.161  0.00  0.00    +0.013 C 
ENDBRANCH  25  27
BRANCH  24  33
ATOM     33  C   UNL     1       0.755  -2.971  -2.443  0.00  0.00    +0.183 C 
BRANCH  33  38
ATOM     34  C   UNL     1      -0.529  -3.314  -7.309  0.00  0.00    +0.086 C 
ATOM     35  C   UNL     1      -0.529  -3.525  -5.816  0.00  0.00    +0.102 A 
ATOM     36  C   UNL     1      -1.383  -4.306  -5.132  0.00  0.00    +0.045 A 
ATOM     37  C   UNL     1      -1.023  -4.210  -3.768  0.00  0.00    +0.046 A 
ATOM     38  C   UNL     1       0.030  -3.376  -3.701  0.00  0.00    +0.122 A 
ATOM     39  O   UNL     1       0.328  -2.968  -4.945  0.00  0.00    -0.463 OA
ENDBRANCH  33  38
ENDBRANCH  24  33
ENDBRANCH   1  24
TORSDOF 10
