REMARK  Name = ZINC08725957
REMARK  8 active torsions:
REMARK  status: ('A' for Active; 'I' for Inactive)
REMARK    1  A    between atoms: C_1  and  C_2
REMARK    2  A    between atoms: C_7  and  N_8
REMARK    3  A    between atoms: C_11  and  C_16
REMARK    4  A    between atoms: C_16  and  S_17
REMARK    5  A    between atoms: S_17  and  C_18
REMARK    6  A    between atoms: C_21  and  C_29
REMARK    7  A    between atoms: N_22  and  C_23
REMARK    8  A    between atoms: C_29  and  N_30
REMARK                            x       y       z     vdW  Elec       q    Type
REMARK                         _______ _______ _______ _____ _____    ______ ____
ROOT
ATOM      1  C   UNL     1      -0.014   0.922   7.040  0.00  0.00    +0.153 C 
ENDROOT
BRANCH   1   5
ATOM      2  N   UNL     1       0.374   1.870   2.353  0.00  0.00    -0.283 N 
ATOM      3  C   UNL     1       0.374   0.946   3.380  0.00  0.00    +0.224 A 
ATOM      4  N   UNL     1       0.192   1.347   4.636  0.00  0.00    -0.198 NA
ATOM      5  C   UNL     1       0.192   0.464   5.620  0.00  0.00    +0.146 A 
ATOM      6  N   UNL     1       0.373  -0.819   5.360  0.00  0.00    -0.199 NA
ATOM      7  C   UNL     1       0.555  -1.228   4.106  0.00  0.00    +0.217 A 
ATOM      8  N   UNL     1       0.550  -0.344   3.115  0.00  0.00    -0.181 NA
ATOM      9  N   UNL     1       0.744  -2.568   3.837  0.00  0.00    -0.327 N 
ATOM     10  H   UNL     1       0.155   2.797   2.534  0.00  0.00    +0.155 HD
ATOM     11  H   UNL     1       0.743  -3.213   4.561  0.00  0.00    +0.145 HD
ATOM     12  H   UNL     1       0.876  -2.864   2.923  0.00  0.00    +0.145 HD
BRANCH   2  19
ATOM     13  C   UNL     1      -0.662   3.395   0.186  0.00  0.00    +0.045 C 
ATOM     14  C   UNL     1       0.207   2.184  -0.035  0.00  0.00    -0.029 A 
ATOM     15  C   UNL     1       0.527   1.788  -1.319  0.00  0.00    +0.005 A 
ATOM     16  C   UNL     1       1.324   0.677  -1.524  0.00  0.00    +0.000 A 
ATOM     17  C   UNL     1       1.805  -0.041  -0.444  0.00  0.00    +0.002 A 
ATOM     18  C   UNL     1       1.488   0.350   0.843  0.00  0.00    +0.023 A 
ATOM     19  C   UNL     1       0.692   1.468   1.051  0.00  0.00    +0.036 A 
ENDBRANCH   2  19
ENDBRANCH   1   5
BRANCH   1  20
ATOM     20  S   UNL     1      -1.786   0.905   7.430  0.00  0.00    -0.078 S 
BRANCH  20  21
ATOM     21  C   UNL     1      -1.860   1.457   9.101  0.00  0.00    +0.196 A 
ATOM     22  N   UNL     1      -0.842   1.800   9.857  0.00  0.00    -0.122 NA
ATOM     23  N   UNL     1      -1.259   2.152  11.020  0.00  0.00    -0.135 NA
ATOM     24  C   UNL     1      -2.557   2.057  11.079  0.00  0.00    +0.122 A 
ATOM     25  N   UNL     1      -2.990   1.616   9.857  0.00  0.00    -0.276 N 
BRANCH  25  26
ATOM     26  C   UNL     1      -4.314   1.375   9.462  0.00  0.00    +0.050 A 
ATOM     27  C   UNL     1      -5.174   2.438   9.226  0.00  0.00    +0.026 A 
ATOM     28  C   UNL     1      -6.477   2.197   8.837  0.00  0.00    +0.002 A 
ATOM     29  C   UNL     1      -6.926   0.899   8.684  0.00  0.00    +0.000 A 
ATOM     30  C   UNL     1      -6.071  -0.163   8.918  0.00  0.00    +0.002 A 
ATOM     31  C   UNL     1      -4.765   0.072   9.302  0.00  0.00    +0.026 A 
ENDBRANCH  25  26
BRANCH  24  32
ATOM     32  C   UNL     1      -3.423   2.378  12.270  0.00  0.00    -0.001 C 
BRANCH  32  33
ATOM     33  N   UNL     1      -3.518   1.197  13.139  0.00  0.00    +0.384 N 
ATOM     34  C   UNL     1      -2.209   0.935  13.791  0.00  0.00    -0.078 C 
ATOM     35  C   UNL     1      -2.594   0.090  15.032  0.00  0.00    -0.020 C 
ATOM     36  C   UNL     1      -3.925   0.731  15.487  0.00  0.00    -0.020 C 
ATOM     37  C   UNL     1      -4.473   1.449  14.240  0.00  0.00    -0.078 C 
ATOM     38  H   UNL     1      -3.808   0.393  12.604  0.00  0.00    -0.081 HD
ENDBRANCH  32  33
ENDBRANCH  24  32
ENDBRANCH  20  21
ENDBRANCH   1  20
TORSDOF 7
