REMARK  Name = ZINC63376030
REMARK  10 active torsions:
REMARK  status: ('A' for Active; 'I' for Inactive)
REMARK    1  A    between atoms: C_1  and  O_2
REMARK    2  A    between atoms: O_2  and  C_3
REMARK    3  A    between atoms: C_10  and  C_18
REMARK    4  A    between atoms: C_20  and  O_39
REMARK    5  A    between atoms: N_22  and  C_28
REMARK    6  A    between atoms: C_28  and  C_29
REMARK    7  A    between atoms: C_31  and  O_37
REMARK    8  A    between atoms: C_33  and  O_35
REMARK    9  A    between atoms: O_35  and  C_36
REMARK   10  A    between atoms: O_37  and  C_38
REMARK                            x       y       z     vdW  Elec       q    Type
REMARK                         _______ _______ _______ _____ _____    ______ ____
ROOT
ATOM      1  C   UNL     1       4.497  -4.085   2.798  0.00  0.00    +0.141 C 
ATOM      2  C   UNL     1       5.813  -4.866   2.762  0.00  0.00    +0.220 C 
ATOM      3  N   UNL     1       6.517  -4.697   4.034  0.00  0.00    -0.255 N 
ATOM      4  C   UNL     1       6.473  -3.531   4.699  0.00  0.00    +0.311 C 
ATOM      5  O   UNL     1       7.152  -3.391   5.697  0.00  0.00    -0.252 OA
ATOM      6  N   UNL     1       5.696  -2.516   4.286  0.00  0.00    -0.240 N 
ATOM      7  C   UNL     1       4.756  -2.701   3.340  0.00  0.00    +0.229 C 
ATOM      8  O   UNL     1       4.119  -1.758   2.922  0.00  0.00    -0.275 OA
ATOM      9  H   UNL     1       5.813  -1.635   4.676  0.00  0.00    +0.159 HD
ENDROOT
BRANCH   1  16
ATOM     10  C   UNL     1       0.468  -1.325   0.302  0.00  0.00    +0.121 A 
ATOM     11  C   UNL     1       0.857  -0.358   1.245  0.00  0.00    +0.047 A 
ATOM     12  C   UNL     1       1.437  -0.684   2.420  0.00  0.00    +0.029 A 
ATOM     13  C   UNL     1       1.681  -2.091   2.748  0.00  0.00    +0.043 A 
ATOM     14  N   UNL     1       2.239  -2.664   3.790  0.00  0.00    -0.376 N 
ATOM     15  C   UNL     1       2.137  -4.111   3.631  0.00  0.00    +0.124 C 
ATOM     16  C   UNL     1       3.498  -4.809   3.703  0.00  0.00    +0.096 C 
ATOM     17  N   UNL     1       3.331  -6.198   3.246  0.00  0.00    -0.310 NA
ATOM     18  C   UNL     1       2.992  -6.302   1.824  0.00  0.00    +0.085 C 
ATOM     19  C   UNL     1       1.605  -5.684   1.565  0.00  0.00    +0.048 C 
ATOM     20  C   UNL     1       1.598  -4.323   2.225  0.00  0.00    -0.036 C 
ATOM     21  C   UNL     1       1.280  -3.114   1.749  0.00  0.00    +0.003 A 
ATOM     22  C   UNL     1       0.648  -2.650   0.508  0.00  0.00    +0.055 A 
ATOM     23  H   UNL     1       4.146  -6.751   3.465  0.00  0.00    +0.122 HD
ATOM     24  H   UNL     1       2.649  -2.204   4.539  0.00  0.00    +0.160 HD
BRANCH  10  26
ATOM     25  C   UNL     1      -0.286   0.494  -1.032  0.00  0.00    +0.277 C 
ATOM     26  O   UNL     1      -0.115  -0.914  -0.856  0.00  0.00    -0.495 OA
ENDBRANCH  10  26
ENDBRANCH   1  16
BRANCH   2  27
ATOM     27  O   UNL     1       5.538  -6.252   2.550  0.00  0.00    -0.373 OA
ATOM     28  H   UNL     1       6.328  -6.809   2.516  0.00  0.00    +0.212 HD
ENDBRANCH   2  27
BRANCH   3  29
ATOM     29  C   UNL     1       7.282  -5.816   4.591  0.00  0.00    +0.147 C 
BRANCH  29  30
ATOM     30  C   UNL     1       8.699  -5.759   4.083  0.00  0.00    -0.023 A 
ATOM     31  C   UNL     1       9.039  -6.404   2.909  0.00  0.00    +0.051 A 
ATOM     32  C   UNL     1      10.343  -6.352   2.440  0.00  0.00    +0.124 A 
ATOM     33  C   UNL     1      11.307  -5.652   3.149  0.00  0.00    +0.091 A 
ATOM     34  C   UNL     1      10.964  -5.005   4.327  0.00  0.00    +0.124 A 
ATOM     35  C   UNL     1       9.656  -5.055   4.789  0.00  0.00    +0.051 A 
BRANCH  34  36
ATOM     36  O   UNL     1      11.906  -4.318   5.024  0.00  0.00    -0.495 OA
ATOM     37  C   UNL     1      13.230  -4.304   4.487  0.00  0.00    +0.277 C 
ENDBRANCH  34  36
BRANCH  32  38
ATOM     38  O   UNL     1      10.677  -6.988   1.286  0.00  0.00    -0.495 OA
ATOM     39  C   UNL     1      12.038  -6.892   0.862  0.00  0.00    +0.277 C 
ENDBRANCH  32  38
ENDBRANCH  29  30
ENDBRANCH   3  29
TORSDOF 7
