REMARK  Name = ZINC45922204
REMARK  12 active torsions:
REMARK  status: ('A' for Active; 'I' for Inactive)
REMARK    1  A    between atoms: C_1  and  C_2
REMARK    2  A    between atoms: C_6  and  C_37
REMARK    3  A    between atoms: C_7  and  N_8
REMARK    4  A    between atoms: C_9  and  C_11
REMARK    5  A    between atoms: C_11  and  N_12
REMARK    6  A    between atoms: N_21  and  C_24
REMARK    7  A    between atoms: C_24  and  C_25
REMARK    8  A    between atoms: C_25  and  C_26
REMARK    9  A    between atoms: C_26  and  C_27
REMARK   10  A    between atoms: C_27  and  C_28
REMARK   11  A    between atoms: N_30  and  C_31
REMARK   12  A    between atoms: C_31  and  C_32
REMARK                            x       y       z     vdW  Elec       q    Type
REMARK                         _______ _______ _______ _____ _____    ______ ____
ROOT
ATOM      1  N   UNL     1      -0.618  -0.972   5.966  0.00  0.00    -0.284 N 
ATOM      2  C   UNL     1      -1.913  -1.260   6.372  0.00  0.00    +0.059 A 
ATOM      3  C   UNL     1      -3.011  -0.655   5.780  0.00  0.00    +0.027 A 
ATOM      4  C   UNL     1      -4.283  -0.970   6.214  0.00  0.00    +0.002 A 
ATOM      5  C   UNL     1      -4.474  -1.886   7.238  0.00  0.00    +0.001 A 
ATOM      6  C   UNL     1      -3.394  -2.497   7.838  0.00  0.00    +0.015 A 
ATOM      7  C   UNL     1      -2.105  -2.189   7.409  0.00  0.00    +0.063 A 
ATOM      8  C   UNL     1      -0.916  -2.812   8.016  0.00  0.00    +0.264 A 
ATOM      9  O   UNL     1      -1.027  -3.622   8.917  0.00  0.00    -0.267 OA
ATOM     10  N   UNL     1       0.301  -2.461   7.547  0.00  0.00    -0.260 N 
ATOM     11  C   UNL     1       0.433  -1.573   6.550  0.00  0.00    +0.333 A 
ATOM     12  O   UNL     1       1.552  -1.296   6.161  0.00  0.00    -0.246 OA
ENDROOT
BRANCH   1  13
ATOM     13  C   UNL     1      -0.394  -0.007   4.886  0.00  0.00    +0.222 C 
BRANCH  13  15
ATOM     14  N   UNL     1      -0.198  -0.037   2.420  0.00  0.00    -0.284 N 
ATOM     15  C   UNL     1      -0.388  -0.727   3.562  0.00  0.00    +0.237 C 
ATOM     16  O   UNL     1      -0.555  -1.928   3.524  0.00  0.00    -0.274 OA
ATOM     17  H   UNL     1      -0.117   0.929   2.445  0.00  0.00    +0.155 HD
BRANCH  14  24
ATOM     18  C   UNL     1       1.718  -2.126   2.165  0.00  0.00    +0.045 C 
ATOM     19  C   UNL     1       0.803  -1.741   1.031  0.00  0.00    -0.029 A 
ATOM     20  C   UNL     1       0.875  -2.411  -0.174  0.00  0.00    +0.005 A 
ATOM     21  C   UNL     1       0.037  -2.058  -1.215  0.00  0.00    +0.001 A 
ATOM     22  C   UNL     1      -0.877  -1.033  -1.054  0.00  0.00    +0.005 A 
ATOM     23  C   UNL     1      -0.955  -0.359   0.149  0.00  0.00    -0.029 A 
ATOM     24  C   UNL     1      -0.118  -0.715   1.198  0.00  0.00    +0.039 A 
ATOM     25  C   UNL     1      -1.951   0.759   0.324  0.00  0.00    +0.045 C 
ENDBRANCH  14  24
ENDBRANCH  13  15
ENDBRANCH   1  13
BRANCH  10  26
ATOM     26  C   UNL     1       1.500  -3.066   8.133  0.00  0.00    +0.130 C 
BRANCH  26  27
ATOM     27  C   UNL     1       1.851  -4.345   7.370  0.00  0.00    +0.022 C 
BRANCH  27  28
ATOM     28  C   UNL     1       3.103  -4.976   7.983  0.00  0.00    +0.011 C 
BRANCH  28  29
ATOM     29  C   UNL     1       3.455  -6.255   7.220  0.00  0.00    +0.096 C 
BRANCH  29  30
ATOM     30  C   UNL     1       4.687  -6.877   7.823  0.00  0.00    +0.213 C 
ATOM     31  O   UNL     1       5.231  -6.350   8.771  0.00  0.00    -0.276 OA
ATOM     32  N   UNL     1       5.186  -8.020   7.310  0.00  0.00    -0.311 N 
ATOM     33  H   UNL     1       4.751  -8.441   6.553  0.00  0.00    +0.149 HD
BRANCH  32  34
ATOM     34  C   UNL     1       6.384  -8.624   7.897  0.00  0.00    +0.146 C 
BRANCH  34  35
ATOM     35  C   UNL     1       6.731  -9.884   7.145  0.00  0.00    +0.007 A 
ATOM     36  C   UNL     1       7.535 -10.039   6.066  0.00  0.00    +0.013 A 
ATOM     37  C   UNL     1       7.710 -11.304   5.536  0.00  0.00    +0.008 A 
ATOM     38  C   UNL     1       7.071 -12.352   6.113  0.00  0.00    +0.045 A 
ATOM     39  S   UNL     1       6.194 -11.559   7.451  0.00  0.00    -0.100 S 
ENDBRANCH  34  35
ENDBRANCH  32  34
ENDBRANCH  29  30
ENDBRANCH  28  29
ENDBRANCH  27  28
ENDBRANCH  26  27
ENDBRANCH  10  26
TORSDOF 10
