REMARK  Name = ZINC42740025
REMARK  5 active torsions:
REMARK  status: ('A' for Active; 'I' for Inactive)
REMARK    1  A    between atoms: C_1  and  C_2
REMARK    2  A    between atoms: C_6  and  C_21
REMARK    3  A    between atoms: N_9  and  C_10
REMARK    4  A    between atoms: C_13  and  N_18
REMARK    5  A    between atoms: C_15  and  C_16
REMARK                            x       y       z     vdW  Elec       q    Type
REMARK                         _______ _______ _______ _____ _____    ______ ____
ROOT
ATOM      1  C   UNL     1      -0.019   1.526   0.010  0.00  0.00    +0.028 C 
ATOM      2  C   UNL     1       0.002  -0.004   0.002  0.00  0.00    +0.070 C 
ATOM      3  C   UNL     1      -1.434  -0.537   0.020  0.00  0.00    +0.023 C 
ATOM      4  C   UNL     1      -2.101  -0.151   1.343  0.00  0.00    +0.016 C 
ATOM      5  C   UNL     1      -1.335  -0.786   2.506  0.00  0.00    +0.092 C 
ATOM      6  C   UNL     1       0.102  -0.256   2.516  0.00  0.00    +0.118 C 
ATOM      7  N   UNL     1       0.706  -0.494   1.195  0.00  0.00    -0.325 N 
ENDROOT
BRANCH   7   8
ATOM      8  C   UNL     1       1.915  -1.169   1.076  0.00  0.00    +0.048 A 
ATOM      9  C   UNL     1       3.113  -0.467   1.102  0.00  0.00    +0.026 A 
ATOM     10  C   UNL     1       4.312  -1.140   0.984  0.00  0.00    +0.034 A 
ATOM     11  C   UNL     1       4.332  -2.518   0.839  0.00  0.00    +0.128 A 
ATOM     12  C   UNL     1       3.155  -3.232   0.811  0.00  0.00    +0.053 A 
ATOM     13  C   UNL     1       1.933  -2.566   0.936  0.00  0.00    +0.075 A 
BRANCH  11  14
ATOM     14  N   UNL     1       5.626  -3.226   0.713  0.00  0.00    +0.056 N 
ATOM     15  O   UNL     1       6.662  -2.602   0.736  0.00  0.00    -0.126 OA
ATOM     16  O   UNL     1       5.647  -4.428   0.587  0.00  0.00    -0.126 OA
ENDBRANCH  11  14
BRANCH  13  17
ATOM     17  C   UNL     1       0.705  -3.303   0.914  0.00  0.00    +0.101 C 
ATOM     18  N   UNL     1      -0.269  -3.887   0.897  0.00  0.00    -0.191 NA
ENDBRANCH  13  17
ENDBRANCH   7   8
BRANCH   5  19
ATOM     19  C   UNL     1      -2.011  -0.433   3.805  0.00  0.00    +0.215 C 
ATOM     20  O   UNL     1      -1.405   0.180   4.658  0.00  0.00    -0.276 OA
ATOM     21  N   UNL     1      -3.291  -0.798   4.020  0.00  0.00    -0.329 N 
ATOM     22  H   UNL     1      -3.776  -1.288   3.338  0.00  0.00    +0.145 HD
ATOM     23  H   UNL     1      -3.726  -0.571   4.856  0.00  0.00    +0.145 HD
ENDBRANCH   5  19
TORSDOF 4
