REMARK  Name = ZINC21252787
REMARK  10 active torsions:
REMARK  status: ('A' for Active; 'I' for Inactive)
REMARK    1  A    between atoms: C_1  and  C_2
REMARK    2  A    between atoms: C_2  and  C_3
REMARK    3  A    between atoms: C_2  and  O_4
REMARK    4  A    between atoms: O_4  and  C_5
REMARK    5  A    between atoms: C_8  and  C_13
REMARK    6  A    between atoms: C_10  and  O_11
REMARK    7  A    between atoms: O_11  and  C_12
REMARK    8  A    between atoms: C_18  and  C_28
REMARK    9  A    between atoms: C_32  and  O_34
REMARK   10  A    between atoms: O_34  and  C_35
REMARK                            x       y       z     vdW  Elec       q    Type
REMARK                         _______ _______ _______ _____ _____    ______ ____
ROOT
ATOM      1  C   UNL     1       2.004  -4.054   2.001  0.00  0.00    +0.032 C 
ATOM      2  C   UNL     1       2.392  -3.764   0.552  0.00  0.00    +0.059 C 
ATOM      3  C   UNL     1       1.620  -2.558   0.042  0.00  0.00    +0.017 C 
ATOM      4  C   UNL     1       0.376  -2.308   0.484  0.00  0.00    +0.036 C 
ATOM      5  C   UNL     1      -0.501  -1.155   0.057  0.00  0.00    +0.136 C 
ATOM      6  N   UNL     1      -0.019  -0.428  -1.098  0.00  0.00    -0.331 N 
ATOM      7  C   UNL     1       1.177   0.286  -1.050  0.00  0.00    +0.049 A 
ATOM      8  C   UNL     1       1.197   1.669  -1.121  0.00  0.00    +0.025 A 
ATOM      9  C   UNL     1       2.398   2.341  -0.967  0.00  0.00    +0.002 A 
ATOM     10  C   UNL     1       3.568   1.639  -0.743  0.00  0.00    +0.002 A 
ATOM     11  C   UNL     1       3.554   0.255  -0.687  0.00  0.00    +0.025 A 
ATOM     12  C   UNL     1       2.357  -0.418  -0.858  0.00  0.00    +0.052 A 
ATOM     13  N   UNL     1       2.280  -1.806  -0.875  0.00  0.00    -0.316 N 
ATOM     14  C   UNL     1      -0.221  -3.155   1.447  0.00  0.00    +0.163 C 
ATOM     15  O   UNL     1      -1.356  -2.919   1.812  0.00  0.00    -0.292 OA
ATOM     16  C   UNL     1       0.497  -4.333   2.034  0.00  0.00    +0.088 C 
ATOM     17  H   UNL     1      -0.599  -0.434  -2.033  0.00  0.00    +0.147 HD
ATOM     18  H   UNL     1       2.806  -2.292  -1.710  0.00  0.00    +0.152 HD
ENDROOT
BRANCH   1  22
ATOM     19  C   UNL     1       4.143  -7.477   3.415  0.00  0.00    +0.162 A 
ATOM     20  C   UNL     1       3.324  -7.579   2.302  0.00  0.00    +0.050 A 
ATOM     21  C   UNL     1       2.633  -6.471   1.848  0.00  0.00    +0.008 A 
ATOM     22  C   UNL     1       2.758  -5.259   2.501  0.00  0.00    -0.040 A 
ATOM     23  C   UNL     1       3.578  -5.149   3.609  0.00  0.00    +0.053 A 
ATOM     24  C   UNL     1       4.268  -6.257   4.073  0.00  0.00    +0.162 A 
BRANCH  24  25
ATOM     25  O   UNL     1       5.070  -6.152   5.166  0.00  0.00    -0.491 OA
ATOM     26  C   UNL     1       5.151  -4.869   5.791  0.00  0.00    +0.277 C 
ENDBRANCH  24  25
BRANCH  19  27
ATOM     27  O   UNL     1       4.823  -8.566   3.863  0.00  0.00    -0.486 OA
BRANCH  27  29
ATOM     28  C   UNL     1       5.437  -9.927   1.963  0.00  0.00    +0.051 C 
ATOM     29  C   UNL     1       4.559  -9.809   3.210  0.00  0.00    +0.167 C 
ATOM     30  C   UNL     1       4.871 -10.963   4.165  0.00  0.00    +0.051 C 
ENDBRANCH  27  29
ENDBRANCH  19  27
ENDBRANCH   1  22
BRANCH   5  31
ATOM     31  C   UNL     1      -0.621  -0.193   1.210  0.00  0.00    -0.019 A 
ATOM     32  C   UNL     1      -1.854   0.035   1.794  0.00  0.00    +0.006 A 
ATOM     33  C   UNL     1      -1.967   0.917   2.852  0.00  0.00    +0.004 A 
ATOM     34  C   UNL     1      -0.849   1.572   3.330  0.00  0.00    +0.045 A 
ATOM     35  C   UNL     1       0.389   1.344   2.747  0.00  0.00    +0.120 A 
ATOM     36  C   UNL     1       0.501   0.455   1.688  0.00  0.00    +0.051 A 
BRANCH  35  37
ATOM     37  O   UNL     1       1.491   1.987   3.215  0.00  0.00    -0.495 OA
ATOM     38  C   UNL     1       1.302   2.885   4.311  0.00  0.00    +0.277 C 
ENDBRANCH  35  37
ENDBRANCH   5  31
TORSDOF 6
