REMARK  Name = ZINC57419339
REMARK  7 active torsions:
REMARK  status: ('A' for Active; 'I' for Inactive)
REMARK    1  A    between atoms: C_1  and  C_2
REMARK    2  A    between atoms: C_2  and  C_3
REMARK    3  A    between atoms: C_3  and  C_4
REMARK    4  A    between atoms: C_4  and  N_5
REMARK    5  A    between atoms: N_8  and  C_9
REMARK    6  A    between atoms: C_9  and  C_15
REMARK    7  A    between atoms: C_20  and  C_23
REMARK                            x       y       z     vdW  Elec       q    Type
REMARK                         _______ _______ _______ _____ _____    ______ ____
ROOT
ATOM      1  C   UNL     1      -4.521  -5.788  -0.183  0.00  0.00    +0.112 C 
ATOM      2  C   UNL     1      -4.197  -6.672   1.023  0.00  0.00    +0.035 C 
ATOM      3  C   UNL     1      -4.786  -6.043   2.288  0.00  0.00    +0.003 C 
ATOM      4  C   UNL     1      -6.303  -5.921   2.138  0.00  0.00    +0.000 C 
ATOM      5  C   UNL     1      -6.627  -5.037   0.931  0.00  0.00    +0.003 C 
ATOM      6  C   UNL     1      -6.038  -5.666  -0.334  0.00  0.00    +0.035 C 
ENDROOT
BRANCH   1   7
ATOM      7  C   UNL     1      -3.941  -6.407  -1.429  0.00  0.00    +0.239 C 
ATOM      8  O   UNL     1      -3.562  -7.559  -1.414  0.00  0.00    -0.273 OA
ATOM      9  N   UNL     1      -3.842  -5.681  -2.560  0.00  0.00    -0.300 N 
ATOM     10  C   UNL     1      -4.207  -4.257  -2.569  0.00  0.00    +0.108 C 
ATOM     11  C   UNL     1      -5.228  -4.017  -3.686  0.00  0.00    +0.032 C 
ATOM     12  C   UNL     1      -4.659  -4.529  -5.011  0.00  0.00    +0.078 C 
ATOM     13  C   UNL     1      -4.398  -6.034  -4.909  0.00  0.00    +0.032 C 
ATOM     14  C   UNL     1      -3.363  -6.295  -3.805  0.00  0.00    +0.108 C 
BRANCH  12  15
ATOM     15  C   UNL     1      -5.646  -4.263  -6.118  0.00  0.00    +0.214 C 
ATOM     16  O   UNL     1      -6.702  -3.719  -5.871  0.00  0.00    -0.276 OA
ATOM     17  N   UNL     1      -5.357  -4.631  -7.382  0.00  0.00    -0.329 N 
ATOM     18  H   UNL     1      -4.513  -5.066  -7.579  0.00  0.00    +0.145 HD
ATOM     19  H   UNL     1      -5.992  -4.460  -8.094  0.00  0.00    +0.145 HD
ENDBRANCH  12  15
ENDBRANCH   1   7
BRANCH   1  23
ATOM     20  N   UNL     1      -2.087  -3.109   0.459  0.00  0.00    -0.299 N 
ATOM     21  C   UNL     1      -2.611  -4.321   0.186  0.00  0.00    +0.300 C 
ATOM     22  O   UNL     1      -1.883  -5.290   0.095  0.00  0.00    -0.253 OA
ATOM     23  N   UNL     1      -3.941  -4.458   0.016  0.00  0.00    -0.285 N 
ATOM     24  H   UNL     1      -2.673  -2.349   0.604  0.00  0.00    +0.150 HD
ATOM     25  H   UNL     1      -4.514  -3.675   0.026  0.00  0.00    +0.151 HD
BRANCH  20  26
ATOM     26  C   UNL     1      -0.634  -2.939   0.536  0.00  0.00    +0.106 C 
BRANCH  26  27
ATOM     27  C   UNL     1      -0.304  -1.458   0.732  0.00  0.00    +0.018 C 
BRANCH  27  29
ATOM     28  C   UNL     1       1.544   0.200   1.008  0.00  0.00    +0.004 C 
ATOM     29  C   UNL     1       1.214  -1.280   0.812  0.00  0.00    -0.002 C 
ENDBRANCH  27  29
ENDBRANCH  26  27
ENDBRANCH  20  26
ENDBRANCH   1  23
TORSDOF 6
