REMARK  Name = ZINC00653106
REMARK  6 active torsions:
REMARK  status: ('A' for Active; 'I' for Inactive)
REMARK    1  A    between atoms: C_1  and  C_2
REMARK    2  A    between atoms: C_5  and  C_7
REMARK    3  A    between atoms: C_5  and  O_11
REMARK    4  A    between atoms: C_12  and  C_14
REMARK    5  A    between atoms: C_17  and  C_20
REMARK    6  A    between atoms: C_20  and  N_21
REMARK                            x       y       z     vdW  Elec       q    Type
REMARK                         _______ _______ _______ _____ _____    ______ ____
ROOT
ATOM      1  C   UNL     1      -0.086  -2.715  -3.158  0.00  0.00    +0.039 A 
ATOM      2  C   UNL     1      -0.101  -1.375  -3.550  0.00  0.00    +0.013 A 
ATOM      3  C   UNL     1      -0.215  -1.053  -4.886  0.00  0.00    +0.006 A 
ATOM      4  C   UNL     1      -0.315  -2.053  -5.837  0.00  0.00    -0.026 A 
ATOM      5  C   UNL     1      -0.301  -3.383  -5.455  0.00  0.00    +0.006 A 
ATOM      6  C   UNL     1      -0.182  -3.720  -4.122  0.00  0.00    +0.013 A 
ENDROOT
BRANCH   1  13
ATOM      7  C   UNL     1      -0.049   1.501   0.014  0.00  0.00    +0.062 C 
ATOM      8  C   UNL     1      -0.024  -0.006   0.005  0.00  0.00    +0.039 C 
ATOM      9  N   UNL     1      -0.006  -0.730  -1.039  0.00  0.00    -0.183 NA
ATOM     10  N   UNL     1       0.015  -2.100  -0.790  0.00  0.00    -0.148 N 
ATOM     11  C   UNL     1       0.011  -2.316   0.666  0.00  0.00    +0.257 C 
ATOM     12  C   UNL     1      -0.011  -0.883   1.236  0.00  0.00    +0.118 C 
ATOM     13  C   UNL     1       0.037  -3.068  -1.728  0.00  0.00    +0.269 C 
ATOM     14  O   UNL     1       0.157  -4.232  -1.397  0.00  0.00    -0.268 OA
BRANCH  11  15
ATOM     15  C   UNL     1      -1.238  -3.091   1.093  0.00  0.00    +0.438 C 
ATOM     16  F   UNL     1      -1.241  -4.347   0.477  0.00  0.00    -0.166 F 
ATOM     17  F   UNL     1      -1.234  -3.253   2.482  0.00  0.00    -0.166 F 
ATOM     18  F   UNL     1      -2.381  -2.381   0.710  0.00  0.00    -0.166 F 
ENDBRANCH  11  15
BRANCH  11  19
ATOM     19  O   UNL     1       1.195  -3.001   1.079  0.00  0.00    -0.363 OA
ATOM     20  H   UNL     1       1.297  -3.880   0.689  0.00  0.00    +0.212 HD
ENDBRANCH  11  19
ENDBRANCH   1  13
BRANCH   4  21
ATOM     21  C   UNL     1      -0.439  -1.693  -7.295  0.00  0.00    +0.178 C 
BRANCH  21  22
ATOM     22  N   UNL     1       0.896  -1.597  -7.890  0.00  0.00    -0.265 N 
ATOM     23  C   UNL     1       1.329  -2.265  -8.980  0.00  0.00    +0.111 A 
ATOM     24  C   UNL     1       2.613  -1.901  -9.203  0.00  0.00    +0.074 A 
ATOM     25  C   UNL     1       2.977  -0.979  -8.216  0.00  0.00    +0.235 A 
ATOM     26  N   UNL     1       1.946  -0.792  -7.432  0.00  0.00    -0.146 NA
ATOM     27  N   UNL     1       4.298  -0.324  -8.085  0.00  0.00    +0.077 N 
ATOM     28  O   UNL     1       5.177  -0.572  -8.877  0.00  0.00    -0.125 OA
ATOM     29  O   UNL     1       4.497   0.460  -7.187  0.00  0.00    -0.125 OA
ENDBRANCH  21  22
ENDBRANCH   4  21
TORSDOF 5
