REMARK  Name = ZINC39945874
REMARK  9 active torsions:
REMARK  status: ('A' for Active; 'I' for Inactive)
REMARK    1  A    between atoms: C_1  and  C_2
REMARK    2  A    between atoms: C_7  and  C_36
REMARK    3  A    between atoms: C_10  and  C_12
REMARK    4  A    between atoms: C_12  and  O_13
REMARK    5  A    between atoms: O_13  and  C_14
REMARK    6  A    between atoms: C_17  and  C_20
REMARK    7  A    between atoms: N_22  and  N_23
REMARK    8  A    between atoms: C_24  and  C_25
REMARK    9  A    between atoms: C_33  and  C_35
REMARK                            x       y       z     vdW  Elec       q    Type
REMARK                         _______ _______ _______ _____ _____    ______ ____
ROOT
ATOM      1  C   UNL     1       3.325   0.697   5.213  0.00  0.00    +0.121 A 
ATOM      2  C   UNL     1       3.758  -0.614   5.377  0.00  0.00    +0.046 A 
ATOM      3  C   UNL     1       4.676  -0.920   6.357  0.00  0.00    +0.016 A 
ATOM      4  C   UNL     1       5.172   0.089   7.187  0.00  0.00    +0.039 A 
ATOM      5  C   UNL     1       4.734   1.406   7.019  0.00  0.00    +0.016 A 
ATOM      6  C   UNL     1       3.820   1.704   6.033  0.00  0.00    +0.046 A 
ENDROOT
BRANCH   4   7
ATOM      7  C   UNL     1       6.155  -0.235   8.238  0.00  0.00    +0.263 C 
ATOM      8  O   UNL     1       6.534  -1.381   8.383  0.00  0.00    -0.268 OA
ATOM      9  N   UNL     1       6.632   0.739   9.038  0.00  0.00    -0.203 N 
ATOM     10  H   UNL     1       6.329   1.654   8.922  0.00  0.00    +0.178 HD
BRANCH   9  11
ATOM     11  N   UNL     1       7.566   0.432  10.036  0.00  0.00    -0.188 NA
ATOM     12  C   UNL     1       8.030   1.379  10.813  0.00  0.00    +0.136 C 
BRANCH  12  13
ATOM     13  C   UNL     1       8.963   1.071  11.812  0.00  0.00    +0.003 C 
ATOM     14  C   UNL     1       9.502  -0.180  12.104  0.00  0.00    +0.005 A 
ATOM     15  C   UNL     1       9.305  -1.460  11.540  0.00  0.00    +0.010 A 
ATOM     16  C   UNL     1       9.980  -2.526  12.040  0.00  0.00    +0.001 A 
ATOM     17  C   UNL     1      10.873  -2.394  13.106  0.00  0.00    +0.002 A 
ATOM     18  C   UNL     1      11.111  -1.198  13.696  0.00  0.00    +0.026 A 
ATOM     19  C   UNL     1      10.443  -0.035  13.229  0.00  0.00    +0.043 A 
ATOM     20  N   UNL     1      10.498   1.220  13.624  0.00  0.00    -0.377 N 
ATOM     21  C   UNL     1       9.602   2.029  12.793  0.00  0.00    +0.109 C 
ATOM     22  C   UNL     1       8.529   2.684  13.664  0.00  0.00    +0.035 C 
ATOM     23  H   UNL     1      11.049   1.556  14.349  0.00  0.00    +0.160 HD
ENDBRANCH  12  13
ENDBRANCH   9  11
ENDBRANCH   4   7
BRANCH   1  24
ATOM     24  O   UNL     1       2.420   0.995   4.247  0.00  0.00    -0.483 OA
BRANCH  24  25
ATOM     25  C   UNL     1       1.952  -0.088   3.440  0.00  0.00    +0.324 C 
BRANCH  25  33
ATOM     26  C   UNL     1      -0.299   1.737   0.448  0.00  0.00    +0.028 C 
ATOM     27  C   UNL     1      -0.024   0.254   0.195  0.00  0.00    +0.073 C 
ATOM     28  C   UNL     1      -1.342  -0.472  -0.092  0.00  0.00    +0.022 C 
ATOM     29  C   UNL     1      -1.078  -1.975  -0.206  0.00  0.00    +0.004 C 
ATOM     30  C   UNL     1      -0.518  -2.498   1.118  0.00  0.00    +0.022 C 
ATOM     31  C   UNL     1       0.810  -1.796   1.420  0.00  0.00    +0.073 C 
ATOM     32  N   UNL     1       0.597  -0.342   1.386  0.00  0.00    -0.293 N 
ATOM     33  C   UNL     1       0.961   0.429   2.430  0.00  0.00    +0.254 C 
ATOM     34  O   UNL     1       0.492   1.541   2.555  0.00  0.00    -0.272 OA
ATOM     35  C   UNL     1       1.308  -2.213   2.805  0.00  0.00    +0.028 C 
ENDBRANCH  25  33
ENDBRANCH  24  25
ENDBRANCH   1  24
TORSDOF 6
