REMARK  Name = ZINC63366301
REMARK  9 active torsions:
REMARK  status: ('A' for Active; 'I' for Inactive)
REMARK    1  A    between atoms: C_1  and  C_2
REMARK    2  A    between atoms: C_2  and  O_3
REMARK    3  A    between atoms: O_3  and  C_4
REMARK    4  A    between atoms: C_7  and  N_25
REMARK    5  A    between atoms: C_9  and  S_10
REMARK    6  A    between atoms: S_10  and  N_13
REMARK    7  A    between atoms: N_13  and  C_14
REMARK    8  A    between atoms: C_14  and  C_15
REMARK    9  A    between atoms: C_15  and  C_16
REMARK                            x       y       z     vdW  Elec       q    Type
REMARK                         _______ _______ _______ _____ _____    ______ ____
ROOT
ATOM      1  C   UNL     1      -1.498  -1.849   0.006  0.00  0.00    +0.147 A 
ATOM      2  C   UNL     1      -0.387  -2.679  -0.003  0.00  0.00    +0.049 A 
ATOM      3  C   UNL     1      -0.548  -4.050  -0.008  0.00  0.00    +0.029 A 
ATOM      4  C   UNL     1      -1.824  -4.598  -0.004  0.00  0.00    +0.061 A 
ATOM      5  C   UNL     1      -2.936  -3.768   0.005  0.00  0.00    +0.057 A 
ATOM      6  C   UNL     1      -2.773  -2.396   0.016  0.00  0.00    +0.148 A 
ENDROOT
BRANCH   4   7
ATOM      7  N   UNL     1      -1.989  -5.990  -0.010  0.00  0.00    -0.144 N 
ATOM      8  C   UNL     1      -3.058  -6.656  -0.472  0.00  0.00    +0.240 C 
ATOM      9  O   UNL     1      -3.991  -6.063  -0.969  0.00  0.00    -0.274 OA
ATOM     10  C   UNL     1      -3.072  -8.151  -0.359  0.00  0.00    +0.122 C 
ATOM     11  C   UNL     1      -1.616  -8.647  -0.153  0.00  0.00    +0.198 C 
ATOM     12  S   UNL     1      -0.883  -7.115   0.551  0.00  0.00    +0.052 S 
ATOM     13  O   UNL     1       0.346  -6.799  -0.089  0.00  0.00    -0.155 OA
ATOM     14  O   UNL     1      -1.005  -7.101   1.966  0.00  0.00    -0.155 OA
ENDBRANCH   4   7
BRANCH   6  15
ATOM     15  S   UNL     1      -4.184  -1.341   0.034  0.00  0.00    +0.062 S 
ATOM     16  O   UNL     1      -3.983  -0.376  -0.988  0.00  0.00    -0.153 OA
ATOM     17  O   UNL     1      -5.324  -2.189   0.068  0.00  0.00    -0.153 OA
BRANCH  15  18
ATOM     18  N   UNL     1      -4.163  -0.520   1.472  0.00  0.00    -0.190 NA
ATOM     19  H   UNL     1      -4.865  -0.666   2.124  0.00  0.00    +0.148 HD
BRANCH  18  20
ATOM     20  C   UNL     1      -3.082   0.427   1.758  0.00  0.00    +0.110 C 
BRANCH  20  21
ATOM     21  C   UNL     1      -3.478   1.310   2.944  0.00  0.00    +0.050 C 
BRANCH  21  22
ATOM     22  C   UNL     1      -2.367   2.284   3.238  0.00  0.00    -0.040 C 
ATOM     23  C   UNL     1      -2.263   3.558   2.796  0.00  0.00    -0.001 A 
ATOM     24  C   UNL     1      -3.121   4.385   1.939  0.00  0.00    +0.010 A 
ATOM     25  C   UNL     1      -2.744   5.655   1.665  0.00  0.00    +0.001 A 
ATOM     26  C   UNL     1      -1.558   6.199   2.176  0.00  0.00    +0.002 A 
ATOM     27  C   UNL     1      -0.719   5.500   2.970  0.00  0.00    +0.026 A 
ATOM     28  C   UNL     1      -1.016   4.155   3.324  0.00  0.00    +0.043 A 
ATOM     29  N   UNL     1      -0.374   3.285   4.064  0.00  0.00    -0.380 N 
ATOM     30  C   UNL     1      -1.145   2.037   4.095  0.00  0.00    +0.144 C 
ATOM     31  H   UNL     1       0.468   3.441   4.520  0.00  0.00    +0.160 HD
ENDBRANCH  21  22
ENDBRANCH  20  21
ENDBRANCH  18  20
ENDBRANCH  15  18
ENDBRANCH   6  15
BRANCH   1  32
ATOM     32  O   UNL     1      -1.339  -0.499   0.012  0.00  0.00    -0.490 OA
BRANCH  32  34
ATOM     33  C   UNL     1      -0.019   1.526   0.010  0.00  0.00    +0.048 C 
ATOM     34  C   UNL     1       0.002  -0.004   0.002  0.00  0.00    +0.226 C 
ENDBRANCH  32  34
ENDBRANCH   1  32
TORSDOF 8
