REMARK  Name = ZINC13128625
REMARK  12 active torsions:
REMARK  status: ('A' for Active; 'I' for Inactive)
REMARK    1  A    between atoms: C_1  and  C_2
REMARK    2  A    between atoms: C_2  and  N_3
REMARK    3  A    between atoms: N_3  and  C_4
REMARK    4  A    between atoms: N_3  and  S_6
REMARK    5  A    between atoms: C_4  and  C_5
REMARK    6  A    between atoms: S_6  and  C_9
REMARK    7  A    between atoms: C_13  and  C_15
REMARK    8  A    between atoms: C_18  and  S_20
REMARK    9  A    between atoms: S_20  and  C_21
REMARK   10  A    between atoms: C_21  and  C_22
REMARK   11  A    between atoms: C_22  and  C_24
REMARK   12  A    between atoms: C_24  and  C_34
REMARK                            x       y       z     vdW  Elec       q    Type
REMARK                         _______ _______ _______ _____ _____    ______ ____
ROOT
ATOM      1  C   UNL     1      -1.297   4.896  -3.654  0.00  0.00    +0.249 A 
ATOM      2  N   UNL     1      -0.454   5.810  -3.238  0.00  0.00    -0.106 NA
ATOM      3  N   UNL     1      -0.543   6.849  -3.990  0.00  0.00    -0.101 NA
ATOM      4  C   UNL     1      -1.448   6.640  -4.919  0.00  0.00    +0.278 A 
ATOM      5  O   UNL     1      -1.940   5.401  -4.731  0.00  0.00    -0.411 OA
ENDROOT
BRANCH   1  10
ATOM      6  C   UNL     1      -0.954   1.915  -1.397  0.00  0.00    +0.106 A 
ATOM      7  C   UNL     1      -1.880   1.050  -1.952  0.00  0.00    +0.028 A 
ATOM      8  C   UNL     1      -2.624   1.435  -3.053  0.00  0.00    +0.003 A 
ATOM      9  C   UNL     1      -2.438   2.683  -3.612  0.00  0.00    +0.013 A 
ATOM     10  C   UNL     1      -1.501   3.559  -3.061  0.00  0.00    +0.040 A 
ATOM     11  C   UNL     1      -0.758   3.166  -1.946  0.00  0.00    +0.041 A 
BRANCH   6  12
ATOM     12  S   UNL     1      -0.017   1.417   0.010  0.00  0.00    +0.061 S 
ATOM     13  O   UNL     1       0.002  -0.004   0.002  0.00  0.00    -0.153 OA
ATOM     14  O   UNL     1       1.172   2.195   0.003  0.00  0.00    -0.153 OA
BRANCH  12  15
ATOM     15  N   UNL     1      -0.872   1.871   1.353  0.00  0.00    -0.177 NA
BRANCH  15  17
ATOM     16  C   UNL     1      -1.183   0.170   3.083  0.00  0.00    +0.022 C 
ATOM     17  C   UNL     1      -1.846   0.952   1.947  0.00  0.00    +0.106 C 
ENDBRANCH  15  17
BRANCH  15  18
ATOM     18  C   UNL     1      -0.654   3.192   1.948  0.00  0.00    +0.106 C 
ATOM     19  C   UNL     1      -1.693   4.174   1.403  0.00  0.00    +0.022 C 
ENDBRANCH  15  18
ENDBRANCH  12  15
ENDBRANCH   6  12
ENDBRANCH   1  10
BRANCH   4  20
ATOM     20  S   UNL     1      -1.925   7.771  -6.183  0.00  0.00    -0.058 S 
BRANCH  20  21
ATOM     21  C   UNL     1      -0.841   9.164  -5.785  0.00  0.00    +0.159 C 
BRANCH  21  22
ATOM     22  C   UNL     1      -1.081  10.284  -6.764  0.00  0.00    +0.187 C 
ATOM     23  O   UNL     1      -1.906  10.152  -7.647  0.00  0.00    -0.290 OA
BRANCH  22  24
ATOM     24  C   UNL     1      -0.351  11.480  -6.657  0.00  0.00    +0.131 C 
ATOM     25  C   UNL     1      -0.575  12.525  -7.571  0.00  0.00    +0.114 C 
ATOM     26  N   UNL     1      -1.462  12.493  -8.599  0.00  0.00    -0.300 N 
ATOM     27  C   UNL     1      -1.394  13.709  -9.271  0.00  0.00    +0.054 A 
ATOM     28  C   UNL     1      -2.063  14.221 -10.374  0.00  0.00    +0.025 A 
ATOM     29  C   UNL     1      -1.771  15.492 -10.826  0.00  0.00    +0.002 A 
ATOM     30  C   UNL     1      -0.813  16.259 -10.184  0.00  0.00    +0.002 A 
ATOM     31  C   UNL     1      -0.142  15.759  -9.086  0.00  0.00    +0.025 A 
ATOM     32  C   UNL     1      -0.428  14.483  -8.623  0.00  0.00    +0.054 A 
ATOM     33  N   UNL     1       0.066  13.722  -7.569  0.00  0.00    -0.300 N 
ATOM     34  H   UNL     1      -2.045  11.751  -8.825  0.00  0.00    +0.153 HD
ATOM     35  H   UNL     1       0.750  13.999  -6.941  0.00  0.00    +0.153 HD
BRANCH  24  36
ATOM     36  C   UNL     1       0.621  11.634  -5.617  0.00  0.00    +0.106 C 
ATOM     37  N   UNL     1       1.392  11.757  -4.792  0.00  0.00    -0.191 NA
ENDBRANCH  24  36
ENDBRANCH  22  24
ENDBRANCH  21  22
ENDBRANCH  20  21
ENDBRANCH   4  20
TORSDOF 10
