REMARK  Name = ZINC21023231
REMARK  9 active torsions:
REMARK  status: ('A' for Active; 'I' for Inactive)
REMARK    1  A    between atoms: C_1  and  C_2
REMARK    2  A    between atoms: C_8  and  S_27
REMARK    3  A    between atoms: C_12  and  C_14
REMARK    4  A    between atoms: N_16  and  C_17
REMARK    5  A    between atoms: C_17  and  C_18
REMARK    6  A    between atoms: C_18  and  N_19
REMARK    7  A    between atoms: N_19  and  C_20
REMARK    8  A    between atoms: N_19  and  C_21
REMARK    9  A    between atoms: S_27  and  N_30
REMARK                            x       y       z     vdW  Elec       q    Type
REMARK                         _______ _______ _______ _____ _____    ______ ____
ROOT
ATOM      1  C   UNL     1      -1.315  -1.164  -3.824  0.00  0.00    +0.109 C 
ATOM      2  C   UNL     1      -0.771  -0.340  -4.962  0.00  0.00    +0.217 C 
ATOM      3  O   UNL     1      -0.488  -0.873  -6.015  0.00  0.00    -0.276 OA
ATOM      4  N   UNL     1      -0.598   0.988  -4.811  0.00  0.00    -0.259 N 
ATOM      5  C   UNL     1      -0.021   1.835  -5.763  0.00  0.00    +0.040 A 
ATOM      6  C   UNL     1       0.486   1.530  -7.027  0.00  0.00    +0.026 A 
ATOM      7  C   UNL     1       1.019   2.523  -7.821  0.00  0.00    +0.030 A 
ATOM      8  C   UNL     1       1.055   3.830  -7.370  0.00  0.00    +0.106 A 
ATOM      9  C   UNL     1       0.555   4.139  -6.119  0.00  0.00    +0.034 A 
ATOM     10  C   UNL     1       0.020   3.147  -5.320  0.00  0.00    -0.022 A 
ATOM     11  C   UNL     1      -0.587   3.208  -3.934  0.00  0.00    +0.069 C 
ATOM     12  C   UNL     1      -0.986   1.756  -3.625  0.00  0.00    +0.171 C 
ENDROOT
BRANCH  12  13
ATOM     13  C   UNL     1      -0.243   1.256  -2.413  0.00  0.00    +0.234 C 
ATOM     14  O   UNL     1       0.751   0.574  -2.549  0.00  0.00    -0.274 OA
ATOM     15  N   UNL     1      -0.683   1.566  -1.177  0.00  0.00    -0.316 N 
ATOM     16  H   UNL     1      -1.585   2.184  -1.054  0.00  0.00    +0.149 HD
BRANCH  15  17
ATOM     17  C   UNL     1       0.039   1.080   0.002  0.00  0.00    +0.086 C 
BRANCH  17  18
ATOM     18  C   UNL     1      -0.665   1.571   1.268  0.00  0.00    -0.060 C 
BRANCH  18  19
ATOM     19  N   UNL     1       0.059   1.084   2.450  0.00  0.00    +0.381 N 
ATOM     20  C   UNL     1      -0.021  -0.379   2.551  0.00  0.00    -0.096 C 
ATOM     21  H   UNL     1       1.119   1.357   2.334  0.00  0.00    -0.082 HD
BRANCH  19  22
ATOM     22  C   UNL     1      -0.441   1.724   3.675  0.00  0.00    -0.069 C 
ATOM     23  C   UNL     1      -0.250   3.239   3.573  0.00  0.00    -0.015 C 
ATOM     24  C   UNL     1      -0.771   3.905   4.848  0.00  0.00    -0.002 C 
ATOM     25  C   UNL     1       0.005   3.373   6.054  0.00  0.00    -0.000 C 
ATOM     26  C   UNL     1      -0.185   1.859   6.156  0.00  0.00    -0.002 C 
ATOM     27  C   UNL     1       0.336   1.192   4.881  0.00  0.00    -0.015 C 
ENDBRANCH  19  22
ENDBRANCH  18  19
ENDBRANCH  17  18
ENDBRANCH  15  17
ENDBRANCH  12  13
BRANCH   8  28
ATOM     28  S   UNL     1       1.736   5.097  -8.387  0.00  0.00    +0.061 S 
ATOM     29  O   UNL     1       1.638   4.637  -9.728  0.00  0.00    -0.153 OA
ATOM     30  O   UNL     1       1.155   6.320  -7.956  0.00  0.00    -0.153 OA
BRANCH  28  31
ATOM     31  N   UNL     1       3.352   5.191  -8.036  0.00  0.00    -0.177 NA
ATOM     32  C   UNL     1       3.838   6.092  -6.982  0.00  0.00    +0.109 C 
ATOM     33  C   UNL     1       4.688   5.277  -5.996  0.00  0.00    +0.017 C 
ATOM     34  C   UNL     1       5.796   4.553  -6.763  0.00  0.00    +0.003 C 
ATOM     35  C   UNL     1       5.173   3.587  -7.774  0.00  0.00    +0.017 C 
ATOM     36  C   UNL     1       4.327   4.379  -8.777  0.00  0.00    +0.109 C 
ENDBRANCH  28  31
ENDBRANCH   8  28
TORSDOF 7
