REMARK  Name = ZINC23044224
REMARK  10 active torsions:
REMARK  status: ('A' for Active; 'I' for Inactive)
REMARK    1  A    between atoms: C_1  and  C_2
REMARK    2  A    between atoms: C_2  and  C_3
REMARK    3  A    between atoms: C_3  and  N_4
REMARK    4  A    between atoms: C_8  and  S_30
REMARK    5  A    between atoms: C_12  and  S_13
REMARK    6  A    between atoms: S_13  and  C_14
REMARK    7  A    between atoms: C_14  and  C_16
REMARK    8  A    between atoms: C_14  and  C_17
REMARK    9  A    between atoms: C_27  and  C_29
REMARK   10  A    between atoms: S_30  and  N_33
REMARK                            x       y       z     vdW  Elec       q    Type
REMARK                         _______ _______ _______ _____ _____    ______ ____
ROOT
ATOM      1  N   UNL     1       5.930   7.051  -0.567  0.00  0.00    -0.319 N 
ATOM      2  C   UNL     1       6.937   6.113  -0.412  0.00  0.00    +0.070 A 
ATOM      3  C   UNL     1       8.316   6.151  -0.550  0.00  0.00    +0.030 A 
ATOM      4  C   UNL     1       9.062   5.013  -0.318  0.00  0.00    +0.030 A 
ATOM      5  C   UNL     1       8.441   3.830   0.054  0.00  0.00    +0.107 A 
ATOM      6  C   UNL     1       7.072   3.774   0.196  0.00  0.00    +0.058 A 
ATOM      7  C   UNL     1       6.303   4.917  -0.036  0.00  0.00    +0.092 A 
ATOM      8  N   UNL     1       4.970   5.173   0.026  0.00  0.00    -0.222 NA
ATOM      9  C   UNL     1       4.747   6.425  -0.290  0.00  0.00    +0.171 A 
ENDROOT
BRANCH   5  10
ATOM     10  S   UNL     1       9.410   2.388   0.346  0.00  0.00    +0.056 S 
ATOM     11  O   UNL     1       8.550   1.274   0.149  0.00  0.00    -0.153 OA
ATOM     12  O   UNL     1      10.618   2.556  -0.384  0.00  0.00    -0.153 OA
BRANCH  10  13
ATOM     13  N   UNL     1       9.822   2.391   1.950  0.00  0.00    -0.204 NA
ATOM     14  H   UNL     1      10.430   1.503   2.174  0.00  0.00    +0.144 HD
ATOM     15  H   UNL     1       8.909   2.374   2.563  0.00  0.00    +0.144 HD
ENDBRANCH  10  13
ENDBRANCH   5  10
BRANCH   1  16
ATOM     16  C   UNL     1       6.101   8.454  -0.955  0.00  0.00    +0.124 C 
BRANCH  16  18
ATOM     17  C   UNL     1       6.469  10.775  -0.106  0.00  0.00    +0.005 C 
ATOM     18  C   UNL     1       6.291   9.310   0.299  0.00  0.00    +0.018 C 
ENDBRANCH  16  18
ENDBRANCH   1  16
BRANCH   9  19
ATOM     19  S   UNL     1       3.161   7.189  -0.345  0.00  0.00    -0.075 S 
BRANCH  19  20
ATOM     20  C   UNL     1       2.120   5.785   0.124  0.00  0.00    +0.137 C 
ATOM     21  C   UNL     1       2.439   5.371   1.562  0.00  0.00    +0.029 C 
BRANCH  20  22
ATOM     22  C   UNL     1       0.669   6.180   0.026  0.00  0.00    +0.233 C 
ATOM     23  O   UNL     1       0.365   7.348  -0.098  0.00  0.00    -0.274 OA
ATOM     24  N   UNL     1      -0.292   5.236   0.077  0.00  0.00    -0.267 N 
ATOM     25  C   UNL     1      -0.060   3.859   0.152  0.00  0.00    +0.040 A 
ATOM     26  C   UNL     1       1.152   3.167   0.191  0.00  0.00    +0.024 A 
ATOM     27  C   UNL     1       1.165   1.791   0.266  0.00  0.00    +0.002 A 
ATOM     28  C   UNL     1      -0.024   1.085   0.303  0.00  0.00    +0.000 A 
ATOM     29  C   UNL     1      -1.228   1.763   0.260  0.00  0.00    +0.005 A 
ATOM     30  C   UNL     1      -1.245   3.143   0.190  0.00  0.00    -0.024 A 
ATOM     31  C   UNL     1      -2.399   4.119   0.136  0.00  0.00    +0.059 C 
ATOM     32  C   UNL     1      -1.733   5.502   0.061  0.00  0.00    +0.083 C 
ATOM     33  C   UNL     1      -2.130   6.348   1.272  0.00  0.00    +0.029 C 
ENDBRANCH  20  22
ENDBRANCH  19  20
ENDBRANCH   9  19
TORSDOF 7
