REMARK  Name = ZINC31868386
REMARK  9 active torsions:
REMARK  status: ('A' for Active; 'I' for Inactive)
REMARK    1  A    between atoms: C_1  and  C_2
REMARK    2  A    between atoms: C_6  and  C_11
REMARK    3  A    between atoms: N_7  and  C_10
REMARK    4  A    between atoms: C_13  and  C_14
REMARK    5  A    between atoms: N_16  and  C_17
REMARK    6  A    between atoms: C_19  and  C_25
REMARK    7  A    between atoms: C_19  and  C_26
REMARK    8  A    between atoms: C_21  and  C_23
REMARK    9  A    between atoms: C_21  and  C_24
REMARK                            x       y       z     vdW  Elec       q    Type
REMARK                         _______ _______ _______ _____ _____    ______ ____
ROOT
ATOM      1  C   UNL     1       0.721   4.182  -4.118  0.00  0.00    +0.251 C 
ATOM      2  O   UNL     1      -0.109   4.889  -3.577  0.00  0.00    -0.270 OA
ATOM      3  N   UNL     1       1.203   3.098  -3.478  0.00  0.00    -0.308 N 
ATOM      4  H   UNL     1       1.953   2.459  -3.967  0.00  0.00    +0.149 HD
ENDROOT
BRANCH   1  17
ATOM      5  C   UNL     1      -0.189   6.552  -5.788  0.00  0.00    +0.046 C 
ATOM      6  C   UNL     1       0.832   5.551  -6.267  0.00  0.00    -0.017 A 
ATOM      7  C   UNL     1       1.407   5.689  -7.533  0.00  0.00    +0.076 A 
ATOM      8  C   UNL     1       2.352   4.701  -7.891  0.00  0.00    +0.116 A 
ATOM      9  N   UNL     1       2.972   4.717  -9.064  0.00  0.00    -0.227 NA
ATOM     10  C   UNL     1       2.738   5.648  -9.948  0.00  0.00    +0.110 A 
ATOM     11  N   UNL     1       1.853   6.649  -9.719  0.00  0.00    -0.299 N 
ATOM     12  C   UNL     1       1.168   6.728  -8.561  0.00  0.00    +0.262 A 
ATOM     13  O   UNL     1       0.375   7.631  -8.365  0.00  0.00    -0.267 OA
ATOM     14  C   UNL     1       1.635   7.665 -10.752  0.00  0.00    +0.153 C 
ATOM     15  C   UNL     1       3.475   5.610 -11.262  0.00  0.00    +0.086 C 
ATOM     16  S   UNL     1       2.399   3.647  -6.463  0.00  0.00    -0.064 S 
ATOM     17  C   UNL     1       1.196   4.509  -5.466  0.00  0.00    +0.079 A 
ENDBRANCH   1  17
BRANCH   3  18
ATOM     18  C   UNL     1       0.727   2.770  -2.128  0.00  0.00    +0.071 C 
ATOM     19  C   UNL     1       1.795   1.952  -1.403  0.00  0.00    +0.009 C 
ATOM     20  C   UNL     1       1.318   1.579  -0.002  0.00  0.00    -0.072 C 
ATOM     21  N   UNL     1      -0.012   1.005   0.008  0.00  0.00    +0.386 N 
ATOM     22  C   UNL     1      -1.048   1.551  -0.843  0.00  0.00    -0.072 C 
ATOM     23  C   UNL     1      -0.543   1.927  -2.233  0.00  0.00    +0.009 C 
ATOM     24  C   UNL     1      -2.143   0.475  -1.020  0.00  0.00    -0.010 C 
ATOM     25  C   UNL     1      -1.713   2.771  -0.192  0.00  0.00    -0.010 C 
ATOM     26  C   UNL     1       1.397   2.808   0.911  0.00  0.00    -0.010 C 
ATOM     27  C   UNL     1       2.301   0.528   0.560  0.00  0.00    -0.010 C 
ATOM     28  H   UNL     1       0.043  -0.052  -0.291  0.00  0.00    -0.084 HD
ATOM     29  H   UNL     1      -0.435   1.079   1.020  0.00  0.00    -0.084 HD
ENDBRANCH   3  18
TORSDOF 2
