REMARK  Name = ZINC08873402
REMARK  6 active torsions:
REMARK  status: ('A' for Active; 'I' for Inactive)
REMARK    1  A    between atoms: C_2  and  C_31
REMARK    2  A    between atoms: N_7  and  C_8
REMARK    3  A    between atoms: C_8  and  C_9
REMARK    4  A    between atoms: C_9  and  N_10
REMARK    5  A    between atoms: C_24  and  O_30
REMARK    6  A    between atoms: C_26  and  C_28
REMARK                            x       y       z     vdW  Elec       q    Type
REMARK                         _______ _______ _______ _____ _____    ______ ____
ROOT
ATOM      1  C   UNL     1      -3.604   2.345   3.348  0.00  0.00    +0.135 C 
ENDROOT
BRANCH   1   2
ATOM      2  N   UNL     1      -2.540   2.361   2.341  0.00  0.00    -0.240 N 
ATOM      3  C   UNL     1      -1.833   1.246   1.959  0.00  0.00    +0.226 C 
ATOM      4  O   UNL     1      -2.111   0.086   2.175  0.00  0.00    -0.275 OA
ATOM      5  C   UNL     1      -0.652   1.772   1.223  0.00  0.00    +0.092 C 
ATOM      6  C   UNL     1      -0.013   1.086   0.008  0.00  0.00    +0.021 C 
ATOM      7  C   UNL     1      -0.617   1.812  -1.259  0.00  0.00    +0.012 C 
ATOM      8  C   UNL     1      -0.546   3.283  -0.651  0.00  0.00    +0.032 C 
ATOM      9  C   UNL     1      -1.411   2.986   0.502  0.00  0.00    +0.093 C 
ATOM     10  C   UNL     1      -2.140   3.522   1.621  0.00  0.00    +0.226 C 
ATOM     11  O   UNL     1      -2.337   4.684   1.902  0.00  0.00    -0.275 OA
ATOM     12  C   UNL     1       0.958   3.315  -0.279  0.00  0.00    +0.135 C 
ATOM     13  C   UNL     1       1.374   1.847  -0.001  0.00  0.00    +0.124 C 
BRANCH  13  14
ATOM     14  C   UNL     1       2.243   1.335  -1.074  0.00  0.00    +0.069 C 
ATOM     15  N   UNL     1       2.913   0.941  -1.902  0.00  0.00    -0.196 NA
ENDBRANCH  13  14
BRANCH  12  16
ATOM     16  O   UNL     1       1.721   3.843  -1.365  0.00  0.00    -0.390 OA
ATOM     17  H   UNL     1       2.674   3.868  -1.201  0.00  0.00    +0.210 HD
ENDBRANCH  12  16
ENDBRANCH   1   2
BRANCH   1  18
ATOM     18  C   UNL     1      -3.001   2.603   4.731  0.00  0.00    +0.122 C 
BRANCH  18  25
ATOM     19  C   UNL     1      -4.451   2.998   9.359  0.00  0.00    +0.037 A 
ATOM     20  C   UNL     1      -3.121   3.221   9.692  0.00  0.00    +0.072 A 
ATOM     21  C   UNL     1      -2.166   3.224   8.695  0.00  0.00    +0.096 A 
ATOM     22  C   UNL     1      -3.756   2.801   7.077  0.00  0.00    +0.115 A 
ATOM     23  C   UNL     1      -4.772   2.784   8.030  0.00  0.00    +0.079 A 
ATOM     24 CL   UNL     1      -6.418   2.500   7.557  0.00  0.00    -0.080 Cl
ATOM     25  N   UNL     1      -4.064   2.588   5.738  0.00  0.00    -0.328 N 
ATOM     26  H   UNL     1      -4.983   2.429   5.471  0.00  0.00    +0.147 HD
ATOM     27  N   UNL     1      -2.443   3.012   7.381  0.00  0.00    -0.348 N 
ATOM     28  H   UNL     1      -1.710   3.011   6.662  0.00  0.00    +0.167 HD
BRANCH  20  29
ATOM     29  C   UNL     1      -2.725   3.458  11.126  0.00  0.00    +0.419 C 
ATOM     30  F   UNL     1      -2.426   2.235  11.736  0.00  0.00    -0.166 F 
ATOM     31  F   UNL     1      -1.599   4.288  11.168  0.00  0.00    -0.166 F 
ATOM     32  F   UNL     1      -3.782   4.072  11.807  0.00  0.00    -0.166 F 
ENDBRANCH  20  29
ENDBRANCH  18  25
ENDBRANCH   1  18
TORSDOF 6
