REMARK  Name = ZINC17173015
REMARK  4 active torsions:
REMARK  status: ('A' for Active; 'I' for Inactive)
REMARK    1  A    between atoms: C_1  and  O_2
REMARK    2  A    between atoms: O_2  and  C_3
REMARK    3  A    between atoms: C_7  and  C_9
REMARK    4  A    between atoms: N_10  and  N_11
REMARK                            x       y       z     vdW  Elec       q    Type
REMARK                         _______ _______ _______ _____ _____    ______ ____
ROOT
ATOM      1  N   UNL     1       4.791   3.957  -0.100  0.00  0.00    -0.205 N 
ATOM      2  C   UNL     1       4.860   5.317  -0.089  0.00  0.00    +0.227 A 
ATOM      3  N   UNL     1       5.978   5.967  -0.162  0.00  0.00    -0.217 NA
ATOM      4  C   UNL     1       7.186   5.348  -0.267  0.00  0.00    +0.159 A 
ATOM      5  C   UNL     1       7.171   3.965  -0.288  0.00  0.00    +0.100 A 
ATOM      6  C   UNL     1       5.973   3.237  -0.205  0.00  0.00    +0.145 A 
ATOM      7  N   UNL     1       5.970   1.922  -0.227  0.00  0.00    -0.383 N 
ATOM      8  S   UNL     1       8.885   3.530  -0.431  0.00  0.00    -0.044 S 
ATOM      9  C   UNL     1       9.546   5.182  -0.456  0.00  0.00    +0.181 A 
ATOM     10  N   UNL     1       8.429   5.971  -0.355  0.00  0.00    -0.270 N 
ATOM     11  C   UNL     1       8.909   7.289  -0.372  0.00  0.00    +0.076 A 
ATOM     12  C   UNL     1       8.281   8.522  -0.303  0.00  0.00    +0.028 A 
ATOM     13  C   UNL     1       9.036   9.677  -0.344  0.00  0.00    +0.002 A 
ATOM     14  C   UNL     1      10.417   9.611  -0.454  0.00  0.00    +0.002 A 
ATOM     15  C   UNL     1      11.056   8.393  -0.525  0.00  0.00    +0.030 A 
ATOM     16  C   UNL     1      10.305   7.214  -0.484  0.00  0.00    +0.091 A 
ATOM     17  N   UNL     1      10.632   5.898  -0.531  0.00  0.00    -0.221 NA
ATOM     18  H   UNL     1       6.919   1.371  -0.311  0.00  0.00    +0.157 HD
ATOM     19  H   UNL     1       5.020   1.372  -0.161  0.00  0.00    +0.157 HD
ENDROOT
BRANCH   1  21
ATOM     20  C   UNL     1       2.569   3.672  -0.770  0.00  0.00    +0.141 C 
ATOM     21  N   UNL     1       3.556   3.300  -0.013  0.00  0.00    -0.172 NA
BRANCH  20  26
ATOM     22  C   UNL     1      -1.072   2.879  -1.243  0.00  0.00    +0.121 A 
ATOM     23  C   UNL     1      -1.260   1.901  -0.275  0.00  0.00    +0.045 A 
ATOM     24  C   UNL     1      -0.209   1.510   0.534  0.00  0.00    +0.004 A 
ATOM     25  C   UNL     1       1.037   2.080   0.377  0.00  0.00    +0.010 A 
ATOM     26  C   UNL     1       1.238   3.060  -0.599  0.00  0.00    -0.002 A 
ATOM     27  C   UNL     1       0.174   3.458  -1.410  0.00  0.00    +0.055 A 
BRANCH  22  29
ATOM     28  C   UNL     1      -3.369   2.624  -1.804  0.00  0.00    +0.277 C 
ATOM     29  O   UNL     1      -2.111   3.263  -2.031  0.00  0.00    -0.495 OA
ENDBRANCH  22  29
ENDBRANCH  20  26
ENDBRANCH   1  21
TORSDOF 3
