REMARK  Name = ZINC42618912
REMARK  12 active torsions:
REMARK  status: ('A' for Active; 'I' for Inactive)
REMARK    1  A    between atoms: C_1  and  C_2
REMARK    2  A    between atoms: C_2  and  C_4
REMARK    3  A    between atoms: C_2  and  N_26
REMARK    4  A    between atoms: C_7  and  S_16
REMARK    5  A    between atoms: N_8  and  C_9
REMARK    6  A    between atoms: S_16  and  C_17
REMARK    7  A    between atoms: C_17  and  C_18
REMARK    8  A    between atoms: C_20  and  C_23
REMARK    9  A    between atoms: C_23  and  C_24
REMARK   10  A    between atoms: C_23  and  C_25
REMARK   11  A    between atoms: N_26  and  C_27
REMARK   12  A    between atoms: N_26  and  C_28
REMARK                            x       y       z     vdW  Elec       q    Type
REMARK                         _______ _______ _______ _____ _____    ______ ____
ROOT
ATOM      1  C   UNL     1       0.731  -0.503   1.223  0.00  0.00    +0.125 A 
ATOM      2  N   UNL     1       2.020  -0.483   1.415  0.00  0.00    -0.135 NA
ATOM      3  N   UNL     1       2.304  -0.986   2.563  0.00  0.00    -0.122 NA
ATOM      4  C   UNL     1       1.202  -1.359   3.173  0.00  0.00    +0.197 A 
ATOM      5  N   UNL     1       0.161  -1.057   2.339  0.00  0.00    -0.275 N 
ENDROOT
BRANCH   5   6
ATOM      6  C   UNL     1      -1.205  -1.273   2.575  0.00  0.00    +0.050 A 
ATOM      7  C   UNL     1      -2.070  -0.193   2.683  0.00  0.00    +0.029 A 
ATOM      8  C   UNL     1      -3.415  -0.407   2.915  0.00  0.00    +0.040 A 
ATOM      9  C   UNL     1      -3.900  -1.698   3.042  0.00  0.00    +0.124 A 
ATOM     10  C   UNL     1      -3.038  -2.776   2.934  0.00  0.00    +0.040 A 
ATOM     11  C   UNL     1      -1.694  -2.566   2.696  0.00  0.00    +0.029 A 
ATOM     12  F   UNL     1      -5.215  -1.905   3.270  0.00  0.00    -0.205 F 
ENDBRANCH   5   6
BRANCH   1  14
ATOM     13  C   UNL     1      -0.019   1.526   0.010  0.00  0.00    -0.005 C 
ATOM     14  C   UNL     1       0.002  -0.004   0.002  0.00  0.00    -0.003 C 
BRANCH  14  15
ATOM     15  N   UNL     1       0.690  -0.478  -1.207  0.00  0.00    +0.382 N 
ATOM     16  C   UNL     1       0.710  -1.947  -1.215  0.00  0.00    -0.096 C 
ATOM     17  C   UNL     1      -0.021   0.009  -2.397  0.00  0.00    -0.096 C 
ATOM     18  H   UNL     1       1.636  -0.129  -1.214  0.00  0.00    -0.082 HD
ENDBRANCH  14  15
ENDBRANCH   1  14
BRANCH   4  19
ATOM     19  S   UNL     1       1.087  -2.101   4.767  0.00  0.00    -0.076 S 
BRANCH  19  20
ATOM     20  C   UNL     1       2.809  -2.212   5.325  0.00  0.00    +0.176 C 
BRANCH  20  21
ATOM     21  C   UNL     1       2.853  -2.838   6.696  0.00  0.00    +0.238 A 
ATOM     22  N   UNL     1       2.962  -4.112   6.950  0.00  0.00    -0.195 NA
ATOM     23  C   UNL     1       2.970  -4.317   8.272  0.00  0.00    +0.174 A 
ATOM     24  N   UNL     1       2.866  -3.169   8.878  0.00  0.00    -0.061 NA
ATOM     25  O   UNL     1       2.794  -2.181   7.861  0.00  0.00    -0.337 OA
BRANCH  23  26
ATOM     26  C   UNL     1       3.081  -5.659   8.951  0.00  0.00    +0.054 C 
ATOM     27  C   UNL     1       4.331  -5.682   9.833  0.00  0.00    +0.015 C 
ATOM     28  C   UNL     1       1.841  -5.897   9.815  0.00  0.00    +0.015 C 
ENDBRANCH  23  26
ENDBRANCH  20  21
ENDBRANCH  19  20
ENDBRANCH   4  19
TORSDOF 7
