REMARK  Name = ZINC15105867
REMARK  15 active torsions:
REMARK  status: ('A' for Active; 'I' for Inactive)
REMARK    1  A    between atoms: C_1  and  C_2
REMARK    2  A    between atoms: C_2  and  O_3
REMARK    3  A    between atoms: O_3  and  C_4
REMARK    4  A    between atoms: C_4  and  C_6
REMARK    5  A    between atoms: C_8  and  C_34
REMARK    6  A    between atoms: C_10  and  C_29
REMARK    7  A    between atoms: C_12  and  C_27
REMARK    8  A    between atoms: C_12  and  O_28
REMARK    9  A    between atoms: N_15  and  N_16
REMARK   10  A    between atoms: N_16  and  S_17
REMARK   11  A    between atoms: S_17  and  C_20
REMARK   12  A    between atoms: C_23  and  C_26
REMARK   13  A    between atoms: C_29  and  O_31
REMARK   14  A    between atoms: O_31  and  C_32
REMARK   15  A    between atoms: C_32  and  C_33
REMARK                            x       y       z     vdW  Elec       q    Type
REMARK                         _______ _______ _______ _____ _____    ______ ____
ROOT
ATOM      1  C   UNL     1      -0.682   3.231   1.173  0.00  0.00    +0.152 C 
ATOM      2  C   UNL     1      -1.721   3.556   0.095  0.00  0.00    +0.055 C 
ATOM      3  C   UNL     1      -1.224   3.048  -1.259  0.00  0.00    +0.138 C 
ATOM      4  C   UNL     1      -1.099   1.524  -1.227  0.00  0.00    +0.082 C 
ATOM      5  C   UNL     1      -0.036   1.122  -0.198  0.00  0.00    +0.088 C 
ATOM      6  C   UNL     1      -0.390   1.747   1.133  0.00  0.00    +0.055 C 
ATOM      7  N   UNL     1      -0.445   1.037   2.197  0.00  0.00    -0.174 NA
ATOM      8  C   UNL     1      -2.444   0.909  -0.837  0.00  0.00    +0.042 C 
ENDROOT
BRANCH   2   9
ATOM      9  C   UNL     1      -1.926   5.048   0.027  0.00  0.00    -0.042 A 
ATOM     10  C   UNL     1      -0.966   5.901   0.539  0.00  0.00    +0.004 A 
ATOM     11  C   UNL     1      -1.152   7.269   0.473  0.00  0.00    +0.000 A 
ATOM     12  C   UNL     1      -2.302   7.784  -0.096  0.00  0.00    +0.000 A 
ATOM     13  C   UNL     1      -3.264   6.930  -0.603  0.00  0.00    +0.000 A 
ATOM     14  C   UNL     1      -3.076   5.562  -0.541  0.00  0.00    +0.004 A 
ENDBRANCH   2   9
BRANCH   1  15
ATOM     15  C   UNL     1      -1.226   3.604   2.528  0.00  0.00    +0.316 C 
ATOM     16  O   UNL     1      -2.331   4.082   2.625  0.00  0.00    -0.250 OA
BRANCH  15  17
ATOM     17  O   UNL     1      -0.481   3.406   3.628  0.00  0.00    -0.464 OA
BRANCH  17  19
ATOM     18  C   UNL     1      -0.080   3.491   6.028  0.00  0.00    +0.048 C 
ATOM     19  C   UNL     1      -1.069   3.789   4.899  0.00  0.00    +0.229 C 
ENDBRANCH  17  19
ENDBRANCH  15  17
ENDBRANCH   1  15
BRANCH   7  20
ATOM     20  N   UNL     1      -0.053  -0.307   2.164  0.00  0.00    -0.137 N 
ATOM     21  H   UNL     1       0.196  -0.719   1.322  0.00  0.00    +0.197 HD
BRANCH  20  22
ATOM     22  S   UNL     1      -0.014  -1.194   3.562  0.00  0.00    +0.086 S 
ATOM     23  O   UNL     1       0.276  -2.533   3.186  0.00  0.00    -0.149 OA
ATOM     24  O   UNL     1       0.791  -0.468   4.481  0.00  0.00    -0.149 OA
BRANCH  22  25
ATOM     25  C   UNL     1      -1.649  -1.199   4.221  0.00  0.00    +0.110 A 
ATOM     26  C   UNL     1      -2.040  -0.212   5.106  0.00  0.00    +0.029 A 
ATOM     27  C   UNL     1      -3.324  -0.213   5.619  0.00  0.00    +0.005 A 
ATOM     28  C   UNL     1      -4.213  -1.207   5.255  0.00  0.00    -0.050 A 
ATOM     29  C   UNL     1      -3.819  -2.197   4.374  0.00  0.00    +0.005 A 
ATOM     30  C   UNL     1      -2.537  -2.193   3.857  0.00  0.00    +0.029 A 
ATOM     31  C   UNL     1      -5.611  -1.211   5.817  0.00  0.00    +0.044 C 
ENDBRANCH  22  25
ENDBRANCH  20  22
ENDBRANCH   7  20
BRANCH   4  32
ATOM     32  O   UNL     1      -0.714   1.049  -2.519  0.00  0.00    -0.388 OA
ATOM     33  H   UNL     1      -0.615   0.088  -2.571  0.00  0.00    +0.210 HD
ENDBRANCH   4  32
BRANCH   3  34
ATOM     34  C   UNL     1       0.122   3.655  -1.559  0.00  0.00    +0.314 C 
ATOM     35  O   UNL     1       0.616   4.440  -0.785  0.00  0.00    -0.250 OA
BRANCH  34  36
ATOM     36  O   UNL     1       0.772   3.323  -2.685  0.00  0.00    -0.465 OA
BRANCH  36  37
ATOM     37  C   UNL     1       2.065   3.947  -2.909  0.00  0.00    +0.229 C 
ATOM     38  C   UNL     1       2.649   3.450  -4.233  0.00  0.00    +0.048 C 
ENDBRANCH  36  37
ENDBRANCH  34  36
ENDBRANCH   3  34
TORSDOF 11
