REMARK  Name = ZINC04858140
REMARK  13 active torsions:
REMARK  status: ('A' for Active; 'I' for Inactive)
REMARK    1  A    between atoms: C_1  and  C_2
REMARK    2  A    between atoms: C_5  and  C_28
REMARK    3  A    between atoms: C_6  and  O_8
REMARK    4  A    between atoms: O_8  and  C_9
REMARK    5  A    between atoms: C_9  and  C_10
REMARK    6  A    between atoms: N_12  and  C_13
REMARK    7  A    between atoms: C_14  and  C_26
REMARK    8  A    between atoms: C_18  and  C_24
REMARK    9  A    between atoms: C_18  and  C_25
REMARK   10  A    between atoms: C_20  and  C_22
REMARK   11  A    between atoms: C_20  and  C_23
REMARK   12  A    between atoms: C_28  and  C_29
REMARK   13  A    between atoms: C_28  and  C_30
REMARK                            x       y       z     vdW  Elec       q    Type
REMARK                         _______ _______ _______ _____ _____    ______ ____
ROOT
ATOM      1  C   UNL     1       0.078  -3.278   7.095  0.00  0.00    +0.090 A 
ATOM      2  C   UNL     1       0.080  -2.936   8.440  0.00  0.00    +0.084 A 
ATOM      3  C   UNL     1       0.101  -4.023   9.393  0.00  0.00    -0.021 A 
ATOM      4  C   UNL     1       0.121  -5.259   8.838  0.00  0.00    -0.015 A 
ATOM      5  S   UNL     1       0.100  -4.958   7.096  0.00  0.00    -0.078 S 
ATOM      6  C   UNL     1       0.163  -6.557   9.571  0.00  0.00    -0.041 C 
ATOM      7  N   UNL     1      -0.021  -6.387  11.012  0.00  0.00    +0.389 N 
ATOM      8  C   UNL     1      -0.642  -5.144  11.448  0.00  0.00    -0.069 C 
ATOM      9  C   UNL     1       0.096  -3.912  10.909  0.00  0.00    +0.024 C 
ATOM     10  C   UNL     1      -2.111  -5.082  11.026  0.00  0.00    -0.010 C 
ATOM     11  C   UNL     1      -0.589  -5.089  12.986  0.00  0.00    -0.010 C 
ATOM     12  C   UNL     1       1.538  -7.207   9.324  0.00  0.00    -0.005 C 
ATOM     13  C   UNL     1      -0.910  -7.499   9.006  0.00  0.00    -0.005 C 
ATOM     14  H   UNL     1      -0.578  -7.168  11.363  0.00  0.00    -0.084 HD
ATOM     15  H   UNL     1       0.889  -6.472  11.467  0.00  0.00    -0.084 HD
ENDROOT
BRANCH   1  18
ATOM     16  C   UNL     1       0.063  -2.932   4.751  0.00  0.00    +0.255 C 
ATOM     17  O   UNL     1       0.078  -4.133   4.584  0.00  0.00    -0.272 OA
ATOM     18  N   UNL     1       0.062  -2.425   6.000  0.00  0.00    -0.276 N 
ATOM     19  H   UNL     1       0.050  -1.465   6.134  0.00  0.00    +0.155 HD
BRANCH  16  20
ATOM     20  C   UNL     1       0.045  -2.006   3.562  0.00  0.00    +0.324 C 
BRANCH  20  21
ATOM     21  O   UNL     1       0.050  -2.776   2.358  0.00  0.00    -0.482 OA
BRANCH  21  27
ATOM     22  C   UNL     1      -0.018   1.503   0.010  0.00  0.00    +0.044 C 
ATOM     23  C   UNL     1       0.002  -0.004   0.002  0.00  0.00    -0.047 A 
ATOM     24  C   UNL     1       0.006  -0.688  -1.200  0.00  0.00    +0.004 A 
ATOM     25  C   UNL     1       0.024  -2.071  -1.211  0.00  0.00    +0.008 A 
ATOM     26  C   UNL     1       0.039  -2.772  -0.020  0.00  0.00    -0.003 A 
ATOM     27  C   UNL     1       0.035  -2.088   1.186  0.00  0.00    +0.125 A 
ATOM     28  C   UNL     1       0.023  -0.700   1.195  0.00  0.00    +0.049 A 
BRANCH  26  29
ATOM     29  C   UNL     1       0.059  -4.279  -0.033  0.00  0.00    +0.016 C 
ATOM     30  C   UNL     1      -1.188  -4.799  -0.753  0.00  0.00    +0.012 C 
ATOM     31  C   UNL     1       1.311  -4.766  -0.764  0.00  0.00    +0.012 C 
ENDBRANCH  26  29
ENDBRANCH  21  27
ENDBRANCH  20  21
ENDBRANCH  16  20
ENDBRANCH   1  18
BRANCH   2  32
ATOM     32  C   UNL     1       0.066  -1.565   8.853  0.00  0.00    +0.102 C 
ATOM     33  N   UNL     1       0.054  -0.477   9.180  0.00  0.00    -0.191 NA
ENDBRANCH   2  32
TORSDOF 6
