REMARK  Name = ZINC09332852
REMARK  1 active torsions:
REMARK  status: ('A' for Active; 'I' for Inactive)
REMARK    1  A    between atoms: N_19  and  C_22
REMARK                            x       y       z     vdW  Elec       q    Type
REMARK                         _______ _______ _______ _____ _____    ______ ____
ROOT
ATOM      1  C   UNL     1       0.984  -1.082   3.571  0.00  0.00    +0.000 A 
ATOM      2  C   UNL     1      -0.123  -1.880   3.798  0.00  0.00    +0.002 A 
ATOM      3  C   UNL     1      -1.091  -2.022   2.826  0.00  0.00    +0.023 A 
ATOM      4  C   UNL     1      -0.961  -1.360   1.606  0.00  0.00    +0.036 A 
ATOM      5  C   UNL     1       0.158  -0.562   1.389  0.00  0.00    -0.027 A 
ATOM      6  C   UNL     1       1.121  -0.424   2.363  0.00  0.00    +0.004 A 
ATOM      7  C   UNL     1       0.002  -0.004   0.002  0.00  0.00    +0.053 C 
ATOM      8  C   UNL     1       1.173  -0.413  -0.899  0.00  0.00    +0.089 C 
ATOM      9  C   UNL     1       2.117   0.820  -0.901  0.00  0.00    +0.074 C 
ATOM     10  C   UNL     1       1.424   1.860  -0.002  0.00  0.00    -0.054 C 
ATOM     11  C   UNL     1      -0.553   1.972  -1.277  0.00  0.00    -0.076 C 
ATOM     12  C   UNL     1       0.159   3.318  -1.514  0.00  0.00    -0.020 C 
ATOM     13  C   UNL     1       1.461   3.235  -0.693  0.00  0.00    -0.016 C 
ATOM     14  C   UNL     1       3.361   0.307  -0.210  0.00  0.00    +0.228 C 
ATOM     15  O   UNL     1       4.362   0.958   0.003  0.00  0.00    -0.275 OA
ATOM     16  N   UNL     1       3.185  -0.975   0.128  0.00  0.00    -0.209 N 
ATOM     17  C   UNL     1       1.994  -1.481  -0.212  0.00  0.00    +0.229 C 
ATOM     18  O   UNL     1       1.631  -2.618  -0.002  0.00  0.00    -0.275 OA
ATOM     19  C   UNL     1      -1.299  -0.569  -0.501  0.00  0.00    +0.212 C 
ATOM     20  O   UNL     1      -1.806  -0.366  -1.584  0.00  0.00    -0.277 OA
ATOM     21  N   UNL     1      -1.792  -1.343   0.484  0.00  0.00    -0.286 N 
ATOM     22  H   UNL     1      -2.628  -1.832   0.422  0.00  0.00    +0.155 HD
ATOM     23  N   UNL     1       0.034   1.466  -0.025  0.00  0.00    +0.395 N 
ATOM     24  H   UNL     1      -0.469   1.849   0.784  0.00  0.00    -0.079 HD
ENDROOT
BRANCH  16  25
ATOM     25  C   UNL     1       4.169  -1.727   0.786  0.00  0.00    +0.064 A 
ATOM     26  C   UNL     1       4.208  -1.759   2.173  0.00  0.00    +0.045 A 
ATOM     27  C   UNL     1       5.179  -2.502   2.819  0.00  0.00    +0.043 A 
ATOM     28  C   UNL     1       6.110  -3.214   2.084  0.00  0.00    +0.021 A 
ATOM     29  C   UNL     1       6.073  -3.185   0.703  0.00  0.00    +0.023 A 
ATOM     30  C   UNL     1       5.102  -2.447   0.051  0.00  0.00    +0.063 A 
ATOM     31 CL   UNL     1       5.053  -2.417  -1.684  0.00  0.00    -0.082 Cl
ATOM     32 CL   UNL     1       5.229  -2.541   4.554  0.00  0.00    -0.083 Cl
ENDBRANCH  16  25
TORSDOF 1
