REMARK  Name = ZINC20190488
REMARK  13 active torsions:
REMARK  status: ('A' for Active; 'I' for Inactive)
REMARK    1  A    between atoms: C_1  and  C_2
REMARK    2  A    between atoms: C_2  and  S_3
REMARK    3  A    between atoms: S_3  and  C_4
REMARK    4  A    between atoms: C_4  and  C_5
REMARK    5  A    between atoms: C_5  and  O_6
REMARK    6  A    between atoms: O_6  and  C_7
REMARK    7  A    between atoms: C_7  and  C_9
REMARK    8  A    between atoms: C_10  and  C_35
REMARK    9  A    between atoms: C_14  and  C_16
REMARK   10  A    between atoms: C_25  and  C_31
REMARK   11  A    between atoms: C_27  and  C_30
REMARK   12  A    between atoms: C_31  and  O_33
REMARK   13  A    between atoms: O_33  and  C_34
REMARK                            x       y       z     vdW  Elec       q    Type
REMARK                         _______ _______ _______ _____ _____    ______ ____
ROOT
ATOM      1  C   UNL     1       1.229   1.919  -0.221  0.00  0.00    +0.065 C 
ATOM      2  C   UNL     1       2.365   1.271   0.088  0.00  0.00    +0.016 C 
ATOM      3  N   UNL     1       3.523   1.965   0.301  0.00  0.00    -0.321 N 
ATOM      4  C   UNL     1       3.667   3.243  -0.170  0.00  0.00    +0.016 C 
ATOM      5  C   UNL     1       2.583   3.980  -0.491  0.00  0.00    +0.025 C 
ATOM      6  C   UNL     1       1.194   3.415  -0.340  0.00  0.00    +0.092 C 
ATOM      7  C   UNL     1       2.716   5.293  -0.975  0.00  0.00    +0.176 C 
ATOM      8  O   UNL     1       1.720   5.924  -1.271  0.00  0.00    -0.291 OA
ATOM      9  C   UNL     1       4.069   5.933  -1.131  0.00  0.00    +0.171 C 
ATOM     10  C   UNL     1       5.032   5.317  -0.110  0.00  0.00    +0.013 C 
ATOM     11  C   UNL     1       5.060   3.801  -0.323  0.00  0.00    +0.055 C 
ATOM     12  C   UNL     1       4.550   5.632   1.307  0.00  0.00    +0.009 C 
ATOM     13  C   UNL     1       2.362  -0.232   0.203  0.00  0.00    +0.061 C 
ATOM     14  H   UNL     1       4.351   1.498   0.854  0.00  0.00    +0.152 HD
ENDROOT
BRANCH   6  15
ATOM     15  C   UNL     1       0.561   3.995   0.898  0.00  0.00    -0.035 A 
ATOM     16  C   UNL     1       1.126   3.763   2.137  0.00  0.00    +0.005 A 
ATOM     17  C   UNL     1       0.548   4.299   3.273  0.00  0.00    +0.015 A 
ATOM     18  C   UNL     1      -0.603   5.059   3.169  0.00  0.00    +0.018 A 
ATOM     19  C   UNL     1      -1.171   5.287   1.929  0.00  0.00    +0.015 A 
ATOM     20  C   UNL     1      -0.589   4.755   0.794  0.00  0.00    +0.005 A 
ATOM     21 BR   UNL     1      -1.398   5.788   4.722  0.00  0.00    -0.050 Br
ENDBRANCH   6  15
BRANCH   1  22
ATOM     22  C   UNL     1       0.046   1.178  -0.444  0.00  0.00    +0.338 C 
ATOM     23  O   UNL     1       0.086  -0.038  -0.476  0.00  0.00    -0.245 OA
BRANCH  22  24
ATOM     24  O   UNL     1      -1.128   1.819  -0.627  0.00  0.00    -0.460 OA
BRANCH  24  25
ATOM     25  C   UNL     1      -2.282   1.008  -0.853  0.00  0.00    +0.243 C 
BRANCH  25  26
ATOM     26  C   UNL     1      -3.508   1.904  -1.037  0.00  0.00    +0.110 C 
BRANCH  26  27
ATOM     27  S   UNL     1      -4.973   0.874  -1.324  0.00  0.00    -0.158 S 
BRANCH  27  29
ATOM     28  C   UNL     1      -7.633   1.328  -1.771  0.00  0.00    +0.015 C 
ATOM     29  C   UNL     1      -6.321   2.073  -1.519  0.00  0.00    +0.066 C 
ENDBRANCH  27  29
ENDBRANCH  26  27
ENDBRANCH  25  26
ENDBRANCH  24  25
ENDBRANCH  22  24
ENDBRANCH   1  22
BRANCH   9  30
ATOM     30  C   UNL     1       3.957   7.416  -0.888  0.00  0.00    +0.318 C 
ATOM     31  O   UNL     1       4.590   7.931   0.004  0.00  0.00    -0.250 OA
BRANCH  30  32
ATOM     32  O   UNL     1       3.155   8.164  -1.661  0.00  0.00    -0.467 OA
ATOM     33  C   UNL     1       3.097   9.585  -1.369  0.00  0.00    +0.280 C 
ENDBRANCH  30  32
ENDBRANCH   9  30
TORSDOF 9
