REMARK  Name = ZINC24062404
REMARK  12 active torsions:
REMARK  status: ('A' for Active; 'I' for Inactive)
REMARK    1  A    between atoms: C_1  and  N_2
REMARK    2  A    between atoms: N_2  and  C_3
REMARK    3  A    between atoms: N_2  and  C_4
REMARK    4  A    between atoms: C_4  and  C_6
REMARK    5  A    between atoms: C_4  and  C_28
REMARK    6  A    between atoms: C_6  and  N_7
REMARK    7  A    between atoms: C_8  and  C_10
REMARK    8  A    between atoms: C_11  and  C_12
REMARK    9  A    between atoms: C_15  and  S_18
REMARK   10  A    between atoms: S_18  and  N_21
REMARK   11  A    between atoms: N_21  and  C_22
REMARK   12  A    between atoms: C_22  and  C_23
REMARK                            x       y       z     vdW  Elec       q    Type
REMARK                         _______ _______ _______ _____ _____    ______ ____
ROOT
ATOM      1  C   UNL     1       5.913   5.585   3.098  0.00  0.00    +0.068 C 
ATOM      2  C   UNL     1       6.366   5.893   4.330  0.00  0.00    +0.013 C 
ENDROOT
BRANCH   2   3
ATOM      3  C   UNL     1       7.728   6.426   4.501  0.00  0.00    -0.025 A 
ATOM      4  C   UNL     1       8.556   6.608   3.389  0.00  0.00    +0.010 A 
ATOM      5  C   UNL     1       9.829   7.111   3.557  0.00  0.00    +0.029 A 
ATOM      6  C   UNL     1      10.291   7.427   4.823  0.00  0.00    +0.105 A 
ATOM      7  C   UNL     1       9.479   7.244   5.929  0.00  0.00    +0.029 A 
ATOM      8  C   UNL     1       8.202   6.746   5.777  0.00  0.00    +0.010 A 
BRANCH   6   9
ATOM      9  S   UNL     1      11.921   8.063   5.028  0.00  0.00    +0.059 S 
ATOM     10  O   UNL     1      12.285   8.654   3.788  0.00  0.00    -0.153 OA
ATOM     11  O   UNL     1      11.922   8.791   6.248  0.00  0.00    -0.153 OA
BRANCH   9  12
ATOM     12  N   UNL     1      12.928   6.768   5.249  0.00  0.00    -0.183 NA
ATOM     13  H   UNL     1      13.315   6.553   6.256  0.00  0.00    +0.148 HD
BRANCH  12  14
ATOM     14  C   UNL     1      13.123   5.799   4.167  0.00  0.00    +0.180 C 
BRANCH  14  15
ATOM     15  C   UNL     1      14.331   4.949   4.466  0.00  0.00    +0.120 A 
ATOM     16  C   UNL     1      14.329   3.790   5.149  0.00  0.00    +0.046 A 
ATOM     17  C   UNL     1      15.667   3.337   5.192  0.00  0.00    +0.041 A 
ATOM     18  C   UNL     1      16.408   4.247   4.533  0.00  0.00    +0.195 A 
ATOM     19  O   UNL     1      15.593   5.218   4.091  0.00  0.00    -0.466 OA
ENDBRANCH  14  15
ENDBRANCH  12  14
ENDBRANCH   9  12
ENDBRANCH   6   9
ENDBRANCH   2   3
BRANCH   1  21
ATOM     20  N   UNL     1       4.105   4.748   1.697  0.00  0.00    -0.313 N 
ATOM     21  C   UNL     1       4.558   5.056   2.928  0.00  0.00    +0.237 C 
ATOM     22  O   UNL     1       3.842   4.893   3.898  0.00  0.00    -0.271 OA
ATOM     23  H   UNL     1       4.752   4.894   0.820  0.00  0.00    +0.149 HD
BRANCH  20  24
ATOM     24  C   UNL     1       2.750   4.218   1.527  0.00  0.00    +0.094 C 
BRANCH  24  25
ATOM     25  C   UNL     1       2.488   3.954   0.042  0.00  0.00    -0.020 C 
BRANCH  25  26
ATOM     26  C   UNL     1       1.142   3.296  -0.121  0.00  0.00    -0.041 A 
ATOM     27  C   UNL     1       0.606   2.552   0.914  0.00  0.00    +0.003 A 
ATOM     28  C   UNL     1      -0.628   1.948   0.764  0.00  0.00    +0.000 A 
ATOM     29  C   UNL     1      -1.324   2.082  -0.423  0.00  0.00    +0.001 A 
ATOM     30  C   UNL     1      -0.792   2.829  -1.456  0.00  0.00    +0.020 A 
ATOM     31  C   UNL     1       0.444   3.435  -1.307  0.00  0.00    +0.043 A 
ATOM     32 CL   UNL     1       1.116   4.369  -2.607  0.00  0.00    -0.083 Cl
ENDBRANCH  25  26
BRANCH  25  34
ATOM     33  C   UNL     1       3.468   1.742   0.135  0.00  0.00    -0.096 C 
ATOM     34  N   UNL     1       3.534   3.070  -0.490  0.00  0.00    +0.382 N 
ATOM     35  C   UNL     1       3.443   2.969  -1.953  0.00  0.00    -0.096 C 
ATOM     36  H   UNL     1       4.509   3.513  -0.241  0.00  0.00    -0.082 HD
ENDBRANCH  25  34
ENDBRANCH  24  25
ENDBRANCH  20  24
ENDBRANCH   1  21
TORSDOF 10
