REMARK  Name = ZINC20207508
REMARK  11 active torsions:
REMARK  status: ('A' for Active; 'I' for Inactive)
REMARK    1  A    between atoms: C_1  and  C_2
REMARK    2  A    between atoms: C_6  and  O_8
REMARK    3  A    between atoms: O_8  and  C_9
REMARK    4  A    between atoms: C_9  and  C_10
REMARK    5  A    between atoms: C_10  and  O_11
REMARK    6  A    between atoms: O_11  and  C_12
REMARK    7  A    between atoms: C_15  and  C_20
REMARK    8  A    between atoms: C_17  and  O_18
REMARK    9  A    between atoms: O_18  and  C_19
REMARK   10  A    between atoms: C_30  and  S_32
REMARK   11  A    between atoms: S_32  and  C_35
REMARK                            x       y       z     vdW  Elec       q    Type
REMARK                         _______ _______ _______ _____ _____    ______ ____
ROOT
ATOM      1  C   UNL     1      -1.514  -4.926   5.727  0.00  0.00    +0.162 A 
ATOM      2  C   UNL     1      -0.609  -5.862   6.213  0.00  0.00    +0.050 A 
ATOM      3  C   UNL     1      -0.685  -6.286   7.520  0.00  0.00    +0.012 A 
ATOM      4  C   UNL     1      -1.679  -5.772   8.365  0.00  0.00    -0.021 A 
ATOM      5  C   UNL     1      -2.592  -4.828   7.873  0.00  0.00    +0.057 A 
ATOM      6  C   UNL     1      -2.502  -4.405   6.563  0.00  0.00    +0.162 A 
ENDROOT
BRANCH   4   7
ATOM      7  C   UNL     1      -1.765  -6.221   9.756  0.00  0.00    +0.024 C 
ATOM      8  C   UNL     1      -0.619  -6.556  10.443  0.00  0.00    +0.081 C 
ATOM      9  C   UNL     1       0.737  -6.304   9.879  0.00  0.00    +0.153 C 
ATOM     10  N   UNL     1       1.015  -5.287   9.107  0.00  0.00    -0.283 NA
ATOM     11  N   UNL     1       1.691  -7.271  10.260  0.00  0.00    -0.150 N 
ATOM     12  C   UNL     1       1.450  -7.982  11.416  0.00  0.00    +0.182 C 
ATOM     13  N   UNL     1       0.381  -7.939  12.171  0.00  0.00    -0.152 NA
ATOM     14  C   UNL     1      -0.668  -7.180  11.789  0.00  0.00    +0.273 C 
ATOM     15  O   UNL     1      -1.629  -7.015  12.523  0.00  0.00    -0.268 OA
ATOM     16  S   UNL     1       2.927  -8.950  11.572  0.00  0.00    -0.015 S 
ATOM     17  C   UNL     1       3.712  -8.426  10.054  0.00  0.00    +0.235 C 
ATOM     18  N   UNL     1       2.856  -7.565   9.584  0.00  0.00    -0.145 NA
ATOM     19  H   UNL     1       1.916  -5.169   8.766  0.00  0.00    +0.188 HD
BRANCH  17  20
ATOM     20  S   UNL     1       5.251  -8.943   9.369  0.00  0.00    +0.019 S 
ATOM     21  O   UNL     1       5.402 -10.291   9.793  0.00  0.00    -0.168 OA
ATOM     22  O   UNL     1       5.158  -8.625   7.987  0.00  0.00    -0.168 OA
ATOM     23  C   UNL     1       6.494  -7.893  10.171  0.00  0.00    +0.202 C 
ENDBRANCH  17  20
ENDBRANCH   4   7
BRANCH   6  24
ATOM     24  O   UNL     1      -3.382  -3.485   6.084  0.00  0.00    -0.491 OA
ATOM     25  C   UNL     1      -4.368  -2.995   6.995  0.00  0.00    +0.277 C 
ENDBRANCH   6  24
BRANCH   1  26
ATOM     26  O   UNL     1      -1.432  -4.512   4.437  0.00  0.00    -0.485 OA
BRANCH  26  27
ATOM     27  C   UNL     1      -0.396  -5.085   3.636  0.00  0.00    +0.270 C 
BRANCH  27  28
ATOM     28  C   UNL     1      -0.462  -4.501   2.223  0.00  0.00    +0.270 C 
BRANCH  28  29
ATOM     29  O   UNL     1      -0.173  -3.103   2.272  0.00  0.00    -0.489 OA
BRANCH  29  35
ATOM     30  C   UNL     1       0.359   1.093  -0.164  0.00  0.00    +0.044 C 
ATOM     31  C   UNL     1       0.064  -0.384  -0.135  0.00  0.00    -0.047 A 
ATOM     32  C   UNL     1      -0.225  -1.054  -1.309  0.00  0.00    +0.003 A 
ATOM     33  C   UNL     1      -0.495  -2.410  -1.286  0.00  0.00    +0.004 A 
ATOM     34  C   UNL     1      -0.479  -3.098  -0.088  0.00  0.00    +0.045 A 
ATOM     35  C   UNL     1      -0.190  -2.428   1.092  0.00  0.00    +0.121 A 
ATOM     36  C   UNL     1       0.088  -1.069   1.065  0.00  0.00    +0.049 A 
ENDBRANCH  29  35
ENDBRANCH  28  29
ENDBRANCH  27  28
ENDBRANCH  26  27
ENDBRANCH   1  26
TORSDOF 8
