REMARK  Name = ZINC10034071
REMARK  8 active torsions:
REMARK  status: ('A' for Active; 'I' for Inactive)
REMARK    1  A    between atoms: C_1  and  C_2
REMARK    2  A    between atoms: C_7  and  N_8
REMARK    3  A    between atoms: C_9  and  N_18
REMARK    4  A    between atoms: C_19  and  C_21
REMARK    5  A    between atoms: N_23  and  C_24
REMARK    6  A    between atoms: C_27  and  C_34
REMARK    7  A    between atoms: C_30  and  C_32
REMARK    8  A    between atoms: C_30  and  C_33
REMARK                            x       y       z     vdW  Elec       q    Type
REMARK                         _______ _______ _______ _____ _____    ______ ____
ROOT
ATOM      1  N   UNL     1      -3.964   2.146  -0.940  0.00  0.00    -0.217 N 
ATOM      2  C   UNL     1      -3.957   1.904   0.395  0.00  0.00    +0.134 A 
ATOM      3  C   UNL     1      -2.775   1.262   0.695  0.00  0.00    +0.038 A 
ATOM      4  C   UNL     1      -2.057   1.126  -0.481  0.00  0.00    +0.091 A 
ATOM      5  N   UNL     1      -2.768   1.656  -1.467  0.00  0.00    -0.168 NA
ATOM      6  C   UNL     1      -0.696   0.440  -0.379  0.00  0.00    +0.223 C 
ATOM      7  S   UNL     1      -0.799  -0.358   1.275  0.00  0.00    -0.021 S 
ATOM      8  O   UNL     1      -1.289  -1.683   1.129  0.00  0.00    -0.174 OA
ATOM      9  O   UNL     1       0.409  -0.126   1.987  0.00  0.00    -0.174 OA
ATOM     10  C   UNL     1      -2.128   0.712   1.964  0.00  0.00    +0.206 C 
ENDROOT
BRANCH   1  17
ATOM     11  C   UNL     1      -4.892   0.911  -3.330  0.00  0.00    +0.046 C 
ATOM     12  C   UNL     1      -5.467   2.211  -2.831  0.00  0.00    -0.025 A 
ATOM     13  C   UNL     1      -6.479   2.835  -3.535  0.00  0.00    +0.005 A 
ATOM     14  C   UNL     1      -7.008   4.027  -3.077  0.00  0.00    +0.000 A 
ATOM     15  C   UNL     1      -6.527   4.599  -1.913  0.00  0.00    +0.002 A 
ATOM     16  C   UNL     1      -5.516   3.980  -1.205  0.00  0.00    +0.028 A 
ATOM     17  C   UNL     1      -4.986   2.780  -1.660  0.00  0.00    +0.070 A 
ENDBRANCH   1  17
BRANCH   2  18
ATOM     18  N   UNL     1      -4.962   2.239   1.297  0.00  0.00    -0.262 N 
ATOM     19  C   UNL     1      -4.655   2.491   2.585  0.00  0.00    +0.304 C 
ATOM     20  O   UNL     1      -3.516   2.345   2.977  0.00  0.00    -0.265 OA
ATOM     21  H   UNL     1      -5.883   2.292   0.998  0.00  0.00    +0.157 HD
BRANCH  19  22
ATOM     22  C   UNL     1      -5.717   2.949   3.529  0.00  0.00    +0.300 C 
ATOM     23  O   UNL     1      -6.872   3.007   3.162  0.00  0.00    -0.265 OA
ATOM     24  N   UNL     1      -5.393   3.297   4.790  0.00  0.00    -0.305 N 
ATOM     25  H   UNL     1      -4.462   3.321   5.063  0.00  0.00    +0.149 HD
BRANCH  24  26
ATOM     26  C   UNL     1      -6.446   3.639   5.749  0.00  0.00    +0.074 C 
ATOM     27  C   UNL     1      -5.823   4.327   6.966  0.00  0.00    +0.025 C 
ATOM     28  C   UNL     1      -4.818   3.382   7.628  0.00  0.00    -0.012 C 
ATOM     29  C   UNL     1      -5.535   2.107   8.075  0.00  0.00    +0.009 C 
ATOM     30  C   UNL     1      -6.158   1.419   6.858  0.00  0.00    -0.033 C 
ATOM     31  C   UNL     1      -7.163   2.364   6.196  0.00  0.00    +0.028 C 
ATOM     32  C   UNL     1      -5.058   1.061   5.856  0.00  0.00    +0.011 C 
ATOM     33  C   UNL     1      -6.875   0.143   7.305  0.00  0.00    +0.011 C 
ATOM     34  C   UNL     1      -4.196   4.071   8.844  0.00  0.00    +0.007 C 
ENDBRANCH  24  26
ENDBRANCH  19  22
ENDBRANCH   2  18
TORSDOF 4
