REMARK  Name = ZINC13679439
REMARK  11 active torsions:
REMARK  status: ('A' for Active; 'I' for Inactive)
REMARK    1  A    between atoms: C_1  and  C_2
REMARK    2  A    between atoms: C_7  and  N_8
REMARK    3  A    between atoms: N_8  and  C_9
REMARK    4  A    between atoms: N_8  and  S_31
REMARK    5  A    between atoms: C_9  and  C_11
REMARK    6  A    between atoms: C_9  and  C_12
REMARK    7  A    between atoms: N_14  and  C_15
REMARK    8  A    between atoms: C_20  and  C_21
REMARK    9  A    between atoms: N_23  and  C_24
REMARK   10  A    between atoms: C_24  and  C_25
REMARK   11  A    between atoms: S_31  and  C_34
REMARK                            x       y       z     vdW  Elec       q    Type
REMARK                         _______ _______ _______ _____ _____    ______ ____
ROOT
ATOM      1  C   UNL     1      -8.752  -0.583  -3.757  0.00  0.00    +0.239 C 
ATOM      2  O   UNL     1      -9.673   0.017  -3.243  0.00  0.00    -0.273 OA
ATOM      3  N   UNL     1      -7.483  -0.187  -3.537  0.00  0.00    -0.283 N 
ATOM      4  H   UNL     1      -6.752  -0.618  -4.008  0.00  0.00    +0.155 HD
ENDROOT
BRANCH   3   5
ATOM      5  C   UNL     1      -7.221   0.840  -2.634  0.00  0.00    +0.046 A 
ATOM      6  C   UNL     1      -8.009   0.991  -1.500  0.00  0.00    +0.024 A 
ATOM      7  C   UNL     1      -7.746   2.009  -0.606  0.00  0.00    +0.002 A 
ATOM      8  C   UNL     1      -6.698   2.887  -0.831  0.00  0.00    +0.001 A 
ATOM      9  C   UNL     1      -5.903   2.750  -1.948  0.00  0.00    +0.015 A 
ATOM     10  C   UNL     1      -6.159   1.727  -2.864  0.00  0.00    +0.058 A 
BRANCH  10  11
ATOM     11  C   UNL     1      -5.314   1.578  -4.064  0.00  0.00    +0.246 C 
ATOM     12  O   UNL     1      -5.485   0.637  -4.815  0.00  0.00    -0.270 OA
ATOM     13  N   UNL     1      -4.352   2.484  -4.329  0.00  0.00    -0.309 N 
ATOM     14  H   UNL     1      -4.216   3.235  -3.730  0.00  0.00    +0.149 HD
BRANCH  13  15
ATOM     15  C   UNL     1      -3.513   2.336  -5.520  0.00  0.00    +0.136 C 
BRANCH  15  16
ATOM     16  C   UNL     1      -2.510   3.488  -5.584  0.00  0.00    +0.135 C 
ATOM     17  C   UNL     1      -1.706   3.412  -6.897  0.00  0.00    +0.035 C 
ATOM     18  C   UNL     1      -0.233   3.303  -6.435  0.00  0.00    +0.031 C 
ATOM     19  C   UNL     1      -0.302   3.867  -4.993  0.00  0.00    +0.160 C 
ATOM     20  O   UNL     1      -1.570   3.379  -4.502  0.00  0.00    -0.375 OA
ENDBRANCH  15  16
ENDBRANCH  13  15
ENDBRANCH  10  11
ENDBRANCH   3   5
BRANCH   1  21
ATOM     21  C   UNL     1      -9.028  -1.771  -4.642  0.00  0.00    +0.180 C 
ATOM     22  C   UNL     1      -8.338  -3.009  -4.064  0.00  0.00    +0.040 C 
BRANCH  21  23
ATOM     23  N   UNL     1     -10.473  -2.005  -4.710  0.00  0.00    -0.196 N 
BRANCH  23  30
ATOM     24  C   UNL     1     -10.484  -4.777  -4.074  0.00  0.00    +0.046 C 
ATOM     25  C   UNL     1     -11.200  -3.761  -3.223  0.00  0.00    -0.028 A 
ATOM     26  C   UNL     1     -11.884  -4.165  -2.093  0.00  0.00    +0.006 A 
ATOM     27  C   UNL     1     -12.546  -3.234  -1.313  0.00  0.00    +0.020 A 
ATOM     28  C   UNL     1     -12.521  -1.894  -1.659  0.00  0.00    +0.043 A 
ATOM     29  C   UNL     1     -11.834  -1.483  -2.786  0.00  0.00    +0.045 A 
ATOM     30  C   UNL     1     -11.168  -2.417  -3.570  0.00  0.00    +0.056 A 
ATOM     31 CL   UNL     1     -13.353  -0.729  -0.678  0.00  0.00    -0.083 Cl
ENDBRANCH  23  30
BRANCH  23  32
ATOM     32  S   UNL     1     -11.282  -1.780  -6.137  0.00  0.00    +0.043 S 
ATOM     33  O   UNL     1     -12.604  -1.428  -5.753  0.00  0.00    -0.155 OA
ATOM     34  O   UNL     1     -10.475  -0.871  -6.872  0.00  0.00    -0.155 OA
ATOM     35  C   UNL     1     -11.276  -3.408  -6.937  0.00  0.00    +0.218 C 
ENDBRANCH  23  32
ENDBRANCH  21  23
ENDBRANCH   1  21
TORSDOF 8
