REMARK  Name = ZINC05603705
REMARK  3 active torsions:
REMARK  status: ('A' for Active; 'I' for Inactive)
REMARK    1  A    between atoms: C_4  and  S_10
REMARK    2  A    between atoms: C_6  and  N_7
REMARK    3  A    between atoms: S_10  and  N_13
REMARK                            x       y       z     vdW  Elec       q    Type
REMARK                         _______ _______ _______ _____ _____    ______ ____
ROOT
ATOM      1  C   UNL     1      -0.017   1.378   0.010  0.00  0.00    +0.034 A 
ATOM      2  C   UNL     1       1.171   2.086   0.002  0.00  0.00    +0.024 A 
ATOM      3  C   UNL     1       2.378   1.410  -0.013  0.00  0.00    +0.068 A 
ATOM      4  C   UNL     1       2.396   0.027  -0.021  0.00  0.00    +0.133 A 
ATOM      5  C   UNL     1       1.208  -0.680  -0.013  0.00  0.00    +0.063 A 
ATOM      6  C   UNL     1       0.002  -0.004   0.002  0.00  0.00    +0.128 A 
ATOM      7 CL   UNL     1       3.870   2.298  -0.023  0.00  0.00    -0.082 Cl
ENDROOT
BRANCH   6   8
ATOM      8  N   UNL     1      -1.270  -0.761   0.011  0.00  0.00    +0.056 N 
ATOM      9  O   UNL     1      -2.325  -0.171   0.024  0.00  0.00    -0.126 OA
ATOM     10  O   UNL     1      -1.254  -1.970   0.004  0.00  0.00    -0.126 OA
ENDBRANCH   6   8
BRANCH   4  11
ATOM     11  S   UNL     1       3.933  -0.834  -0.041  0.00  0.00    +0.102 S 
ATOM     12  O   UNL     1       4.736  -0.257   0.980  0.00  0.00    -0.146 OA
ATOM     13  O   UNL     1       3.622  -2.220  -0.072  0.00  0.00    -0.146 OA
BRANCH  11  14
ATOM     14  N   UNL     1       4.673  -0.482  -1.480  0.00  0.00    -0.118 NA
ATOM     15  C   UNL     1       5.830  -0.992  -1.754  0.00  0.00    +0.117 C 
ATOM     16  N   UNL     1       6.535  -1.836  -0.938  0.00  0.00    -0.331 N 
ATOM     17  C   UNL     1       7.521  -2.576  -1.743  0.00  0.00    +0.103 C 
ATOM     18  C   UNL     1       7.886  -1.609  -2.891  0.00  0.00    +0.026 C 
ATOM     19  C   UNL     1       6.610  -0.751  -3.028  0.00  0.00    +0.074 C 
ATOM     20  H   UNL     1       6.405  -1.932   0.018  0.00  0.00    +0.147 HD
ENDBRANCH  11  14
ENDBRANCH   4  11
TORSDOF 3
