REMARK  Name = ZINC09090676
REMARK  8 active torsions:
REMARK  status: ('A' for Active; 'I' for Inactive)
REMARK    1  A    between atoms: C_2  and  C_3
REMARK    2  A    between atoms: C_3  and  N_4
REMARK    3  A    between atoms: N_4  and  C_5
REMARK    4  A    between atoms: C_5  and  N_7
REMARK    5  A    between atoms: C_12  and  N_62
REMARK    6  A    between atoms: C_24  and  N_26
REMARK    7  A    between atoms: N_26  and  S_27
REMARK    8  A    between atoms: S_27  and  C_30
REMARK                            x       y       z     vdW  Elec       q    Type
REMARK                         _______ _______ _______ _____ _____    ______ ____
ROOT
ATOM      1  C   UNL     1      -7.354  -0.786  -4.338  0.00  0.00    -0.014 C 
ATOM      2  C   UNL     1      -7.810  -1.438  -3.055  0.00  0.00    -0.051 A 
ATOM      3  C   UNL     1      -8.388  -0.994  -1.907  0.00  0.00    +0.003 A 
ATOM      4  C   UNL     1      -8.691  -1.887  -0.877  0.00  0.00    +0.001 A 
ATOM      5  C   UNL     1      -8.428  -3.224  -0.968  0.00  0.00    +0.008 A 
ATOM      6  C   UNL     1      -7.831  -3.717  -2.139  0.00  0.00    -0.017 A 
ATOM      7  C   UNL     1      -7.535  -2.800  -3.163  0.00  0.00    -0.012 A 
ATOM      8  C   UNL     1      -6.944  -3.178  -4.364  0.00  0.00    -0.022 A 
ATOM      9  C   UNL     1      -6.647  -4.495  -4.543  0.00  0.00    +0.006 A 
ATOM     10  C   UNL     1      -6.932  -5.425  -3.540  0.00  0.00    +0.001 A 
ATOM     11  C   UNL     1      -7.511  -5.068  -2.357  0.00  0.00    +0.008 A 
ATOM     12  C   UNL     1      -6.784  -1.932  -5.201  0.00  0.00    +0.098 C 
ENDROOT
BRANCH   1  18
ATOM     13  N   UNL     1      -5.059   2.684  -3.782  0.00  0.00    -0.316 N 
ATOM     14  C   UNL     1      -5.515   1.987  -2.570  0.00  0.00    +0.088 C 
ATOM     15  C   UNL     1      -6.702   1.088  -2.949  0.00  0.00    -0.059 C 
ATOM     16  C   UNL     1      -5.988   0.986  -5.264  0.00  0.00    -0.059 C 
ATOM     17  C   UNL     1      -4.777   1.881  -4.982  0.00  0.00    +0.088 C 
ATOM     18  N   UNL     1      -6.285   0.194  -4.051  0.00  0.00    +0.388 N 
ATOM     19  H   UNL     1      -5.438  -0.312  -3.767  0.00  0.00    -0.081 HD
BRANCH  13  20
ATOM     20  C   UNL     1      -4.899   4.022  -3.791  0.00  0.00    +0.133 C 
ATOM     21  S   UNL     1      -5.109   4.920  -2.349  0.00  0.00    -0.019 S 
BRANCH  20  22
ATOM     22  N   UNL     1      -4.573   4.654  -4.937  0.00  0.00    -0.323 N 
ATOM     23  H   UNL     1      -4.383   4.140  -5.737  0.00  0.00    +0.148 HD
BRANCH  22  24
ATOM     24  C   UNL     1      -4.506   6.117  -4.973  0.00  0.00    +0.130 C 
BRANCH  24  26
ATOM     25  C   UNL     1      -4.886   7.415  -7.005  0.00  0.00    +0.005 C 
ATOM     26  C   UNL     1      -4.124   6.568  -6.359  0.00  0.00    -0.016 C 
ENDBRANCH  24  26
ENDBRANCH  22  24
ENDBRANCH  20  22
ENDBRANCH  13  20
ENDBRANCH   1  18
BRANCH  12  27
ATOM     27  N   UNL     1      -5.369  -1.693  -5.493  0.00  0.00    -0.184 NA
ATOM     28  H   UNL     1      -4.800  -1.275  -4.827  0.00  0.00    +0.149 HD
BRANCH  27  29
ATOM     29  S   UNL     1      -4.739  -2.135  -6.959  0.00  0.00    +0.059 S 
ATOM     30  O   UNL     1      -3.371  -1.752  -6.946  0.00  0.00    -0.153 OA
ATOM     31  O   UNL     1      -5.153  -3.474  -7.192  0.00  0.00    -0.153 OA
BRANCH  29  32
ATOM     32  C   UNL     1      -5.528  -1.144  -8.185  0.00  0.00    +0.105 A 
ATOM     33  C   UNL     1      -6.691  -1.586  -8.788  0.00  0.00    +0.028 A 
ATOM     34  C   UNL     1      -7.311  -0.807  -9.746  0.00  0.00    +0.002 A 
ATOM     35  C   UNL     1      -6.764   0.410 -10.108  0.00  0.00    +0.000 A 
ATOM     36  C   UNL     1      -5.599   0.850  -9.509  0.00  0.00    +0.002 A 
ATOM     37  C   UNL     1      -4.980   0.072  -8.547  0.00  0.00    +0.028 A 
ENDBRANCH  29  32
ENDBRANCH  27  29
ENDBRANCH  12  27
TORSDOF 8
