REMARK  Name = ZINC04030397
REMARK  11 active torsions:
REMARK  status: ('A' for Active; 'I' for Inactive)
REMARK    1  A    between atoms: C_1  and  C_2
REMARK    2  A    between atoms: C_2  and  N_3
REMARK    3  A    between atoms: N_3  and  C_4
REMARK    4  A    between atoms: N_3  and  C_6
REMARK    5  A    between atoms: C_4  and  C_5
REMARK    6  A    between atoms: C_9  and  C_12
REMARK    7  A    between atoms: C_14  and  C_32
REMARK    8  A    between atoms: C_15  and  C_31
REMARK    9  A    between atoms: C_20  and  S_22
REMARK   10  A    between atoms: S_22  and  C_23
REMARK   11  A    between atoms: C_23  and  C_24
REMARK                            x       y       z     vdW  Elec       q    Type
REMARK                         _______ _______ _______ _____ _____    ______ ____
ROOT
ATOM      1  C   UNL     1      -3.917  -1.663   4.996  0.00  0.00    +0.166 C 
ATOM      2  C   UNL     1      -4.060  -3.159   5.217  0.00  0.00    +0.059 C 
ATOM      3  C   UNL     1      -5.330  -3.665   5.263  0.00  0.00    +0.026 C 
ATOM      4  N   UNL     1      -6.397  -2.895   5.122  0.00  0.00    -0.330 N 
ATOM      5  C   UNL     1      -6.363  -1.584   4.926  0.00  0.00    +0.217 C 
ATOM      6  N   UNL     1      -5.169  -0.912   4.851  0.00  0.00    -0.187 N 
ATOM      7  N   UNL     1      -5.474   0.435   4.639  0.00  0.00    -0.118 NA
ATOM      8  C   UNL     1      -6.839   0.516   4.593  0.00  0.00    +0.197 C 
ATOM      9  N   UNL     1      -7.343  -0.683   4.767  0.00  0.00    -0.190 NA
ATOM     10  C   UNL     1      -5.519  -5.144   5.480  0.00  0.00    +0.064 C 
ATOM     11  H   UNL     1      -7.267  -3.321   5.165  0.00  0.00    +0.168 HD
ENDROOT
BRANCH   1  15
ATOM     12  C   UNL     1      -1.584  -1.057   1.466  0.00  0.00    +0.030 A 
ATOM     13  C   UNL     1      -0.988  -0.970   2.718  0.00  0.00    +0.023 A 
ATOM     14  C   UNL     1      -1.745  -1.166   3.857  0.00  0.00    +0.007 A 
ATOM     15  C   UNL     1      -3.094  -1.449   3.752  0.00  0.00    -0.021 A 
ATOM     16  C   UNL     1      -3.691  -1.536   2.507  0.00  0.00    +0.007 A 
ATOM     17  C   UNL     1      -2.941  -1.336   1.365  0.00  0.00    +0.023 A 
BRANCH  12  18
ATOM     18  N   UNL     1      -0.822  -0.859   0.313  0.00  0.00    -0.330 N 
BRANCH  18  20
ATOM     19  C   UNL     1       0.814   0.949   0.508  0.00  0.00    +0.024 C 
ATOM     20  C   UNL     1       0.609  -0.565   0.422  0.00  0.00    +0.102 C 
ENDBRANCH  18  20
BRANCH  18  21
ATOM     21  C   UNL     1      -1.454  -0.945  -1.006  0.00  0.00    +0.102 C 
ATOM     22  C   UNL     1      -1.380  -2.387  -1.514  0.00  0.00    +0.024 C 
ENDBRANCH  18  21
ENDBRANCH  12  18
ENDBRANCH   1  15
BRANCH   2  23
ATOM     23  C   UNL     1      -2.935  -3.988   5.368  0.00  0.00    +0.241 C 
ATOM     24  O   UNL     1      -2.360  -4.046   6.441  0.00  0.00    -0.271 OA
ATOM     25  N   UNL     1      -2.493  -4.719   4.326  0.00  0.00    -0.325 N 
ATOM     26  H   UNL     1      -2.990  -4.726   3.492  0.00  0.00    +0.145 HD
ATOM     27  H   UNL     1      -1.677  -5.238   4.409  0.00  0.00    +0.145 HD
ENDBRANCH   2  23
BRANCH   8  28
ATOM     28  S   UNL     1      -7.770   1.991   4.347  0.00  0.00    -0.082 S 
BRANCH  28  29
ATOM     29  C   UNL     1      -9.496   1.433   4.389  0.00  0.00    +0.113 C 
BRANCH  29  30
ATOM     30  C   UNL     1     -10.411   2.613   4.187  0.00  0.00    -0.019 A 
ATOM     31  C   UNL     1     -10.855   3.338   5.277  0.00  0.00    +0.006 A 
ATOM     32  C   UNL     1     -11.694   4.421   5.093  0.00  0.00    +0.000 A 
ATOM     33  C   UNL     1     -12.089   4.780   3.817  0.00  0.00    +0.001 A 
ATOM     34  C   UNL     1     -11.646   4.056   2.727  0.00  0.00    +0.020 A 
ATOM     35  C   UNL     1     -10.802   2.975   2.911  0.00  0.00    +0.045 A 
ATOM     36 CL   UNL     1     -10.239   2.070   1.540  0.00  0.00    -0.083 Cl
ENDBRANCH  29  30
ENDBRANCH  28  29
ENDBRANCH   8  28
TORSDOF 8
