REMARK  Name = ZINC35686070
REMARK  6 active torsions:
REMARK  status: ('A' for Active; 'I' for Inactive)
REMARK    1  A    between atoms: C_1  and  C_2
REMARK    2  A    between atoms: C_4  and  O_22
REMARK    3  A    between atoms: C_7  and  N_8
REMARK    4  A    between atoms: N_8  and  S_9
REMARK    5  A    between atoms: S_9  and  C_12
REMARK    6  A    between atoms: C_16  and  N_18
REMARK                            x       y       z     vdW  Elec       q    Type
REMARK                         _______ _______ _______ _____ _____    ______ ____
ROOT
ATOM      1  S   UNL     1       0.764  -0.672   3.744  0.00  0.00    +0.072 S 
ATOM      2  O   UNL     1       0.519   0.214   4.827  0.00  0.00    -0.150 OA
ATOM      3  O   UNL     1       0.387  -2.042   3.779  0.00  0.00    -0.150 OA
ENDROOT
BRANCH   1   4
ATOM      4  C   UNL     1       2.500  -0.635   3.446  0.00  0.00    +0.111 A 
ATOM      5  C   UNL     1       3.117  -1.703   2.820  0.00  0.00    +0.030 A 
ATOM      6  C   UNL     1       4.478  -1.674   2.585  0.00  0.00    +0.024 A 
ATOM      7  C   UNL     1       5.224  -0.577   2.977  0.00  0.00    +0.071 A 
ATOM      8  C   UNL     1       4.607   0.491   3.603  0.00  0.00    +0.146 A 
ATOM      9  C   UNL     1       3.244   0.464   3.832  0.00  0.00    +0.063 A 
ATOM     10 CL   UNL     1       6.935  -0.540   2.683  0.00  0.00    -0.081 Cl
BRANCH   8  11
ATOM     11  N   UNL     1       5.405   1.665   4.022  0.00  0.00    +0.058 N 
ATOM     12  O   UNL     1       4.865   2.599   4.570  0.00  0.00    -0.126 OA
ATOM     13  O   UNL     1       6.596   1.691   3.818  0.00  0.00    -0.126 OA
ENDBRANCH   8  11
ENDBRANCH   1   4
BRANCH   1  14
ATOM     14  N   UNL     1       0.025  -0.012   2.416  0.00  0.00    -0.216 N 
ATOM     15  H   UNL     1      -0.522   0.783   2.511  0.00  0.00    +0.174 HD
BRANCH  14  22
ATOM     16  C   UNL     1       0.152   1.691   0.143  0.00  0.00    +0.046 C 
ATOM     17  C   UNL     1       0.258   0.193   0.022  0.00  0.00    -0.025 A 
ATOM     18  C   UNL     1       0.427  -0.390  -1.219  0.00  0.00    +0.050 A 
ATOM     19  C   UNL     1       0.523  -1.769  -1.331  0.00  0.00    +0.117 A 
ATOM     20  C   UNL     1       0.451  -2.564  -0.197  0.00  0.00    +0.047 A 
ATOM     21  C   UNL     1       0.282  -1.983   1.045  0.00  0.00    +0.028 A 
ATOM     22  C   UNL     1       0.191  -0.602   1.158  0.00  0.00    +0.051 A 
BRANCH  19  23
ATOM     23  O   UNL     1       0.689  -2.341  -2.553  0.00  0.00    -0.507 OA
ATOM     24  H   UNL     1       1.614  -2.453  -2.813  0.00  0.00    +0.292 HD
ENDBRANCH  19  23
ENDBRANCH  14  22
ENDBRANCH   1  14
TORSDOF 5
