REMARK  Name = ZINC09471266
REMARK  7 active torsions:
REMARK  status: ('A' for Active; 'I' for Inactive)
REMARK    1  A    between atoms: C_4  and  C_7
REMARK    2  A    between atoms: C_7  and  C_8
REMARK    3  A    between atoms: C_8  and  N_9
REMARK    4  A    between atoms: C_10  and  C_29
REMARK    5  A    between atoms: C_12  and  C_17
REMARK    6  A    between atoms: C_17  and  C_19
REMARK    7  A    between atoms: C_33  and  N_35
REMARK                            x       y       z     vdW  Elec       q    Type
REMARK                         _______ _______ _______ _____ _____    ______ ____
ROOT
ATOM      1  N   UNL     1      -3.049   3.012   1.577  0.00  0.00    -0.283 N 
ATOM      2  C   UNL     1      -4.394   2.443   1.435  0.00  0.00    +0.145 C 
ATOM      3  C   UNL     1      -5.349   3.614   1.431  0.00  0.00    +0.076 C 
ATOM      4  C   UNL     1      -4.597   4.732   1.560  0.00  0.00    +0.249 C 
ATOM      5  C   UNL     1      -3.172   4.350   1.655  0.00  0.00    +0.288 C 
ATOM      6  O   UNL     1      -2.249   5.129   1.783  0.00  0.00    -0.266 OA
ATOM      7  O   UNL     1      -5.074   5.997   1.600  0.00  0.00    -0.282 OA
ENDROOT
BRANCH   2   8
ATOM      8  C   UNL     1      -4.500   1.682   0.138  0.00  0.00    -0.020 A 
ATOM      9  C   UNL     1      -4.067   2.261  -1.040  0.00  0.00    +0.006 A 
ATOM     10  C   UNL     1      -4.161   1.562  -2.229  0.00  0.00    +0.003 A 
ATOM     11  C   UNL     1      -4.696   0.287  -2.240  0.00  0.00    +0.033 A 
ATOM     12  C   UNL     1      -5.133  -0.290  -1.063  0.00  0.00    +0.127 A 
ATOM     13  C   UNL     1      -5.036   0.408   0.126  0.00  0.00    +0.038 A 
BRANCH  12  14
ATOM     14  N   UNL     1      -5.707  -1.655  -1.076  0.00  0.00    +0.056 N 
ATOM     15  O   UNL     1      -6.006  -2.199  -0.028  0.00  0.00    -0.126 OA
ATOM     16  O   UNL     1      -5.879  -2.233  -2.134  0.00  0.00    -0.126 OA
ENDBRANCH  12  14
ENDBRANCH   2   8
BRANCH   3  17
ATOM     17  C   UNL     1      -6.809   3.552   1.311  0.00  0.00    +0.195 C 
ATOM     18  O   UNL     1      -7.360   4.014   0.329  0.00  0.00    -0.287 OA
BRANCH  17  19
ATOM     19  C   UNL     1      -7.612   2.929   2.382  0.00  0.00    +0.026 A 
ATOM     20  C   UNL     1      -6.994   2.497   3.560  0.00  0.00    +0.015 A 
ATOM     21  C   UNL     1      -7.746   1.920   4.559  0.00  0.00    +0.050 A 
ATOM     22  C   UNL     1      -9.117   1.754   4.397  0.00  0.00    +0.162 A 
ATOM     23  C   UNL     1      -9.738   2.180   3.225  0.00  0.00    +0.163 A 
ATOM     24  C   UNL     1      -8.990   2.764   2.220  0.00  0.00    +0.061 A 
ATOM     25  O   UNL     1     -11.081   2.033   3.055  0.00  0.00    -0.485 OA
ATOM     26  C   UNL     1     -11.742   1.109   3.927  0.00  0.00    +0.270 C 
ATOM     27  C   UNL     1     -11.256   1.368   5.359  0.00  0.00    +0.270 C 
ATOM     28  O   UNL     1      -9.838   1.174   5.393  0.00  0.00    -0.485 OA
ENDBRANCH  17  19
ENDBRANCH   3  17
BRANCH   1  29
ATOM     29  C   UNL     1      -1.795   2.257   1.631  0.00  0.00    +0.114 C 
BRANCH  29  30
ATOM     30  C   UNL     1      -1.243   2.082   0.215  0.00  0.00    +0.054 C 
BRANCH  30  34
ATOM     31  C   UNL     1       2.415  -0.118   0.361  0.00  0.00    +0.000 A 
ATOM     32  C   UNL     1       1.212  -0.786   0.230  0.00  0.00    +0.000 A 
ATOM     33  C   UNL     1       0.028  -0.074   0.185  0.00  0.00    +0.004 A 
ATOM     34  C   UNL     1       0.047   1.306   0.271  0.00  0.00    -0.046 A 
ATOM     35  C   UNL     1       1.250   1.973   0.402  0.00  0.00    +0.004 A 
ATOM     36  C   UNL     1       2.434   1.261   0.447  0.00  0.00    +0.000 A 
ENDBRANCH  30  34
ENDBRANCH  29  30
ENDBRANCH   1  29
TORSDOF 7
