REMARK  Name = ZINC15956105
REMARK  15 active torsions:
REMARK  status: ('A' for Active; 'I' for Inactive)
REMARK    1  A    between atoms: C_1  and  C_2
REMARK    2  A    between atoms: C_2  and  C_4
REMARK    3  A    between atoms: C_2  and  C_40
REMARK    4  A    between atoms: C_4  and  C_5
REMARK    5  A    between atoms: C_5  and  C_6
REMARK    6  A    between atoms: C_6  and  C_8
REMARK    7  A    between atoms: C_8  and  C_10
REMARK    8  A    between atoms: C_8  and  C_11
REMARK    9  A    between atoms: C_18  and  C_39
REMARK   10  A    between atoms: C_28  and  C_38
REMARK   11  A    between atoms: C_31  and  O_34
REMARK   12  A    between atoms: O_34  and  C_35
REMARK   13  A    between atoms: C_35  and  C_37
REMARK   14  A    between atoms: C_40  and  N_41
REMARK   15  A    between atoms: C_42  and  C_44
REMARK                            x       y       z     vdW  Elec       q    Type
REMARK                         _______ _______ _______ _____ _____    ______ ____
ROOT
ATOM      1  C   UNL     1      -6.436  -0.599   8.929  0.00  0.00    +0.071 C 
ATOM      2  C   UNL     1      -7.106  -1.561   9.893  0.00  0.00    +0.138 C 
ATOM      3  O   UNL     1      -6.575  -2.444  10.514  0.00  0.00    -0.297 OA
ATOM      4  C   UNL     1      -8.580  -1.188   9.916  0.00  0.00    +0.079 C 
ATOM      5  C   UNL     1      -8.783  -0.172   8.787  0.00  0.00    +0.006 C 
ATOM      6  C   UNL     1      -7.542  -0.286   7.882  0.00  0.00    -0.018 C 
ATOM      7  C   UNL     1      -7.656  -1.494   6.957  0.00  0.00    +0.008 C 
ATOM      8  C   UNL     1      -8.964  -1.531   6.185  0.00  0.00    +0.005 C 
ATOM      9  C   UNL     1     -10.199  -1.439   7.069  0.00  0.00    +0.003 C 
ATOM     10  C   UNL     1     -10.085  -0.298   8.050  0.00  0.00    +0.001 C 
ATOM     11  C   UNL     1     -11.283  -0.204   8.988  0.00  0.00    +0.031 C 
ATOM     12  C   UNL     1     -11.664  -1.548   9.526  0.00  0.00    -0.027 C 
ATOM     13  C   UNL     1     -11.423  -2.660   8.908  0.00  0.00    -0.064 C 
ATOM     14  C   UNL     1     -10.684  -2.762   7.603  0.00  0.00    -0.008 C 
ATOM     15  C   UNL     1     -11.657  -3.397   6.589  0.00  0.00    +0.015 C 
ATOM     16  C   UNL     1     -12.187  -4.726   7.112  0.00  0.00    +0.046 C 
ATOM     17  C   UNL     1     -12.912  -4.564   8.445  0.00  0.00    +0.180 C 
ATOM     18  C   UNL     1     -11.977  -3.950   9.492  0.00  0.00    +0.075 C 
ATOM     19  C   UNL     1      -9.531  -3.746   7.784  0.00  0.00    +0.016 C 
ATOM     20  C   UNL     1      -7.257   1.011   7.122  0.00  0.00    +0.012 C 
ENDROOT
BRANCH   1  21
ATOM     21  C   UNL     1      -5.206  -1.231   8.290  0.00  0.00    +0.063 C 
ATOM     22  C   UNL     1      -4.201  -1.606   9.380  0.00  0.00    +0.016 C 
BRANCH  21  23
ATOM     23  C   UNL     1      -4.573  -0.247   7.339  0.00  0.00    +0.137 C 
ATOM     24  O   UNL     1      -4.570   0.931   7.603  0.00  0.00    -0.297 OA
BRANCH  23  25
ATOM     25  C   UNL     1      -3.943  -0.735   6.060  0.00  0.00    +0.075 C 
BRANCH  25  26
ATOM     26  C   UNL     1      -3.378   0.456   5.283  0.00  0.00    +0.012 C 
BRANCH  26  28
ATOM     27  C   UNL     1      -1.530  -0.918   4.313  0.00  0.00    +0.009 C 
ATOM     28  C   UNL     1      -2.739  -0.039   3.985  0.00  0.00    +0.003 C 
BRANCH  28  29
ATOM     29  C   UNL     1      -2.285   1.161   3.150  0.00  0.00    +0.107 C 
BRANCH  29  30
ATOM     30  N   UNL     1      -1.782   0.693   1.856  0.00  0.00    -0.315 N 
ATOM     31  C   UNL     1      -1.325   1.580   0.950  0.00  0.00    +0.210 C 
ATOM     32  O   UNL     1      -1.331   2.766   1.206  0.00  0.00    -0.276 OA
ATOM     33  C   UNL     1      -0.808   1.099  -0.381  0.00  0.00    +0.109 C 
ATOM     34  H   UNL     1      -1.778  -0.255   1.651  0.00  0.00    +0.149 HD
ENDBRANCH  29  30
ENDBRANCH  28  29
ENDBRANCH  26  28
ENDBRANCH  25  26
ENDBRANCH  23  25
ENDBRANCH  21  23
ENDBRANCH   1  21
BRANCH  17  35
ATOM     35  O   UNL     1     -14.071  -3.706   8.269  0.00  0.00    -0.461 OA
BRANCH  35  36
ATOM     36  C   UNL     1     -15.121  -3.926   9.076  0.00  0.00    +0.304 C 
ATOM     37  O   UNL     1     -15.074  -4.807   9.902  0.00  0.00    -0.251 OA
ATOM     38  C   UNL     1     -16.358  -3.075   8.951  0.00  0.00    +0.136 C 
ENDBRANCH  35  36
ENDBRANCH  17  35
TORSDOF 9
