REMARK  Name = ZINC18153073
REMARK  10 active torsions:
REMARK  status: ('A' for Active; 'I' for Inactive)
REMARK    1  A    between atoms: C_1  and  C_2
REMARK    2  A    between atoms: C_2  and  C_12
REMARK    3  A    between atoms: N_3  and  C_4
REMARK    4  A    between atoms: C_4  and  C_5
REMARK    5  A    between atoms: C_5  and  N_6
REMARK    6  A    between atoms: C_13  and  C_28
REMARK    7  A    between atoms: N_16  and  C_19
REMARK    8  A    between atoms: C_22  and  N_25
REMARK    9  A    between atoms: C_31  and  O_34
REMARK   10  A    between atoms: O_34  and  C_35
REMARK                            x       y       z     vdW  Elec       q    Type
REMARK                         _______ _______ _______ _____ _____    ______ ____
ROOT
ATOM      1  C   UNL     1      -0.140  -0.635  -1.364  0.00  0.00    +0.087 A 
ATOM      2  C   UNL     1       0.101  -0.041  -2.605  0.00  0.00    +0.077 A 
ATOM      3  N   UNL     1       0.046  -1.019  -3.557  0.00  0.00    -0.289 N 
ATOM      4  H   UNL     1       0.177  -0.882  -4.508  0.00  0.00    +0.187 HD
ATOM      5  N   UNL     1      -0.227  -2.249  -2.950  0.00  0.00    -0.219 N 
ATOM      6  C   UNL     1      -0.342  -2.066  -1.620  0.00  0.00    +0.281 A 
ATOM      7  O   UNL     1      -0.572  -2.924  -0.788  0.00  0.00    -0.265 OA
ENDROOT
BRANCH   5   8
ATOM      8  C   UNL     1      -0.355  -3.472  -3.616  0.00  0.00    +0.067 A 
ATOM      9  C   UNL     1      -0.203  -3.533  -4.995  0.00  0.00    +0.030 A 
ATOM     10  C   UNL     1      -0.330  -4.743  -5.649  0.00  0.00    +0.035 A 
ATOM     11  C   UNL     1      -0.608  -5.893  -4.932  0.00  0.00    +0.126 A 
ATOM     12  C   UNL     1      -0.760  -5.835  -3.559  0.00  0.00    +0.035 A 
ATOM     13  C   UNL     1      -0.629  -4.629  -2.898  0.00  0.00    +0.030 A 
BRANCH  11  14
ATOM     14  N   UNL     1      -0.743  -7.187  -5.637  0.00  0.00    +0.056 N 
ATOM     15  O   UNL     1      -0.611  -7.239  -6.837  0.00  0.00    -0.126 OA
ATOM     16  O   UNL     1      -0.986  -8.193  -5.011  0.00  0.00    -0.126 OA
ENDBRANCH  11  14
ENDBRANCH   5   8
BRANCH   2  17
ATOM     17  C   UNL     1       0.365   1.387  -2.845  0.00  0.00    +0.001 A 
ATOM     18  C   UNL     1       1.289   2.073  -2.048  0.00  0.00    +0.013 A 
ATOM     19  C   UNL     1       1.534   3.409  -2.277  0.00  0.00    +0.046 A 
ATOM     20  C   UNL     1       0.864   4.076  -3.296  0.00  0.00    +0.120 A 
ATOM     21  C   UNL     1      -0.055   3.398  -4.090  0.00  0.00    +0.046 A 
ATOM     22  C   UNL     1      -0.302   2.062  -3.873  0.00  0.00    +0.013 A 
BRANCH  20  23
ATOM     23  O   UNL     1       1.108   5.392  -3.517  0.00  0.00    -0.495 OA
ATOM     24  C   UNL     1       0.386   6.016  -4.581  0.00  0.00    +0.277 C 
ENDBRANCH  20  23
ENDBRANCH   2  17
BRANCH   1  26
ATOM     25  C   UNL     1       0.974  -0.119   0.898  0.00  0.00    +0.066 C 
ATOM     26  C   UNL     1      -0.176   0.036  -0.062  0.00  0.00    +0.047 C 
ATOM     27  N   UNL     1      -1.200   0.766   0.263  0.00  0.00    -0.286 NA
BRANCH  27  28
ATOM     28  C   UNL     1      -1.185   1.535   1.510  0.00  0.00    +0.157 C 
BRANCH  28  29
ATOM     29  C   UNL     1      -1.232   3.030   1.188  0.00  0.00    +0.107 C 
BRANCH  29  30
ATOM     30  N   UNL     1      -1.216   3.801   2.438  0.00  0.00    -0.304 NA
ATOM     31  C   UNL     1       0.065   3.640   3.141  0.00  0.00    +0.065 C 
ATOM     32  C   UNL     1       0.018   4.408   4.463  0.00  0.00    -0.067 C 
ATOM     33  N   UNL     1      -0.237   5.830   4.195  0.00  0.00    +0.381 N 
ATOM     34  C   UNL     1      -1.531   5.976   3.515  0.00  0.00    -0.067 C 
ATOM     35  C   UNL     1      -1.497   5.221   2.185  0.00  0.00    +0.065 C 
ATOM     36  H   UNL     1      -0.256   6.338   5.066  0.00  0.00    -0.086 HD
ATOM     37  H   UNL     1       0.495   6.197   3.606  0.00  0.00    -0.086 HD
ENDBRANCH  29  30
ENDBRANCH  28  29
ENDBRANCH  27  28
ENDBRANCH   1  26
TORSDOF 8
