REMARK  Name = ZINC44452987
REMARK  8 active torsions:
REMARK  status: ('A' for Active; 'I' for Inactive)
REMARK    1  A    between atoms: C_1  and  C_2
REMARK    2  A    between atoms: C_2  and  C_29
REMARK    3  A    between atoms: N_3  and  N_4
REMARK    4  A    between atoms: C_5  and  C_7
REMARK    5  A    between atoms: C_11  and  N_12
REMARK    6  A    between atoms: C_13  and  C_15
REMARK    7  A    between atoms: C_18  and  C_21
REMARK    8  A    between atoms: C_21  and  C_23
REMARK                            x       y       z     vdW  Elec       q    Type
REMARK                         _______ _______ _______ _____ _____    ______ ____
ROOT
ATOM      1  C   UNL     1       4.745   0.185  -0.342  0.00  0.00    +0.070 A 
ATOM      2  C   UNL     1       5.521   0.373   0.876  0.00  0.00    -0.023 A 
ATOM      3  C   UNL     1       6.653   1.086   0.699  0.00  0.00    -0.004 A 
ATOM      4  S   UNL     1       6.676   1.475  -1.029  0.00  0.00    -0.077 S 
ATOM      5  C   UNL     1       5.249   0.734  -1.509  0.00  0.00    +0.085 A 
ATOM      6  C   UNL     1       7.660   1.476   1.735  0.00  0.00    +0.043 C 
ATOM      7  C   UNL     1       8.034   0.239   2.563  0.00  0.00    +0.005 C 
ATOM      8  C   UNL     1       7.073   0.133   3.743  0.00  0.00    +0.001 C 
ATOM      9  C   UNL     1       5.693   0.654   3.347  0.00  0.00    +0.005 C 
ATOM     10  C   UNL     1       5.103  -0.194   2.225  0.00  0.00    +0.037 C 
ENDROOT
BRANCH   1  12
ATOM     11  N   UNL     1       2.320   0.085  -0.117  0.00  0.00    -0.203 N 
ATOM     12  C   UNL     1       3.483  -0.561  -0.334  0.00  0.00    +0.266 C 
ATOM     13  O   UNL     1       3.486  -1.764  -0.523  0.00  0.00    -0.268 OA
ATOM     14  H   UNL     1       2.318   1.043   0.034  0.00  0.00    +0.178 HD
BRANCH  11  17
ATOM     15  C   UNL     1      -0.019   1.503  -0.003  0.00  0.00    +0.062 C 
ATOM     16  C   UNL     1       0.002  -0.004  -0.001  0.00  0.00    +0.031 C 
ATOM     17  N   UNL     1       1.114  -0.628  -0.109  0.00  0.00    -0.190 NA
ATOM     18  C   UNL     1      -1.286  -0.775   0.128  0.00  0.00    +0.062 C 
ENDBRANCH  11  17
ENDBRANCH   1  12
BRANCH   5  19
ATOM     19  N   UNL     1       4.700   0.685  -2.780  0.00  0.00    -0.275 N 
ATOM     20  C   UNL     1       5.333   1.280  -3.811  0.00  0.00    +0.249 C 
ATOM     21  O   UNL     1       6.385   1.859  -3.625  0.00  0.00    -0.270 OA
ATOM     22  H   UNL     1       3.860   0.222  -2.928  0.00  0.00    +0.156 HD
BRANCH  20  23
ATOM     23  C   UNL     1       4.746   1.228  -5.169  0.00  0.00    +0.037 A 
ATOM     24  C   UNL     1       3.535   0.567  -5.380  0.00  0.00    +0.014 A 
ATOM     25  C   UNL     1       2.988   0.517  -6.644  0.00  0.00    +0.012 A 
ATOM     26  C   UNL     1       3.647   1.129  -7.714  0.00  0.00    +0.017 A 
ATOM     27  C   UNL     1       4.860   1.791  -7.501  0.00  0.00    +0.012 A 
ATOM     28  C   UNL     1       5.402   1.844  -6.236  0.00  0.00    +0.014 A 
BRANCH  26  29
ATOM     29  C   UNL     1       3.063   1.076  -9.067  0.00  0.00    +0.160 C 
ATOM     30  O   UNL     1       2.012   0.501  -9.251  0.00  0.00    -0.292 OA
ATOM     31  C   UNL     1       3.774   1.736 -10.220  0.00  0.00    +0.091 C 
ENDBRANCH  26  29
ENDBRANCH  20  23
ENDBRANCH   5  19
TORSDOF 5
