REMARK  Name = ZINC02192230
REMARK  6 active torsions:
REMARK  status: ('A' for Active; 'I' for Inactive)
REMARK    1  A    between atoms: C_3  and  C_8
REMARK    2  A    between atoms: N_10  and  C_11
REMARK    3  A    between atoms: C_11  and  C_29
REMARK    4  A    between atoms: N_14  and  C_18
REMARK    5  A    between atoms: C_21  and  O_24
REMARK    6  A    between atoms: O_24  and  C_25
REMARK                            x       y       z     vdW  Elec       q    Type
REMARK                         _______ _______ _______ _____ _____    ______ ____
ROOT
ATOM      1  C   UNL     1      -4.684   4.338   0.003  0.00  0.00    +0.278 C 
ATOM      2  C   UNL     1      -3.828   3.094   0.129  0.00  0.00    +0.279 C 
ATOM      3  O   UNL     1      -4.206   1.942   0.136  0.00  0.00    -0.270 OA
ATOM      4  N   UNL     1      -2.559   3.534   0.235  0.00  0.00    -0.191 N 
ATOM      5  C   UNL     1      -2.494   4.870   0.186  0.00  0.00    +0.315 C 
ATOM      6  O   UNL     1      -1.456   5.499   0.257  0.00  0.00    -0.252 OA
ATOM      7  N   UNL     1      -3.705   5.438   0.049  0.00  0.00    -0.263 N 
ATOM      8  H   UNL     1      -3.897   6.387  -0.007  0.00  0.00    +0.153 HD
ENDROOT
BRANCH   4   9
ATOM      9  C   UNL     1      -1.442   2.695   0.373  0.00  0.00    +0.046 A 
ATOM     10  C   UNL     1      -1.617   1.328   0.536  0.00  0.00    +0.027 A 
ATOM     11  C   UNL     1      -0.518   0.503   0.677  0.00  0.00    +0.048 A 
ATOM     12  C   UNL     1       0.761   1.040   0.645  0.00  0.00    +0.130 A 
ATOM     13  C   UNL     1       0.936   2.406   0.476  0.00  0.00    +0.048 A 
ATOM     14  C   UNL     1      -0.162   3.232   0.341  0.00  0.00    +0.027 A 
BRANCH  12  15
ATOM     15  O   UNL     1       1.843   0.228   0.778  0.00  0.00    -0.406 OA
BRANCH  15  16
ATOM     16  C   UNL     1       3.129   0.848   0.736  0.00  0.00    +0.575 C 
ATOM     17  F   UNL     1       3.231   1.782   1.772  0.00  0.00    -0.133 F 
ATOM     18  F   UNL     1       4.122  -0.126   0.887  0.00  0.00    -0.133 F 
ATOM     19  F   UNL     1       3.295   1.495  -0.493  0.00  0.00    -0.133 F 
ENDBRANCH  15  16
ENDBRANCH  12  15
ENDBRANCH   4   9
BRANCH   1  22
ATOM     20  C   UNL     1      -6.222   3.318  -1.588  0.00  0.00    +0.246 C 
ATOM     21  O   UNL     1      -6.300   2.353  -0.852  0.00  0.00    -0.270 OA
ATOM     22  N   UNL     1      -5.403   4.341  -1.273  0.00  0.00    -0.276 N 
ATOM     23  H   UNL     1      -5.290   5.079  -1.892  0.00  0.00    +0.152 HD
BRANCH  20  26
ATOM     24  C   UNL     1      -8.623   2.363  -4.314  0.00  0.00    +0.002 A 
ATOM     25  C   UNL     1      -7.875   2.310  -3.156  0.00  0.00    +0.013 A 
ATOM     26  C   UNL     1      -7.026   3.368  -2.828  0.00  0.00    +0.038 A 
ATOM     27  C   UNL     1      -6.943   4.477  -3.672  0.00  0.00    +0.033 A 
ATOM     28  C   UNL     1      -7.693   4.516  -4.830  0.00  0.00    +0.042 A 
ATOM     29  C   UNL     1      -8.533   3.462  -5.149  0.00  0.00    +0.020 A 
ATOM     30 CL   UNL     1      -7.588   5.890  -5.885  0.00  0.00    -0.084 Cl
ENDBRANCH  20  26
ENDBRANCH   1  22
BRANCH   1  31
ATOM     31  C   UNL     1      -5.666   4.442   1.172  0.00  0.00    +0.436 C 
ATOM     32  F   UNL     1      -6.438   5.600   1.031  0.00  0.00    -0.166 F 
ATOM     33  F   UNL     1      -6.503   3.321   1.179  0.00  0.00    -0.166 F 
ATOM     34  F   UNL     1      -4.954   4.500   2.375  0.00  0.00    -0.166 F 
ENDBRANCH   1  31
TORSDOF 6
