REMARK  Name = ZINC20677837
REMARK  6 active torsions:
REMARK  status: ('A' for Active; 'I' for Inactive)
REMARK    1  A    between atoms: C_4  and  C_7
REMARK    2  A    between atoms: C_7  and  C_8
REMARK    3  A    between atoms: C_7  and  N_14
REMARK    4  A    between atoms: N_17  and  C_20
REMARK    5  A    between atoms: C_20  and  C_22
REMARK    6  A    between atoms: C_20  and  C_33
REMARK                            x       y       z     vdW  Elec       q    Type
REMARK                         _______ _______ _______ _____ _____    ______ ____
ROOT
ATOM      1  N   UNL     1      -5.347   3.609  -2.034  0.00  0.00    -0.295 NA
ATOM      2  C   UNL     1      -5.496   4.301  -0.746  0.00  0.00    +0.067 C 
ATOM      3  C   UNL     1      -4.112   4.660  -0.200  0.00  0.00    -0.062 C 
ATOM      4  N   UNL     1      -3.316   3.435  -0.046  0.00  0.00    +0.393 N 
ATOM      5  C   UNL     1      -3.167   2.742  -1.334  0.00  0.00    -0.062 C 
ATOM      6  C   UNL     1      -4.551   2.383  -1.880  0.00  0.00    +0.067 C 
ATOM      7  H   UNL     1      -3.854   2.764   0.640  0.00  0.00    -0.080 HD
ENDROOT
BRANCH   1   8
ATOM      8  C   UNL     1      -6.658   3.314  -2.628  0.00  0.00    +0.117 C 
BRANCH   8  12
ATOM      9  C   UNL     1      -8.857   6.946  -3.098  0.00  0.00    +0.000 A 
ATOM     10  C   UNL     1      -9.482   5.820  -2.595  0.00  0.00    +0.000 A 
ATOM     11  C   UNL     1      -8.770   4.644  -2.444  0.00  0.00    +0.005 A 
ATOM     12  C   UNL     1      -7.434   4.595  -2.794  0.00  0.00    -0.026 A 
ATOM     13  C   UNL     1      -6.808   5.723  -3.291  0.00  0.00    +0.005 A 
ATOM     14  C   UNL     1      -7.521   6.897  -3.447  0.00  0.00    +0.000 A 
ENDBRANCH   8  12
BRANCH   8  15
ATOM     15  C   UNL     1      -6.465   2.666  -3.974  0.00  0.00    -0.026 A 
ATOM     16  C   UNL     1      -5.533   3.175  -4.859  0.00  0.00    +0.005 A 
ATOM     17  C   UNL     1      -5.353   2.578  -6.093  0.00  0.00    +0.000 A 
ATOM     18  C   UNL     1      -6.111   1.477  -6.445  0.00  0.00    +0.000 A 
ATOM     19  C   UNL     1      -7.046   0.971  -5.562  0.00  0.00    +0.000 A 
ATOM     20  C   UNL     1      -7.223   1.565  -4.327  0.00  0.00    +0.005 A 
ENDBRANCH   8  15
ENDBRANCH   1   8
BRANCH   4  21
ATOM     21  C   UNL     1      -2.005   3.729   0.548  0.00  0.00    +0.080 C 
BRANCH  21  22
ATOM     22  C   UNL     1      -1.219   2.451   0.689  0.00  0.00    -0.025 A 
ATOM     23  C   UNL     1      -1.716   1.205   0.694  0.00  0.00    +0.086 A 
ATOM     24  N   UNL     1      -0.702   0.298   0.847  0.00  0.00    -0.360 N 
ATOM     25  H   UNL     1      -0.926  -0.778   0.880  0.00  0.00    +0.165 HD
ATOM     26  C   UNL     1       0.504   0.957   0.936  0.00  0.00    +0.048 A 
ATOM     27  C   UNL     1       0.233   2.334   0.841  0.00  0.00    +0.002 A 
ATOM     28  C   UNL     1       1.280   3.256   0.902  0.00  0.00    +0.011 A 
ATOM     29  C   UNL     1       2.564   2.815   1.054  0.00  0.00    +0.016 A 
ATOM     30  C   UNL     1       2.838   1.457   1.147  0.00  0.00    +0.020 A 
ATOM     31  C   UNL     1       1.819   0.530   1.089  0.00  0.00    +0.041 A 
ATOM     32 BR   UNL     1       4.624   0.874   1.357  0.00  0.00    -0.050 Br
ENDBRANCH  21  22
BRANCH  21  33
ATOM     33  C   UNL     1      -2.198   4.353   1.906  0.00  0.00    +0.347 C 
ATOM     34  O   UNL     1      -3.313   4.534   2.335  0.00  0.00    -0.248 OA
ATOM     35  O   UNL     1      -1.131   4.708   2.639  0.00  0.00    -0.248 OA
ENDBRANCH  21  33
ENDBRANCH   4  21
TORSDOF 6
