REMARK  Name = ZINC12558305
REMARK  9 active torsions:
REMARK  status: ('A' for Active; 'I' for Inactive)
REMARK    1  A    between atoms: C_4  and  C_7
REMARK    2  A    between atoms: C_7  and  N_8
REMARK    3  A    between atoms: N_11  and  C_14
REMARK    4  A    between atoms: C_14  and  C_15
REMARK    5  A    between atoms: C_15  and  N_16
REMARK    6  A    between atoms: N_16  and  C_17
REMARK    7  A    between atoms: C_20  and  S_26
REMARK    8  A    between atoms: C_22  and  N_23
REMARK    9  A    between atoms: S_26  and  N_29
REMARK                            x       y       z     vdW  Elec       q    Type
REMARK                         _______ _______ _______ _____ _____    ______ ____
ROOT
ATOM      1  N   UNL     1       6.932  -4.568   6.199  0.00  0.00    -0.341 N 
ATOM      2  H   UNL     1       6.425  -4.266   6.969  0.00  0.00    +0.146 HD
ENDROOT
BRANCH   1   3
ATOM      3  C   UNL     1       8.216  -5.090   6.370  0.00  0.00    +0.058 A 
ATOM      4  C   UNL     1       8.895  -5.635   5.287  0.00  0.00    +0.027 A 
ATOM      5  C   UNL     1      10.165  -6.151   5.459  0.00  0.00    +0.030 A 
ATOM      6  C   UNL     1      10.760  -6.125   6.707  0.00  0.00    +0.108 A 
ATOM      7  C   UNL     1      10.087  -5.584   7.786  0.00  0.00    +0.063 A 
ATOM      8  C   UNL     1       8.819  -5.061   7.620  0.00  0.00    +0.149 A 
BRANCH   8   9
ATOM      9  N   UNL     1       8.102  -4.477   8.775  0.00  0.00    +0.058 N 
ATOM     10  O   UNL     1       7.412  -3.495   8.625  0.00  0.00    -0.126 OA
ATOM     11  O   UNL     1       8.206  -4.981   9.870  0.00  0.00    -0.126 OA
ENDBRANCH   8   9
BRANCH   6  12
ATOM     12  S   UNL     1      12.380  -6.783   6.921  0.00  0.00    +0.061 S 
ATOM     13  O   UNL     1      12.498  -7.134   8.293  0.00  0.00    -0.153 OA
ATOM     14  O   UNL     1      12.578  -7.724   5.875  0.00  0.00    -0.153 OA
BRANCH  12  15
ATOM     15  N   UNL     1      13.450  -5.548   6.656  0.00  0.00    -0.177 NA
ATOM     16  C   UNL     1      14.038  -5.187   5.357  0.00  0.00    +0.109 C 
ATOM     17  C   UNL     1      14.990  -3.997   5.600  0.00  0.00    +0.018 C 
ATOM     18  C   UNL     1      15.318  -4.117   7.112  0.00  0.00    +0.018 C 
ATOM     19  C   UNL     1      13.967  -4.623   7.681  0.00  0.00    +0.109 C 
ENDBRANCH  12  15
ENDBRANCH   6  12
ENDBRANCH   1   3
BRANCH   1  20
ATOM     20  C   UNL     1       6.350  -4.476   4.858  0.00  0.00    +0.117 C 
BRANCH  20  21
ATOM     21  C   UNL     1       4.947  -3.873   4.950  0.00  0.00    +0.103 C 
BRANCH  21  25
ATOM     22  N   UNL     1       3.082  -2.417   1.448  0.00  0.00    +0.384 N 
ATOM     23  C   UNL     1       2.356  -3.405   2.257  0.00  0.00    -0.063 C 
ATOM     24  C   UNL     1       2.938  -3.432   3.672  0.00  0.00    +0.066 C 
ATOM     25  N   UNL     1       4.364  -3.781   3.605  0.00  0.00    -0.304 NA
ATOM     26  C   UNL     1       5.100  -2.816   2.777  0.00  0.00    +0.066 C 
ATOM     27  C   UNL     1       4.500  -2.793   1.370  0.00  0.00    -0.063 C 
ATOM     28  H   UNL     1       2.999  -1.507   1.874  0.00  0.00    -0.081 HD
BRANCH  22  29
ATOM     29  C   UNL     1       2.511  -2.379   0.095  0.00  0.00    -0.043 C 
BRANCH  29  33
ATOM     30  C   UNL     1      -1.511  -0.951   0.285  0.00  0.00    +0.000 A 
ATOM     31  C   UNL     1      -0.468  -0.059   0.122  0.00  0.00    +0.000 A 
ATOM     32  C   UNL     1       0.834  -0.521   0.060  0.00  0.00    +0.002 A 
ATOM     33  C   UNL     1       1.092  -1.875   0.163  0.00  0.00    -0.064 A 
ATOM     34  C   UNL     1       0.049  -2.767   0.327  0.00  0.00    +0.002 A 
ATOM     35  C   UNL     1      -1.252  -2.305   0.387  0.00  0.00    +0.000 A 
ENDBRANCH  29  33
ENDBRANCH  22  29
ENDBRANCH  21  25
ENDBRANCH  20  21
ENDBRANCH   1  20
TORSDOF 9
