REMARK  Name = ZINC15912780
REMARK  11 active torsions:
REMARK  status: ('A' for Active; 'I' for Inactive)
REMARK    1  A    between atoms: C_1  and  C_2
REMARK    2  A    between atoms: N_9  and  N_10
REMARK    3  A    between atoms: C_11  and  C_13
REMARK    4  A    between atoms: C_13  and  C_14
REMARK    5  A    between atoms: C_14  and  N_15
REMARK    6  A    between atoms: C_16  and  C_18
REMARK    7  A    between atoms: N_27  and  C_28
REMARK    8  A    between atoms: C_28  and  C_29
REMARK    9  A    between atoms: C_29  and  C_30
REMARK   10  A    between atoms: C_30  and  C_31
REMARK   11  A    between atoms: C_30  and  C_32
REMARK                            x       y       z     vdW  Elec       q    Type
REMARK                         _______ _______ _______ _____ _____    ______ ____
ROOT
ATOM      1  C   UNL     1      -0.018   1.503   0.010  0.00  0.00    +0.044 C 
ATOM      2  C   UNL     1       0.002  -0.004   0.002  0.00  0.00    -0.050 A 
ATOM      3  C   UNL     1       0.006  -0.689  -1.201  0.00  0.00    +0.005 A 
ATOM      4  C   UNL     1       0.024  -2.069  -1.225  0.00  0.00    +0.024 A 
ATOM      5  C   UNL     1       0.039  -2.787  -0.034  0.00  0.00    +0.046 A 
ATOM      6  C   UNL     1       0.035  -2.090   1.181  0.00  0.00    +0.029 A 
ATOM      7  C   UNL     1       0.023  -0.700   1.194  0.00  0.00    +0.015 A 
ATOM      8  C   UNL     1       0.054  -3.115   2.251  0.00  0.00    +0.153 C 
ATOM      9  N   UNL     1       0.058  -2.916   3.547  0.00  0.00    -0.175 NA
ATOM     10  C   UNL     1       0.069  -4.409   1.539  0.00  0.00    +0.271 C 
ATOM     11  O   UNL     1       0.086  -5.511   2.056  0.00  0.00    -0.268 OA
ATOM     12  N   UNL     1       0.059  -4.154   0.220  0.00  0.00    -0.266 N 
ENDROOT
BRANCH   9  13
ATOM     13  N   UNL     1       0.077  -4.009   4.423  0.00  0.00    -0.206 N 
ATOM     14  C   UNL     1       0.080  -3.804   5.755  0.00  0.00    +0.234 C 
ATOM     15  O   UNL     1       0.067  -2.675   6.195  0.00  0.00    -0.274 OA
ATOM     16  H   UNL     1       0.087  -4.913   4.071  0.00  0.00    +0.177 HD
BRANCH  14  17
ATOM     17  C   UNL     1       0.101  -4.980   6.698  0.00  0.00    +0.116 C 
BRANCH  17  18
ATOM     18  C   UNL     1       0.101  -4.476   8.142  0.00  0.00    +0.114 C 
BRANCH  18  19
ATOM     19  N   UNL     1       0.120  -5.618   9.059  0.00  0.00    -0.311 N 
ATOM     20  C   UNL     1       0.124  -5.414  10.391  0.00  0.00    +0.245 C 
ATOM     21  O   UNL     1       0.111  -4.281  10.832  0.00  0.00    -0.270 OA
ATOM     22  H   UNL     1       0.131  -6.522   8.707  0.00  0.00    +0.149 HD
BRANCH  20  23
ATOM     23  C   UNL     1       0.144  -6.567  11.315  0.00  0.00    +0.051 A 
ATOM     24  C   UNL     1       0.165  -7.869  10.812  0.00  0.00    +0.014 A 
ATOM     25  C   UNL     1       0.184  -8.940  11.680  0.00  0.00    +0.001 A 
ATOM     26  C   UNL     1       0.182  -8.728  13.048  0.00  0.00    +0.001 A 
ATOM     27  C   UNL     1       0.160  -7.441  13.554  0.00  0.00    +0.016 A 
ATOM     28  C   UNL     1       0.147  -6.359  12.696  0.00  0.00    +0.030 A 
ATOM     29 BR   UNL     1       0.127  -4.600  13.390  0.00  0.00    -0.050 Br
ENDBRANCH  20  23
ENDBRANCH  18  19
ENDBRANCH  17  18
ENDBRANCH  14  17
ENDBRANCH   9  13
BRANCH  12  30
ATOM     30  C   UNL     1       0.068  -5.186  -0.820  0.00  0.00    +0.114 C 
BRANCH  30  31
ATOM     31  C   UNL     1       1.514  -5.526  -1.188  0.00  0.00    +0.022 C 
BRANCH  31  32
ATOM     32  C   UNL     1       1.523  -6.604  -2.274  0.00  0.00    -0.016 C 
ATOM     33  C   UNL     1       2.962  -6.855  -2.731  0.00  0.00    +0.007 C 
ATOM     34  C   UNL     1       0.934  -7.899  -1.712  0.00  0.00    +0.007 C 
ENDBRANCH  31  32
ENDBRANCH  30  31
ENDBRANCH  12  30
TORSDOF 8
