REMARK  Name = ZINC08779044
REMARK  8 active torsions:
REMARK  status: ('A' for Active; 'I' for Inactive)
REMARK    1  A    between atoms: C_1  and  C_2
REMARK    2  A    between atoms: C_9  and  N_30
REMARK    3  A    between atoms: C_10  and  C_13
REMARK    4  A    between atoms: N_17  and  C_21
REMARK    5  A    between atoms: C_21  and  C_23
REMARK    6  A    between atoms: C_21  and  C_24
REMARK    7  A    between atoms: N_30  and  C_31
REMARK    8  A    between atoms: C_31  and  C_32
REMARK                            x       y       z     vdW  Elec       q    Type
REMARK                         _______ _______ _______ _____ _____    ______ ____
ROOT
ATOM      1  C   UNL     1      13.947   6.052   7.607  0.00  0.00    +0.047 C 
ATOM      2  C   UNL     1      12.970   6.692   6.655  0.00  0.00    -0.007 A 
ATOM      3  C   UNL     1      12.959   8.046   6.491  0.00  0.00    +0.008 A 
ATOM      4  C   UNL     1      12.046   8.627   5.601  0.00  0.00    +0.019 A 
ATOM      5  C   UNL     1      11.182   7.849   4.911  0.00  0.00    +0.096 A 
ATOM      6  N   UNL     1      11.185   6.495   5.068  0.00  0.00    -0.267 N 
ATOM      7  C   UNL     1      12.065   5.899   5.928  0.00  0.00    +0.145 A 
ATOM      8  N   UNL     1      12.084   4.576   6.095  0.00  0.00    -0.214 NA
ATOM      9  C   UNL     1      11.253   3.780   5.436  0.00  0.00    +0.134 A 
ATOM     10  C   UNL     1      10.320   4.341   4.532  0.00  0.00    +0.081 A 
ATOM     11  C   UNL     1      10.313   5.746   4.359  0.00  0.00    +0.267 A 
ATOM     12  O   UNL     1       9.530   6.271   3.587  0.00  0.00    -0.267 OA
ENDROOT
BRANCH  10  13
ATOM     13  C   UNL     1       9.422   3.518   3.814  0.00  0.00    +0.037 C 
ATOM     14  C   UNL     1       8.414   2.873   4.471  0.00  0.00    +0.077 C 
ATOM     15  C   UNL     1       7.511   1.880   3.994  0.00  0.00    +0.259 C 
ATOM     16  O   UNL     1       7.569   1.482   2.844  0.00  0.00    -0.269 OA
ATOM     17  N   UNL     1       6.607   1.405   4.833  0.00  0.00    -0.248 N 
ATOM     18  C   UNL     1       6.547   1.843   6.110  0.00  0.00    +0.121 C 
ATOM     19  S   UNL     1       5.475   1.369   7.358  0.00  0.00    -0.027 S 
ATOM     20  S   UNL     1       7.870   3.042   6.166  0.00  0.00    -0.061 S 
BRANCH  17  21
ATOM     21  C   UNL     1       5.660   0.386   4.373  0.00  0.00    +0.110 C 
ATOM     22  C   UNL     1       6.356  -0.543   3.377  0.00  0.00    +0.033 C 
BRANCH  21  23
ATOM     23  C   UNL     1       4.488   1.055   3.703  0.00  0.00    -0.027 A 
ATOM     24  C   UNL     1       4.703   2.041   2.758  0.00  0.00    +0.005 A 
ATOM     25  C   UNL     1       3.627   2.655   2.143  0.00  0.00    +0.000 A 
ATOM     26  C   UNL     1       2.338   2.284   2.474  0.00  0.00    +0.000 A 
ATOM     27  C   UNL     1       2.123   1.299   3.420  0.00  0.00    +0.000 A 
ATOM     28  C   UNL     1       3.198   0.684   4.035  0.00  0.00    +0.005 A 
ENDBRANCH  21  23
ENDBRANCH  17  21
ENDBRANCH  10  13
BRANCH   9  29
ATOM     29  N   UNL     1      11.299   2.417   5.630  0.00  0.00    -0.326 N 
ATOM     30  H   UNL     1      10.689   1.838   5.146  0.00  0.00    +0.148 HD
BRANCH  29  31
ATOM     31  C   UNL     1      12.267   1.842   6.567  0.00  0.00    +0.134 C 
BRANCH  31  32
ATOM     32  C   UNL     1      12.108   0.321   6.595  0.00  0.00    +0.135 C 
ATOM     33  C   UNL     1      13.032  -0.297   7.668  0.00  0.00    +0.035 C 
ATOM     34  C   UNL     1      13.520  -1.617   7.029  0.00  0.00    +0.031 C 
ATOM     35  C   UNL     1      12.832  -1.640   5.646  0.00  0.00    +0.160 C 
ATOM     36  O   UNL     1      12.555  -0.254   5.348  0.00  0.00    -0.375 OA
ENDBRANCH  31  32
ENDBRANCH  29  31
ENDBRANCH   9  29
TORSDOF 6
