REMARK  Name = ZINC39444552
REMARK  5 active torsions:
REMARK  status: ('A' for Active; 'I' for Inactive)
REMARK    1  A    between atoms: C_14  and  C_15
REMARK    2  A    between atoms: C_15  and  O_17
REMARK    3  A    between atoms: O_17  and  C_18
REMARK    4  A    between atoms: C_18  and  C_19
REMARK    5  A    between atoms: C_19  and  C_21
REMARK                            x       y       z     vdW  Elec       q    Type
REMARK                         _______ _______ _______ _____ _____    ______ ____
ROOT
ATOM      1  C   UNL     1      -1.272  -0.744   0.015  0.00  0.00    +0.340 C 
ATOM      2  O   UNL     1      -1.269  -1.959   0.009  0.00  0.00    -0.245 OA
ENDROOT
BRANCH   1  15
ATOM      3  C   UNL     1      -0.018   1.454   0.010  0.00  0.00    +0.017 A 
ATOM      4  C   UNL     1       1.127   2.168   0.003  0.00  0.00    +0.027 A 
ATOM      5  C   UNL     1       2.419   1.474  -0.013  0.00  0.00    +0.043 A 
ATOM      6  N   UNL     1       3.647   1.939  -0.043  0.00  0.00    -0.378 N 
ATOM      7  C   UNL     1       4.572   0.813   0.034  0.00  0.00    +0.106 C 
ATOM      8  C   UNL     1       5.549   0.781  -1.145  0.00  0.00    +0.029 C 
ATOM      9  C   UNL     1       6.276  -0.567  -1.138  0.00  0.00    +0.003 C 
ATOM     10  C   UNL     1       5.307  -1.718  -1.402  0.00  0.00    +0.004 C 
ATOM     11  C   UNL     1       4.279  -1.812  -0.262  0.00  0.00    +0.033 C 
ATOM     12  C   UNL     1       3.704  -0.430  -0.058  0.00  0.00    -0.038 C 
ATOM     13  C   UNL     1       2.426  -0.009  -0.030  0.00  0.00    -0.000 A 
ATOM     14  C   UNL     1       1.188  -0.703  -0.017  0.00  0.00    +0.025 A 
ATOM     15  C   UNL     1       0.002  -0.004   0.002  0.00  0.00    +0.060 A 
ATOM     16  H   UNL     1       3.897   2.874  -0.105  0.00  0.00    +0.160 HD
ENDBRANCH   1  15
BRANCH   1  17
ATOM     17  O   UNL     1      -2.441  -0.073   0.035  0.00  0.00    -0.453 OA
BRANCH  17  18
ATOM     18  C   UNL     1      -3.637  -0.854   0.047  0.00  0.00    +0.311 C 
BRANCH  18  19
ATOM     19  C   UNL     1      -4.834   0.061   0.068  0.00  0.00    +0.200 C 
ATOM     20  O   UNL     1      -4.678   1.264   0.073  0.00  0.00    -0.288 OA
BRANCH  19  21
ATOM     21  C   UNL     1      -6.190  -0.503   0.084  0.00  0.00    +0.023 A 
ATOM     22  C   UNL     1      -6.372  -1.892   0.085  0.00  0.00    +0.015 A 
ATOM     23  C   UNL     1      -7.643  -2.421   0.100  0.00  0.00    +0.048 A 
ATOM     24  C   UNL     1      -8.748  -1.581   0.114  0.00  0.00    +0.142 A 
ATOM     25  C   UNL     1      -8.574  -0.194   0.113  0.00  0.00    +0.076 A 
ATOM     26  C   UNL     1      -7.304   0.345   0.104  0.00  0.00    +0.038 A 
ATOM     27  N   UNL     1      -9.704   0.638   0.127  0.00  0.00    -0.280 N 
ATOM     28  C   UNL     1     -10.902   0.108   0.458  0.00  0.00    +0.255 C 
ATOM     29  O   UNL     1     -11.897   0.801   0.448  0.00  0.00    -0.272 OA
ATOM     30  C   UNL     1     -10.996  -1.347   0.838  0.00  0.00    +0.325 C 
ATOM     31  O   UNL     1     -10.005  -2.095   0.130  0.00  0.00    -0.481 OA
ATOM     32  H   UNL     1      -9.626   1.578  -0.097  0.00  0.00    +0.155 HD
ENDBRANCH  19  21
ENDBRANCH  18  19
ENDBRANCH  17  18
ENDBRANCH   1  17
TORSDOF 5
