REMARK  Name = ZINC12321021
REMARK  13 active torsions:
REMARK  status: ('A' for Active; 'I' for Inactive)
REMARK    1  A    between atoms: C_1  and  C_2
REMARK    2  A    between atoms: C_2  and  O_3
REMARK    3  A    between atoms: O_3  and  C_4
REMARK    4  A    between atoms: C_7  and  C_10
REMARK    5  A    between atoms: C_16  and  C_33
REMARK    6  A    between atoms: C_17  and  C_24
REMARK    7  A    between atoms: C_19  and  C_22
REMARK    8  A    between atoms: C_20  and  N_21
REMARK    9  A    between atoms: C_27  and  O_30
REMARK   10  A    between atoms: O_30  and  C_31
REMARK   11  A    between atoms: C_31  and  C_32
REMARK   12  A    between atoms: C_33  and  O_35
REMARK   13  A    between atoms: O_35  and  C_36
REMARK                            x       y       z     vdW  Elec       q    Type
REMARK                         _______ _______ _______ _____ _____    ______ ____
ROOT
ATOM      1  C   UNL     1      -2.575   3.841   0.603  0.00  0.00    +0.028 C 
ATOM      2  C   UNL     1      -3.726   3.161   0.362  0.00  0.00    +0.079 A 
ATOM      3  C   UNL     1      -3.940   1.719   0.197  0.00  0.00    +0.271 A 
ATOM      4  O   UNL     1      -3.008   0.940   0.269  0.00  0.00    -0.266 OA
ATOM      5  N   UNL     1      -5.191   1.278  -0.037  0.00  0.00    -0.257 N 
ATOM      6  C   UNL     1      -6.199   2.218  -0.107  0.00  0.00    +0.100 A 
ATOM      7  C   UNL     1      -7.516   1.919  -0.339  0.00  0.00    +0.080 C 
ATOM      8  C   UNL     1      -7.898   0.465  -0.531  0.00  0.00    +0.102 C 
ATOM      9  C   UNL     1      -6.758  -0.530  -0.446  0.00  0.00    +0.079 C 
ATOM     10  C   UNL     1      -5.509  -0.074  -0.211  0.00  0.00    +0.118 C 
ATOM     11  S   UNL     1      -5.390   3.780   0.170  0.00  0.00    -0.065 S 
ENDROOT
BRANCH   1  15
ATOM     12  C   UNL     1       1.149   1.819   0.460  0.00  0.00    +0.121 A 
ATOM     13  C   UNL     1       0.146   1.486  -0.442  0.00  0.00    +0.046 A 
ATOM     14  C   UNL     1      -1.064   2.143  -0.404  0.00  0.00    +0.011 A 
ATOM     15  C   UNL     1      -1.286   3.141   0.553  0.00  0.00    -0.024 A 
ATOM     16  C   UNL     1      -0.271   3.473   1.460  0.00  0.00    +0.011 A 
ATOM     17  C   UNL     1       0.936   2.813   1.409  0.00  0.00    +0.046 A 
BRANCH  12  18
ATOM     18  O   UNL     1       2.342   1.172   0.415  0.00  0.00    -0.492 OA
BRANCH  18  20
ATOM     19  C   UNL     1       4.596   0.730   1.166  0.00  0.00    +0.048 C 
ATOM     20  C   UNL     1       3.329   1.564   1.371  0.00  0.00    +0.225 C 
ENDBRANCH  18  20
ENDBRANCH  12  18
ENDBRANCH   1  15
BRANCH   8  21
ATOM     21  C   UNL     1      -8.543   0.322  -1.885  0.00  0.00    -0.034 A 
ATOM     22  C   UNL     1      -7.838   0.660  -3.025  0.00  0.00    +0.008 A 
ATOM     23  C   UNL     1      -8.426   0.525  -4.268  0.00  0.00    +0.046 A 
ATOM     24  C   UNL     1      -9.729   0.059  -4.371  0.00  0.00    +0.121 A 
ATOM     25  C   UNL     1     -10.436  -0.275  -3.225  0.00  0.00    +0.046 A 
ATOM     26  C   UNL     1      -9.842  -0.143  -1.985  0.00  0.00    +0.008 A 
BRANCH  24  27
ATOM     27  O   UNL     1     -10.311  -0.070  -5.592  0.00  0.00    -0.492 OA
BRANCH  27  28
ATOM     28  C   UNL     1      -9.523   0.292  -6.728  0.00  0.00    +0.225 C 
ATOM     29  C   UNL     1     -10.340   0.081  -8.004  0.00  0.00    +0.048 C 
ENDBRANCH  27  28
ENDBRANCH  24  27
ENDBRANCH   8  21
BRANCH  10  30
ATOM     30  N   UNL     1      -4.489  -0.992  -0.138  0.00  0.00    -0.343 N 
ATOM     31  H   UNL     1      -3.708  -0.807   0.407  0.00  0.00    +0.144 HD
ATOM     32  H   UNL     1      -4.550  -1.825  -0.631  0.00  0.00    +0.144 HD
ENDBRANCH  10  30
BRANCH   9  33
ATOM     33  C   UNL     1      -7.002  -1.931  -0.612  0.00  0.00    +0.099 C 
ATOM     34  N   UNL     1      -7.195  -3.043  -0.744  0.00  0.00    -0.191 NA
ENDBRANCH   9  33
BRANCH   7  35
ATOM     35  C   UNL     1      -8.484   2.931  -0.395  0.00  0.00    +0.338 C 
ATOM     36  O   UNL     1      -8.159   4.095  -0.238  0.00  0.00    -0.245 OA
BRANCH  35  37
ATOM     37  O   UNL     1      -9.778   2.616  -0.624  0.00  0.00    -0.465 OA
ATOM     38  C   UNL     1     -10.711   3.697  -0.669  0.00  0.00    +0.280 C 
ENDBRANCH  35  37
ENDBRANCH   7  35
TORSDOF 10
