REMARK  Name = ZINC09809537
REMARK  11 active torsions:
REMARK  status: ('A' for Active; 'I' for Inactive)
REMARK    1  A    between atoms: C_1  and  C_2
REMARK    2  A    between atoms: C_2  and  O_3
REMARK    3  A    between atoms: O_3  and  C_4
REMARK    4  A    between atoms: C_4  and  C_6
REMARK    5  A    between atoms: C_6  and  N_7
REMARK    6  A    between atoms: C_11  and  S_28
REMARK    7  A    between atoms: N_16  and  C_17
REMARK    8  A    between atoms: C_17  and  C_19
REMARK    9  A    between atoms: C_22  and  C_25
REMARK   10  A    between atoms: C_25  and  C_27
REMARK   11  A    between atoms: S_28  and  N_31
REMARK                            x       y       z     vdW  Elec       q    Type
REMARK                         _______ _______ _______ _____ _____    ______ ____
ROOT
ATOM      1  N   UNL     1       0.105  -2.235  -8.255  0.00  0.00    -0.310 N 
ATOM      2  C   UNL     1       0.591  -3.215  -9.100  0.00  0.00    +0.058 A 
ATOM      3  C   UNL     1       0.964  -3.095 -10.448  0.00  0.00    +0.029 A 
ATOM      4  C   UNL     1       1.432  -4.183 -11.146  0.00  0.00    +0.030 A 
ATOM      5  C   UNL     1       1.550  -5.425 -10.546  0.00  0.00    +0.106 A 
ATOM      6  C   UNL     1       1.189  -5.571  -9.218  0.00  0.00    +0.045 A 
ATOM      7  C   UNL     1       0.721  -4.484  -8.519  0.00  0.00    +0.041 A 
ATOM      8  S   UNL     1       0.171  -4.227  -6.851  0.00  0.00    -0.052 S 
ATOM      9  C   UNL     1      -0.206  -2.538  -6.966  0.00  0.00    +0.167 A 
ATOM     10  N   UNL     1      -0.679  -1.733  -6.020  0.00  0.00    -0.152 NA
ENDROOT
BRANCH   5  11
ATOM     11  S   UNL     1       2.153  -6.804 -11.462  0.00  0.00    +0.056 S 
ATOM     12  O   UNL     1       2.933  -6.275 -12.525  0.00  0.00    -0.153 OA
ATOM     13  O   UNL     1       2.680  -7.723 -10.514  0.00  0.00    -0.153 OA
BRANCH  11  14
ATOM     14  N   UNL     1       0.843  -7.541 -12.157  0.00  0.00    -0.204 NA
ATOM     15  H   UNL     1       0.941  -8.009 -13.002  0.00  0.00    +0.144 HD
ATOM     16  H   UNL     1      -0.022  -7.505 -11.720  0.00  0.00    +0.144 HD
ENDBRANCH  11  14
ENDBRANCH   5  11
BRANCH  10  17
ATOM     17  C   UNL     1      -0.929  -2.212  -4.798  0.00  0.00    +0.269 C 
ATOM     18  O   UNL     1      -0.723  -3.387  -4.551  0.00  0.00    -0.268 OA
BRANCH  17  19
ATOM     19  C   UNL     1      -1.457  -1.313  -3.744  0.00  0.00    +0.039 A 
ATOM     20  C   UNL     1      -1.717  -1.814  -2.468  0.00  0.00    +0.014 A 
ATOM     21  C   UNL     1      -2.208  -0.981  -1.487  0.00  0.00    +0.012 A 
ATOM     22  C   UNL     1      -2.445   0.368  -1.770  0.00  0.00    +0.017 A 
ATOM     23  C   UNL     1      -2.188   0.867  -3.051  0.00  0.00    +0.012 A 
ATOM     24  C   UNL     1      -1.692   0.032  -4.028  0.00  0.00    +0.014 A 
BRANCH  22  25
ATOM     25  C   UNL     1      -2.970   1.261  -0.723  0.00  0.00    +0.160 C 
ATOM     26  O   UNL     1      -3.197   0.826   0.386  0.00  0.00    -0.292 OA
ATOM     27  C   UNL     1      -3.224   2.714  -1.029  0.00  0.00    +0.091 C 
ENDBRANCH  22  25
ENDBRANCH  17  19
ENDBRANCH  10  17
BRANCH   1  28
ATOM     28  C   UNL     1      -0.075  -0.867  -8.748  0.00  0.00    +0.244 C 
BRANCH  28  29
ATOM     29  C   UNL     1      -1.366  -0.305  -8.210  0.00  0.00    +0.327 C 
ATOM     30  O   UNL     1      -2.142  -1.025  -7.628  0.00  0.00    -0.249 OA
BRANCH  29  31
ATOM     31  O   UNL     1      -1.653   0.996  -8.377  0.00  0.00    -0.464 OA
BRANCH  31  33
ATOM     32  C   UNL     1      -3.065   2.963  -8.120  0.00  0.00    +0.048 C 
ATOM     33  C   UNL     1      -2.914   1.468  -7.834  0.00  0.00    +0.229 C 
ENDBRANCH  31  33
ENDBRANCH  29  31
ENDBRANCH  28  29
ENDBRANCH   1  28
TORSDOF 9
