REMARK  Name = ZINC09873934
REMARK  12 active torsions:
REMARK  status: ('A' for Active; 'I' for Inactive)
REMARK    1  A    between atoms: C_1  and  C_2
REMARK    2  A    between atoms: C_2  and  C_3
REMARK    3  A    between atoms: C_3  and  C_5
REMARK    4  A    between atoms: C_3  and  C_6
REMARK    5  A    between atoms: C_11  and  O_12
REMARK    6  A    between atoms: O_12  and  C_13
REMARK    7  A    between atoms: C_13  and  C_15
REMARK    8  A    between atoms: C_13  and  C_16
REMARK    9  A    between atoms: N_18  and  N_19
REMARK   10  A    between atoms: C_20  and  C_22
REMARK   11  A    between atoms: C_22  and  O_23
REMARK   12  A    between atoms: O_23  and  C_24
REMARK                            x       y       z     vdW  Elec       q    Type
REMARK                         _______ _______ _______ _____ _____    ______ ____
ROOT
ATOM      1  C   UNL     1      -2.244  -2.636  -0.907  0.00  0.00    +0.270 C 
ATOM      2  O   UNL     1      -3.076  -1.861  -1.331  0.00  0.00    -0.270 OA
ATOM      3  N   UNL     1      -2.367  -3.956  -1.149  0.00  0.00    -0.231 N 
ATOM      4  H   UNL     1      -1.702  -4.575  -0.810  0.00  0.00    +0.173 HD
ENDROOT
BRANCH   3   5
ATOM      5  N   UNL     1      -3.456  -4.434  -1.890  0.00  0.00    -0.231 N 
ATOM      6  C   UNL     1      -3.579  -5.754  -2.131  0.00  0.00    +0.267 C 
ATOM      7  O   UNL     1      -2.748  -6.528  -1.708  0.00  0.00    -0.271 OA
ATOM      8  H   UNL     1      -4.121  -3.814  -2.229  0.00  0.00    +0.173 HD
BRANCH   6   9
ATOM      9  C   UNL     1      -4.751  -6.268  -2.928  0.00  0.00    +0.326 C 
BRANCH   9  10
ATOM     10  O   UNL     1      -4.659  -7.689  -3.048  0.00  0.00    -0.482 OA
BRANCH  10  11
ATOM     11  C   UNL     1      -5.645  -8.315  -3.743  0.00  0.00    +0.135 A 
ATOM     12  C   UNL     1      -6.680  -7.577  -4.298  0.00  0.00    +0.048 A 
ATOM     13  C   UNL     1      -7.681  -8.214  -5.004  0.00  0.00    +0.023 A 
ATOM     14  C   UNL     1      -7.653  -9.589  -5.158  0.00  0.00    +0.042 A 
ATOM     15  C   UNL     1      -6.622 -10.328  -4.606  0.00  0.00    +0.039 A 
ATOM     16  C   UNL     1      -5.615  -9.693  -3.903  0.00  0.00    +0.061 A 
ATOM     17 BR   UNL     1      -4.202 -10.702  -3.154  0.00  0.00    -0.046 Br
ATOM     18 CL   UNL     1      -8.913 -10.388  -6.046  0.00  0.00    -0.084 Cl
ENDBRANCH  10  11
ENDBRANCH   9  10
ENDBRANCH   6   9
ENDBRANCH   3   5
BRANCH   1  19
ATOM     19  C   UNL     1      -1.073  -2.122  -0.111  0.00  0.00    +0.257 C 
ATOM     20  C   UNL     1      -1.088  -2.753   1.283  0.00  0.00    +0.062 C 
BRANCH  19  21
ATOM     21  O   UNL     1      -1.165  -0.701   0.009  0.00  0.00    -0.480 OA
BRANCH  21  27
ATOM     22  C   UNL     1      -0.005   1.365   0.228  0.00  0.00    -0.003 A 
ATOM     23  C   UNL     1       1.176   2.052   0.437  0.00  0.00    +0.007 A 
ATOM     24  C   UNL     1       2.355   1.358   0.634  0.00  0.00    +0.001 A 
ATOM     25  C   UNL     1       2.357  -0.025   0.622  0.00  0.00    +0.004 A 
ATOM     26  C   UNL     1       1.180  -0.716   0.413  0.00  0.00    +0.046 A 
ATOM     27  C   UNL     1      -0.005  -0.022   0.215  0.00  0.00    +0.125 A 
BRANCH  22  28
ATOM     28  C   UNL     1      -1.289   2.121   0.007  0.00  0.00    +0.019 C 
ATOM     29  C   UNL     1      -1.150   3.012  -1.229  0.00  0.00    +0.012 C 
BRANCH  28  31
ATOM     30  C   UNL     1      -2.950   3.662   1.062  0.00  0.00    +0.004 C 
ATOM     31  C   UNL     1      -1.586   2.990   1.231  0.00  0.00    +0.004 C 
ENDBRANCH  28  31
ENDBRANCH  22  28
ENDBRANCH  21  27
ENDBRANCH  19  21
ENDBRANCH   1  19
TORSDOF 9
