REMARK  Name = ZINC05067045
REMARK  8 active torsions:
REMARK  status: ('A' for Active; 'I' for Inactive)
REMARK    1  A    between atoms: C_1  and  C_2
REMARK    2  A    between atoms: C_5  and  N_9
REMARK    3  A    between atoms: C_10  and  C_12
REMARK    4  A    between atoms: C_12  and  O_13
REMARK    5  A    between atoms: O_13  and  C_14
REMARK    6  A    between atoms: C_14  and  C_16
REMARK    7  A    between atoms: C_16  and  N_17
REMARK    8  A    between atoms: C_25  and  C_27
REMARK                            x       y       z     vdW  Elec       q    Type
REMARK                         _______ _______ _______ _____ _____    ______ ____
ROOT
ATOM      1  C   UNL     1      -2.947   1.342   1.442  0.00  0.00    +0.326 C 
ATOM      2  O   UNL     1      -2.200   1.588   2.359  0.00  0.00    -0.249 OA
ENDROOT
BRANCH   1   3
ATOM      3  O   UNL     1      -4.194   0.910   1.689  0.00  0.00    -0.454 OA
BRANCH   3   4
ATOM      4  C   UNL     1      -4.576   0.762   3.082  0.00  0.00    +0.328 C 
BRANCH   4   6
ATOM      5  N   UNL     1      -6.571   0.060   4.364  0.00  0.00    -0.283 N 
ATOM      6  C   UNL     1      -5.998   0.271   3.163  0.00  0.00    +0.255 C 
ATOM      7  O   UNL     1      -6.628   0.067   2.147  0.00  0.00    -0.272 OA
ATOM      8  H   UNL     1      -6.048   0.159   5.175  0.00  0.00    +0.155 HD
BRANCH   5  13
ATOM      9  C   UNL     1     -12.043  -1.406   4.684  0.00  0.00    +0.045 C 
ATOM     10  C   UNL     1     -10.590  -1.017   4.599  0.00  0.00    -0.032 A 
ATOM     11  C   UNL     1     -10.035  -0.204   5.570  0.00  0.00    +0.006 A 
ATOM     12  C   UNL     1      -8.702   0.149   5.498  0.00  0.00    +0.023 A 
ATOM     13  C   UNL     1      -7.920  -0.302   4.442  0.00  0.00    +0.035 A 
ATOM     14  C   UNL     1      -8.479  -1.117   3.468  0.00  0.00    +0.043 A 
ATOM     15  C   UNL     1      -9.813  -1.473   3.548  0.00  0.00    +0.046 A 
ATOM     16 CL   UNL     1     -10.513  -2.493   2.330  0.00  0.00    -0.083 Cl
ENDBRANCH   5  13
ENDBRANCH   4   6
ENDBRANCH   3   4
ENDBRANCH   1   3
BRANCH   1  17
ATOM     17  C   UNL     1      -2.479   1.520   0.020  0.00  0.00    +0.238 C 
BRANCH  17  18
ATOM     18  N   UNL     1      -1.094   1.996   0.018  0.00  0.00    -0.213 N 
ATOM     19  C   UNL     1      -0.014   1.188   0.004  0.00  0.00    +0.247 C 
ATOM     20  O   UNL     1      -0.005  -0.025  -0.008  0.00  0.00    -0.273 OA
ATOM     21  C   UNL     1       1.182   2.112   0.000  0.00  0.00    +0.115 C 
ATOM     22  C   UNL     1       2.035   1.883   1.243  0.00  0.00    +0.035 C 
ATOM     23  C   UNL     1       2.604   0.462   1.219  0.00  0.00    +0.003 C 
ATOM     24  C   UNL     1       3.450   0.275  -0.042  0.00  0.00    +0.000 C 
ATOM     25  C   UNL     1       2.577   0.486  -1.281  0.00  0.00    +0.006 C 
ATOM     26  C   UNL     1       2.007   1.907  -1.266  0.00  0.00    +0.018 C 
ATOM     27  C   UNL     1       1.118   2.114  -2.493  0.00  0.00    +0.010 C 
ATOM     28  N   UNL     1       0.594   3.457   0.020  0.00  0.00    -0.285 N 
ATOM     29  C   UNL     1      -0.742   3.288   0.033  0.00  0.00    +0.310 C 
ATOM     30  O   UNL     1      -1.540   4.205   0.050  0.00  0.00    -0.252 OA
ATOM     31  H   UNL     1       1.072   4.301   0.023  0.00  0.00    +0.151 HD
ENDBRANCH  17  18
ENDBRANCH   1  17
TORSDOF 6
