REMARK  Name = ZINC59809305
REMARK  7 active torsions:
REMARK  status: ('A' for Active; 'I' for Inactive)
REMARK    1  A    between atoms: C_4  and  C_7
REMARK    2  A    between atoms: N_9  and  N_10
REMARK    3  A    between atoms: C_11  and  C_13
REMARK    4  A    between atoms: C_13  and  S_14
REMARK    5  A    between atoms: S_14  and  C_15
REMARK    6  A    between atoms: C_18  and  C_26
REMARK    7  A    between atoms: N_19  and  C_20
REMARK                            x       y       z     vdW  Elec       q    Type
REMARK                         _______ _______ _______ _____ _____    ______ ____
ROOT
ATOM      1  C   UNL     1       7.576  -7.328  -0.077  0.00  0.00    +0.197 A 
ATOM      2  N   UNL     1       8.680  -6.633  -0.237  0.00  0.00    -0.122 NA
ATOM      3  N   UNL     1       9.699  -7.415  -0.242  0.00  0.00    -0.128 NA
ATOM      4  C   UNL     1       9.312  -8.659  -0.086  0.00  0.00    +0.170 A 
ATOM      5  N   UNL     1       7.939  -8.643   0.030  0.00  0.00    -0.270 N 
ENDROOT
BRANCH   4   6
ATOM      6  C   UNL     1      10.184  -9.851  -0.038  0.00  0.00    +0.034 A 
ATOM      7  C   UNL     1       9.876 -10.976  -0.805  0.00  0.00    +0.013 A 
ATOM      8  C   UNL     1      10.694 -12.086  -0.756  0.00  0.00    +0.001 A 
ATOM      9  C   UNL     1      11.818 -12.086   0.051  0.00  0.00    +0.001 A 
ATOM     10  C   UNL     1      12.129 -10.976   0.814  0.00  0.00    +0.016 A 
ATOM     11  C   UNL     1      11.323  -9.856   0.770  0.00  0.00    +0.029 A 
ATOM     12 BR   UNL     1      11.754  -8.335   1.807  0.00  0.00    -0.050 Br
ENDBRANCH   4   6
BRANCH   5  13
ATOM     13  C   UNL     1       7.091  -9.744   0.216  0.00  0.00    +0.051 A 
ATOM     14  C   UNL     1       7.135 -10.463   1.403  0.00  0.00    +0.026 A 
ATOM     15  C   UNL     1       6.298 -11.547   1.584  0.00  0.00    +0.002 A 
ATOM     16  C   UNL     1       5.417 -11.916   0.584  0.00  0.00    +0.000 A 
ATOM     17  C   UNL     1       5.371 -11.202  -0.599  0.00  0.00    +0.002 A 
ATOM     18  C   UNL     1       6.202 -10.114  -0.784  0.00  0.00    +0.026 A 
ENDBRANCH   5  13
BRANCH   1  19
ATOM     19  S   UNL     1       5.936  -6.687  -0.006  0.00  0.00    -0.076 S 
BRANCH  19  20
ATOM     20  C   UNL     1       6.156  -4.898  -0.212  0.00  0.00    +0.174 C 
BRANCH  20  22
ATOM     21  N   UNL     1       4.728  -2.881  -0.303  0.00  0.00    -0.233 N 
ATOM     22  C   UNL     1       4.811  -4.219  -0.170  0.00  0.00    +0.239 C 
ATOM     23  O   UNL     1       3.804  -4.877  -0.016  0.00  0.00    -0.273 OA
ATOM     24  H   UNL     1       5.533  -2.354  -0.426  0.00  0.00    +0.173 HD
BRANCH  21  27
ATOM     25  C   UNL     1       3.394  -0.911  -0.398  0.00  0.00    +0.260 C 
ATOM     26  O   UNL     1       4.403  -0.251  -0.552  0.00  0.00    -0.269 OA
ATOM     27  N   UNL     1       3.478  -2.249  -0.264  0.00  0.00    -0.230 N 
ATOM     28  H   UNL     1       2.672  -2.776  -0.141  0.00  0.00    +0.173 HD
BRANCH  25  32
ATOM     29  C   UNL     1      -0.396   1.003  -0.280  0.00  0.00    +0.000 A 
ATOM     30  C   UNL     1       0.751   1.757  -0.455  0.00  0.00    +0.001 A 
ATOM     31  C   UNL     1       1.985   1.141  -0.494  0.00  0.00    +0.013 A 
ATOM     32  C   UNL     1       2.075  -0.244  -0.356  0.00  0.00    +0.038 A 
ATOM     33  C   UNL     1       0.914  -0.999  -0.180  0.00  0.00    +0.013 A 
ATOM     34  C   UNL     1      -0.314  -0.371  -0.142  0.00  0.00    +0.001 A 
ENDBRANCH  25  32
ENDBRANCH  21  27
ENDBRANCH  20  22
ENDBRANCH  19  20
ENDBRANCH   1  19
TORSDOF 7
