REMARK  Name = ZINC09553698
REMARK  11 active torsions:
REMARK  status: ('A' for Active; 'I' for Inactive)
REMARK    1  A    between atoms: C_1  and  O_2
REMARK    2  A    between atoms: O_2  and  C_3
REMARK    3  A    between atoms: C_5  and  N_11
REMARK    4  A    between atoms: C_7  and  O_9
REMARK    5  A    between atoms: O_9  and  C_10
REMARK    6  A    between atoms: N_11  and  S_12
REMARK    7  A    between atoms: S_12  and  C_15
REMARK    8  A    between atoms: C_18  and  N_21
REMARK    9  A    between atoms: C_24  and  C_27
REMARK   10  A    between atoms: C_30  and  O_34
REMARK   11  A    between atoms: C_31  and  O_33
REMARK                            x       y       z     vdW  Elec       q    Type
REMARK                         _______ _______ _______ _____ _____    ______ ____
ROOT
ATOM      1  C   UNL     1       8.890   6.961   0.356  0.00  0.00    +0.109 A 
ATOM      2  C   UNL     1       7.832   7.841   0.493  0.00  0.00    +0.030 A 
ATOM      3  C   UNL     1       6.533   7.376   0.433  0.00  0.00    +0.025 A 
ATOM      4  C   UNL     1       6.290   6.022   0.237  0.00  0.00    +0.033 A 
ATOM      5  C   UNL     1       7.355   5.140   0.107  0.00  0.00    +0.025 A 
ATOM      6  C   UNL     1       8.651   5.613   0.161  0.00  0.00    +0.030 A 
ENDROOT
BRANCH   4   7
ATOM      7  N   UNL     1       4.976   5.548   0.178  0.00  0.00    -0.294 N 
ATOM      8  C   UNL     1       4.665   4.472  -0.639  0.00  0.00    +0.163 A 
ATOM      9  N   UNL     1       3.526   3.813  -0.755  0.00  0.00    -0.225 NA
ATOM     10  C   UNL     1       3.404   2.793  -1.593  0.00  0.00    +0.080 A 
ATOM     11  C   UNL     1       4.473   2.424  -2.359  0.00  0.00    +0.076 A 
ATOM     12  S   UNL     1       5.695   3.612  -1.820  0.00  0.00    -0.060 S 
ATOM     13  H   UNL     1       4.283   5.971   0.707  0.00  0.00    +0.154 HD
BRANCH  10  14
ATOM     14  C   UNL     1       2.117   2.063  -1.701  0.00  0.00    +0.005 A 
ATOM     15  C   UNL     1       2.022   0.932  -2.510  0.00  0.00    +0.014 A 
ATOM     16  C   UNL     1       0.825   0.254  -2.611  0.00  0.00    +0.050 A 
ATOM     17  C   UNL     1      -0.287   0.696  -1.910  0.00  0.00    +0.158 A 
ATOM     18  C   UNL     1      -0.198   1.825  -1.100  0.00  0.00    +0.159 A 
ATOM     19  C   UNL     1       1.001   2.508  -0.995  0.00  0.00    +0.059 A 
BRANCH  18  20
ATOM     20  O   UNL     1      -1.291   2.260  -0.417  0.00  0.00    -0.503 OA
ATOM     21  H   UNL     1      -1.381   1.877   0.466  0.00  0.00    +0.292 HD
ENDBRANCH  18  20
BRANCH  17  22
ATOM     22  O   UNL     1      -1.466   0.025  -2.013  0.00  0.00    -0.503 OA
ATOM     23  H   UNL     1      -2.036   0.340  -2.727  0.00  0.00    +0.292 HD
ENDBRANCH  17  22
ENDBRANCH  10  14
ENDBRANCH   4   7
BRANCH   1  24
ATOM     24  S   UNL     1      10.545   7.559   0.431  0.00  0.00    +0.073 S 
ATOM     25  O   UNL     1      11.349   6.619  -0.268  0.00  0.00    -0.150 OA
ATOM     26  O   UNL     1      10.497   8.934   0.076  0.00  0.00    -0.150 OA
BRANCH  24  27
ATOM     27  N   UNL     1      11.017   7.497   2.018  0.00  0.00    -0.199 N 
ATOM     28  H   UNL     1      11.213   8.317   2.498  0.00  0.00    +0.175 HD
BRANCH  27  31
ATOM     29  C   UNL     1      11.630   4.962   4.593  0.00  0.00    +0.222 A 
ATOM     30  C   UNL     1      11.534   6.210   3.991  0.00  0.00    +0.112 A 
ATOM     31  C   UNL     1      11.132   6.274   2.659  0.00  0.00    +0.148 A 
ATOM     32  N   UNL     1      10.866   5.144   2.009  0.00  0.00    -0.178 NA
ATOM     33  C   UNL     1      10.974   3.973   2.615  0.00  0.00    +0.323 A 
ATOM     34  N   UNL     1      11.348   3.876   3.880  0.00  0.00    -0.160 NA
BRANCH  29  36
ATOM     35  C   UNL     1      12.094   3.534   6.432  0.00  0.00    +0.279 C 
ATOM     36  O   UNL     1      12.013   4.853   5.889  0.00  0.00    -0.479 OA
ENDBRANCH  29  36
BRANCH  33  37
ATOM     37  O   UNL     1      10.695   2.844   1.922  0.00  0.00    -0.466 OA
ATOM     38  C   UNL     1      10.827   1.604   2.620  0.00  0.00    +0.280 C 
ENDBRANCH  33  37
ENDBRANCH  27  31
ENDBRANCH  24  27
ENDBRANCH   1  24
TORSDOF 9
