REMARK  Name = ZINC58960321
REMARK  10 active torsions:
REMARK  status: ('A' for Active; 'I' for Inactive)
REMARK    1  A    between atoms: C_1  and  C_2
REMARK    2  A    between atoms: C_2  and  C_3
REMARK    3  A    between atoms: C_6  and  C_9
REMARK    4  A    between atoms: C_11  and  C_33
REMARK    5  A    between atoms: C_13  and  S_15
REMARK    6  A    between atoms: S_15  and  C_16
REMARK    7  A    between atoms: C_16  and  C_17
REMARK    8  A    between atoms: N_19  and  C_20
REMARK    9  A    between atoms: C_21  and  C_31
REMARK   10  A    between atoms: C_26  and  C_30
REMARK                            x       y       z     vdW  Elec       q    Type
REMARK                         _______ _______ _______ _____ _____    ______ ____
ROOT
ATOM      1  C   UNL     1       2.787  -1.912   4.667  0.00  0.00    +0.076 A 
ATOM      2  C   UNL     1       2.092  -2.175   5.851  0.00  0.00    +0.060 A 
ATOM      3  C   UNL     1       2.803  -2.632   6.946  0.00  0.00    +0.148 A 
ATOM      4  N   UNL     1       4.111  -2.806   6.842  0.00  0.00    -0.218 NA
ATOM      5  C   UNL     1       4.745  -2.548   5.707  0.00  0.00    +0.190 A 
ATOM      6  N   UNL     1       4.102  -2.115   4.633  0.00  0.00    -0.222 NA
ENDROOT
BRANCH   1  10
ATOM      7  C   UNL     1       0.731  -0.503   1.223  0.00  0.00    -0.048 A 
ATOM      8  C   UNL     1       2.098  -0.709   1.173  0.00  0.00    +0.004 A 
ATOM      9  C   UNL     1       2.771  -1.166   2.288  0.00  0.00    +0.010 A 
ATOM     10  C   UNL     1       2.070  -1.420   3.466  0.00  0.00    +0.001 A 
ATOM     11  C   UNL     1       0.693  -1.211   3.510  0.00  0.00    +0.010 A 
ATOM     12  C   UNL     1       0.031  -0.749   2.391  0.00  0.00    +0.004 A 
BRANCH   7  14
ATOM     13  C   UNL     1      -0.019   1.526   0.010  0.00  0.00    +0.009 C 
ATOM     14  C   UNL     1       0.002  -0.004   0.002  0.00  0.00    +0.032 C 
ENDBRANCH   7  14
ENDBRANCH   1  10
BRANCH   3  15
ATOM     15  C   UNL     1       2.096  -2.929   8.243  0.00  0.00    +0.434 C 
ATOM     16  F   UNL     1       1.681  -4.264   8.253  0.00  0.00    -0.164 F 
ATOM     17  F   UNL     1       2.970  -2.704   9.312  0.00  0.00    -0.164 F 
ATOM     18  F   UNL     1       0.982  -2.092   8.369  0.00  0.00    -0.164 F 
ENDBRANCH   3  15
BRANCH   5  19
ATOM     19  S   UNL     1       6.488  -2.796   5.622  0.00  0.00    -0.077 S 
BRANCH  19  20
ATOM     20  C   UNL     1       6.928  -3.387   7.279  0.00  0.00    +0.173 C 
BRANCH  20  21
ATOM     21  C   UNL     1       8.412  -3.641   7.344  0.00  0.00    +0.228 C 
ATOM     22  O   UNL     1       9.105  -3.443   6.368  0.00  0.00    -0.275 OA
ATOM     23  N   UNL     1       8.970  -4.089   8.486  0.00  0.00    -0.278 N 
ATOM     24  H   UNL     1       8.417  -4.247   9.267  0.00  0.00    +0.155 HD
BRANCH  23  25
ATOM     25  C   UNL     1      10.337  -4.323   8.545  0.00  0.00    +0.090 A 
ATOM     26  C   UNL     1      11.076  -4.784   9.622  0.00  0.00    +0.084 A 
ATOM     27  C   UNL     1      12.505  -4.947   9.427  0.00  0.00    -0.018 A 
ATOM     28  C   UNL     1      12.935  -4.618   8.189  0.00  0.00    -0.004 A 
ATOM     29  S   UNL     1      11.474  -4.119   7.326  0.00  0.00    -0.077 S 
ATOM     30  C   UNL     1      14.342  -4.675   7.680  0.00  0.00    +0.046 C 
ATOM     31  C   UNL     1      15.285  -4.804   8.885  0.00  0.00    -0.009 C 
ATOM     32  C   UNL     1      14.760  -5.906   9.810  0.00  0.00    +0.008 C 
ATOM     33  C   UNL     1      13.472  -5.442  10.493  0.00  0.00    +0.037 C 
ATOM     34  C   UNL     1      16.690  -5.166   8.399  0.00  0.00    +0.008 C 
BRANCH  26  35
ATOM     35  C   UNL     1      10.456  -5.088  10.877  0.00  0.00    +0.102 C 
ATOM     36  N   UNL     1       9.964  -5.329  11.872  0.00  0.00    -0.191 NA
ENDBRANCH  26  35
ENDBRANCH  23  25
ENDBRANCH  20  21
ENDBRANCH  19  20
ENDBRANCH   5  19
TORSDOF 8
