REMARK  Name = ZINC01736957
REMARK  4 active torsions:
REMARK  status: ('A' for Active; 'I' for Inactive)
REMARK    1  A    between atoms: C_4  and  N_7
REMARK    2  A    between atoms: N_7  and  P_8
REMARK    3  A    between atoms: P_17  and  N_21
REMARK    4  A    between atoms: N_21  and  C_22
REMARK                            x       y       z     vdW  Elec       q    Type
REMARK                         _______ _______ _______ _____ _____    ______ ____
ROOT
ATOM      1  P   UNL     1      -0.079  -4.633   5.735  0.00  0.00    +0.408 P 
ATOM      2  O   UNL     1      -0.655  -5.963   6.034  0.00  0.00    -0.240 OA
ATOM      3  O   UNL     1      -1.260  -3.522   5.628  0.00  0.00    -0.295 OA
ATOM      4  C   UNL     1      -1.801  -2.961   6.840  0.00  0.00    +0.185 C 
ATOM      5  C   UNL     1      -0.653  -2.426   7.701  0.00  0.00    +0.066 C 
ATOM      6  C   UNL     1       0.269  -3.571   8.130  0.00  0.00    +0.185 C 
ATOM      7  O   UNL     1       0.875  -4.147   6.958  0.00  0.00    -0.295 OA
ATOM      8  C   UNL     1       0.154  -1.412   6.885  0.00  0.00    +0.185 C 
ATOM      9  O   UNL     1      -0.729  -0.375   6.419  0.00  0.00    -0.295 OA
ATOM     10  P   UNL     1      -1.667   0.402   7.495  0.00  0.00    +0.408 P 
ATOM     11  O   UNL     1      -0.888   1.447   8.196  0.00  0.00    -0.240 OA
ATOM     12  O   UNL     1      -2.160  -0.733   8.548  0.00  0.00    -0.295 OA
ATOM     13  C   UNL     1      -1.235  -1.759   8.951  0.00  0.00    +0.185 C 
ENDROOT
BRANCH   1  14
ATOM     14  N   UNL     1       0.798  -4.688   4.300  0.00  0.00    -0.219 NA
ATOM     15  H   UNL     1       0.226  -5.022   3.539  0.00  0.00    +0.134 HD
BRANCH  14  19
ATOM     16  C   UNL     1       3.419  -1.739   2.668  0.00  0.00    +0.000 C 
ATOM     17  C   UNL     1       1.983  -1.800   2.144  0.00  0.00    +0.002 C 
ATOM     18  C   UNL     1       1.379  -3.167   2.471  0.00  0.00    +0.019 C 
ATOM     19  C   UNL     1       1.378  -3.376   3.987  0.00  0.00    +0.064 C 
ATOM     20  C   UNL     1       2.814  -3.314   4.510  0.00  0.00    +0.019 C 
ATOM     21  C   UNL     1       3.418  -1.947   4.184  0.00  0.00    +0.002 C 
ENDBRANCH  14  19
ENDBRANCH   1  14
BRANCH  10  22
ATOM     22  N   UNL     1      -2.993   1.090   6.718  0.00  0.00    -0.219 NA
ATOM     23  H   UNL     1      -2.718   1.899   6.182  0.00  0.00    +0.134 HD
BRANCH  22  24
ATOM     24  C   UNL     1      -3.677   0.104   5.871  0.00  0.00    +0.064 C 
ATOM     25  C   UNL     1      -3.807   0.655   4.450  0.00  0.00    +0.019 C 
ATOM     26  C   UNL     1      -4.519  -0.372   3.567  0.00  0.00    +0.002 C 
ATOM     27  C   UNL     1      -5.912  -0.653   4.135  0.00  0.00    +0.000 C 
ATOM     28  C   UNL     1      -5.782  -1.204   5.556  0.00  0.00    +0.002 C 
ATOM     29  C   UNL     1      -5.070  -0.177   6.438  0.00  0.00    +0.019 C 
ENDBRANCH  22  24
ENDBRANCH  10  22
TORSDOF 4
