REMARK  Name = ZINC22064444
REMARK  8 active torsions:
REMARK  status: ('A' for Active; 'I' for Inactive)
REMARK    1  A    between atoms: C_1  and  C_2
REMARK    2  A    between atoms: C_2  and  C_4
REMARK    3  A    between atoms: C_2  and  O_23
REMARK    4  A    between atoms: C_9  and  C_12
REMARK    5  A    between atoms: C_15  and  N_18
REMARK    6  A    between atoms: N_18  and  S_19
REMARK    7  A    between atoms: S_19  and  C_22
REMARK    8  A    between atoms: O_23  and  C_24
REMARK                            x       y       z     vdW  Elec       q    Type
REMARK                         _______ _______ _______ _____ _____    ______ ____
ROOT
ATOM      1  C   UNL     1      -0.431   9.289   8.826  0.00  0.00    +0.259 C 
ATOM      2  O   UNL     1       0.222   8.649   9.623  0.00  0.00    -0.271 OA
ATOM      3  N   UNL     1      -0.847   8.715   7.680  0.00  0.00    -0.262 N 
ATOM      4  C   UNL     1      -0.528   7.389   7.411  0.00  0.00    +0.165 A 
ATOM      5  N   UNL     1      -0.832   6.654   6.358  0.00  0.00    -0.225 NA
ATOM      6  C   UNL     1      -0.445   5.391   6.267  0.00  0.00    +0.080 A 
ATOM      7  C   UNL     1       0.293   4.840   7.278  0.00  0.00    +0.076 A 
ATOM      8  S   UNL     1       0.410   6.230   8.397  0.00  0.00    -0.060 S 
ATOM      9  H   UNL     1      -1.439   9.295   6.957  0.00  0.00    +0.157 HD
ENDROOT
BRANCH   6  10
ATOM     10  C   UNL     1      -0.803   4.582   5.076  0.00  0.00    +0.001 A 
ATOM     11  C   UNL     1      -1.556   5.149   4.048  0.00  0.00    +0.012 A 
ATOM     12  C   UNL     1      -1.888   4.395   2.942  0.00  0.00    +0.025 A 
ATOM     13  C   UNL     1      -1.473   3.072   2.851  0.00  0.00    +0.048 A 
ATOM     14  C   UNL     1      -0.728   2.503   3.877  0.00  0.00    +0.025 A 
ATOM     15  C   UNL     1      -0.389   3.254   4.983  0.00  0.00    +0.012 A 
BRANCH  13  16
ATOM     16  N   UNL     1      -1.811   2.311   1.730  0.00  0.00    -0.221 N 
ATOM     17  H   UNL     1      -2.839   1.938   1.608  0.00  0.00    +0.173 HD
BRANCH  16  18
ATOM     18  S   UNL     1      -0.665   1.969   0.585  0.00  0.00    +0.040 S 
ATOM     19  O   UNL     1      -1.334   1.152  -0.366  0.00  0.00    -0.155 OA
ATOM     20  O   UNL     1       0.443   1.468   1.319  0.00  0.00    -0.155 OA
ATOM     21  C   UNL     1      -0.251   3.574  -0.153  0.00  0.00    +0.218 C 
ENDBRANCH  16  18
ENDBRANCH  13  16
ENDBRANCH   6  10
BRANCH   1  23
ATOM     22  C   UNL     1      -0.196  11.623   8.022  0.00  0.00    +0.062 C 
ATOM     23  C   UNL     1      -0.777  10.727   9.117  0.00  0.00    +0.256 C 
BRANCH  23  24
ATOM     24  O   UNL     1      -0.227  11.102  10.382  0.00  0.00    -0.480 OA
BRANCH  24  25
ATOM     25  C   UNL     1      -0.830  12.130  11.036  0.00  0.00    +0.122 A 
ATOM     26  C   UNL     1      -0.425  12.469  12.319  0.00  0.00    +0.047 A 
ATOM     27  C   UNL     1      -1.035  13.518  12.980  0.00  0.00    +0.019 A 
ATOM     28  C   UNL     1      -2.057  14.222  12.368  0.00  0.00    +0.018 A 
ATOM     29  C   UNL     1      -2.467  13.881  11.091  0.00  0.00    +0.019 A 
ATOM     30  C   UNL     1      -1.855  12.837  10.424  0.00  0.00    +0.047 A 
ATOM     31 BR   UNL     1      -2.895  15.652  13.278  0.00  0.00    -0.050 Br
ENDBRANCH  24  25
ENDBRANCH  23  24
ENDBRANCH   1  23
TORSDOF 6
