REMARK  Name = ZINC13641375
REMARK  7 active torsions:
REMARK  status: ('A' for Active; 'I' for Inactive)
REMARK    1  A    between atoms: C_14  and  C_15
REMARK    2  A    between atoms: C_14  and  O_35
REMARK    3  A    between atoms: C_21  and  C_23
REMARK    4  A    between atoms: N_25  and  C_26
REMARK    5  A    between atoms: C_26  and  C_27
REMARK    6  A    between atoms: C_32  and  C_33
REMARK    7  A    between atoms: C_33  and  N_60
REMARK                            x       y       z     vdW  Elec       q    Type
REMARK                         _______ _______ _______ _____ _____    ______ ____
ROOT
ATOM      1  C   UNL     1       0.996  -2.800   1.234  0.00  0.00    +0.259 C 
ATOM      2  O   UNL     1       0.901  -2.160   2.260  0.00  0.00    -0.272 OA
ATOM      3  N   UNL     1       0.624  -4.095   1.212  0.00  0.00    -0.287 N 
ATOM      4  C   UNL     1       0.782  -5.015   0.070  0.00  0.00    +0.109 C 
ATOM      5  C   UNL     1       0.808  -6.430   0.705  0.00  0.00    +0.021 C 
ATOM      6  C   UNL     1      -0.232  -6.276   1.846  0.00  0.00    +0.033 C 
ATOM      7  C   UNL     1      -0.014  -4.823   2.318  0.00  0.00    +0.162 C 
ENDROOT
BRANCH   1  21
ATOM      8  C   UNL     1       4.963  -4.078  -1.626  0.00  0.00    +0.001 A 
ATOM      9  C   UNL     1       5.117  -3.525  -0.367  0.00  0.00    +0.000 A 
ATOM     10  C   UNL     1       4.057  -2.876   0.240  0.00  0.00    +0.008 A 
ATOM     11  C   UNL     1       2.844  -2.779  -0.409  0.00  0.00    +0.007 A 
ATOM     12  C   UNL     1       2.679  -3.333  -1.676  0.00  0.00    -0.009 A 
ATOM     13  C   UNL     1       3.753  -3.986  -2.282  0.00  0.00    +0.009 A 
ATOM     14  C   UNL     1       1.292  -3.091  -2.142  0.00  0.00    +0.009 A 
ATOM     15  C   UNL     1       0.639  -3.441  -3.328  0.00  0.00    +0.012 A 
ATOM     16  C   UNL     1      -0.685  -3.070  -3.483  0.00  0.00    +0.022 A 
ATOM     17  C   UNL     1      -1.316  -2.371  -2.470  0.00  0.00    +0.134 A 
ATOM     18  N   UNL     1      -0.674  -2.054  -1.361  0.00  0.00    -0.140 N 
ATOM     19  O   UNL     1      -1.359  -1.338  -0.350  0.00  0.00    -0.164 OA
ATOM     20  C   UNL     1       0.588  -2.386  -1.170  0.00  0.00    +0.115 A 
ATOM     21  C   UNL     1       1.531  -2.148  -0.015  0.00  0.00    +0.212 C 
BRANCH  21  22
ATOM     22  O   UNL     1       1.704  -0.745   0.198  0.00  0.00    -0.370 OA
ATOM     23  H   UNL     1       0.913  -0.297   0.527  0.00  0.00    +0.212 HD
ENDBRANCH  21  22
ENDBRANCH   1  21
BRANCH   7  24
ATOM     24  C   UNL     1       0.883  -4.803   3.529  0.00  0.00    +0.234 C 
ATOM     25  O   UNL     1       1.955  -4.237   3.481  0.00  0.00    -0.274 OA
ATOM     26  N   UNL     1       0.494  -5.414   4.666  0.00  0.00    -0.310 N 
ATOM     27  H   UNL     1      -0.363  -5.867   4.705  0.00  0.00    +0.149 HD
BRANCH  26  28
ATOM     28  C   UNL     1       1.367  -5.395   5.843  0.00  0.00    +0.139 C 
BRANCH  28  29
ATOM     29  C   UNL     1       0.704  -6.143   6.971  0.00  0.00    -0.028 A 
ATOM     30  C   UNL     1       0.059  -5.447   7.976  0.00  0.00    +0.025 A 
ATOM     31  C   UNL     1      -0.553  -6.134   9.009  0.00  0.00    +0.041 A 
ATOM     32  C   UNL     1      -0.510  -7.517   9.041  0.00  0.00    +0.020 A 
ATOM     33  C   UNL     1       0.141  -8.211   8.039  0.00  0.00    +0.003 A 
ATOM     34  C   UNL     1       0.748  -7.524   7.004  0.00  0.00    -0.060 A 
ATOM     35 CL   UNL     1      -1.370  -5.261  10.268  0.00  0.00    -0.084 Cl
BRANCH  34  36
ATOM     36  C   UNL     1       1.457  -8.281   5.911  0.00  0.00    -0.050 C 
BRANCH  36  39
ATOM     37  H   UNL     1       3.115  -8.639   7.078  0.00  0.00    -0.090 HD
ATOM     38  H   UNL     1       3.402  -8.768   5.445  0.00  0.00    -0.090 HD
ATOM     39  N   UNL     1       2.909  -8.242   6.163  0.00  0.00    +0.381 N 
ATOM     40  H   UNL     1       3.228  -7.266   6.143  0.00  0.00    -0.090 HD
ENDBRANCH  36  39
ENDBRANCH  34  36
ENDBRANCH  28  29
ENDBRANCH  26  28
ENDBRANCH   7  24
TORSDOF 7
