REMARK  Name = ZINC66533628
REMARK  5 active torsions:
REMARK  status: ('A' for Active; 'I' for Inactive)
REMARK    1  A    between atoms: C_1  and  O_2
REMARK    2  A    between atoms: O_2  and  C_3
REMARK    3  A    between atoms: C_9  and  O_11
REMARK    4  A    between atoms: O_11  and  C_12
REMARK    5  A    between atoms: C_12  and  C_14
REMARK                            x       y       z     vdW  Elec       q    Type
REMARK                         _______ _______ _______ _____ _____    ______ ____
ROOT
ATOM      1  C   UNL     1       4.305  -2.415   1.381  0.00  0.00    +0.063 A 
ATOM      2  C   UNL     1       4.192  -1.397   2.333  0.00  0.00    +0.017 A 
ATOM      3  C   UNL     1       5.151  -1.260   3.313  0.00  0.00    +0.028 A 
ATOM      4  C   UNL     1       6.230  -2.132   3.356  0.00  0.00    +0.076 A 
ATOM      5  C   UNL     1       6.349  -3.151   2.408  0.00  0.00    +0.143 A 
ATOM      6  C   UNL     1       5.389  -3.297   1.428  0.00  0.00    +0.062 A 
ATOM      7  O   UNL     1       7.415  -3.994   2.462  0.00  0.00    -0.481 OA
ATOM      8  C   UNL     1       8.646  -3.443   2.939  0.00  0.00    +0.325 C 
ATOM      9  C   UNL     1       8.389  -2.639   4.188  0.00  0.00    +0.255 C 
ATOM     10  O   UNL     1       9.241  -2.563   5.048  0.00  0.00    -0.272 OA
ATOM     11  N   UNL     1       7.209  -2.003   4.346  0.00  0.00    -0.280 N 
ATOM     12  H   UNL     1       7.042  -1.464   5.135  0.00  0.00    +0.155 HD
ENDROOT
BRANCH   1  13
ATOM     13  C   UNL     1       3.278  -2.562   0.333  0.00  0.00    +0.340 C 
ATOM     14  O   UNL     1       3.374  -3.450  -0.491  0.00  0.00    -0.245 OA
BRANCH  13  15
ATOM     15  O   UNL     1       2.234  -1.712   0.289  0.00  0.00    -0.455 OA
BRANCH  15  21
ATOM     16  C   UNL     1       0.652  -0.570  -1.138  0.00  0.00    +0.158 C 
ATOM     17  C   UNL     1      -0.372  -0.785  -2.254  0.00  0.00    +0.035 C 
ATOM     18  C   UNL     1      -1.466  -1.737  -1.766  0.00  0.00    +0.003 C 
ATOM     19  C   UNL     1      -0.841  -3.079  -1.382  0.00  0.00    +0.004 C 
ATOM     20  C   UNL     1       0.183  -2.864  -0.266  0.00  0.00    +0.047 C 
ATOM     21  C   UNL     1       1.277  -1.913  -0.754  0.00  0.00    +0.205 C 
BRANCH  16  23
ATOM     22  C   UNL     1      -0.017   1.425   0.010  0.00  0.00    +0.194 C 
ATOM     23  O   UNL     1       0.002  -0.004   0.002  0.00  0.00    -0.376 OA
ENDBRANCH  16  23
ENDBRANCH  15  21
ENDBRANCH  13  15
ENDBRANCH   1  13
TORSDOF 4
