REMARK  Name = ZINC17145741
REMARK  13 active torsions:
REMARK  status: ('A' for Active; 'I' for Inactive)
REMARK    1  A    between atoms: C_1  and  C_2
REMARK    2  A    between atoms: C_2  and  O_3
REMARK    3  A    between atoms: O_3  and  C_4
REMARK    4  A    between atoms: C_6  and  C_12
REMARK    5  A    between atoms: C_9  and  O_10
REMARK    6  A    between atoms: C_19  and  C_36
REMARK    7  A    between atoms: C_20  and  C_32
REMARK    8  A    between atoms: C_21  and  C_23
REMARK    9  A    between atoms: C_26  and  C_29
REMARK   10  A    between atoms: C_29  and  C_30
REMARK   11  A    between atoms: C_29  and  C_31
REMARK   12  A    between atoms: C_32  and  O_34
REMARK   13  A    between atoms: O_34  and  C_35
REMARK                            x       y       z     vdW  Elec       q    Type
REMARK                         _______ _______ _______ _____ _____    ______ ____
ROOT
ATOM      1  C   UNL     1      -1.340  -0.776  -0.437  0.00  0.00    +0.028 C 
ATOM      2  C   UNL     1      -2.498  -0.114  -0.178  0.00  0.00    +0.081 A 
ATOM      3  C   UNL     1      -2.780   1.327  -0.230  0.00  0.00    +0.268 A 
ATOM      4  O   UNL     1      -1.915   2.125  -0.539  0.00  0.00    -0.266 OA
ATOM      5  N   UNL     1      -4.019   1.736   0.071  0.00  0.00    -0.275 N 
ATOM      6  C   UNL     1      -4.959   0.793   0.421  0.00  0.00    +0.178 A 
ATOM      7  N   UNL     1      -6.197   1.075   0.739  0.00  0.00    -0.228 NA
ATOM      8  C   UNL     1      -6.712   2.298   0.767  0.00  0.00    +0.053 C 
ATOM      9  C   UNL     1      -5.944   3.383   0.451  0.00  0.00    +0.085 C 
ATOM     10  C   UNL     1      -4.500   3.146   0.072  0.00  0.00    +0.162 C 
ATOM     11  C   UNL     1      -8.156   2.491   1.151  0.00  0.00    +0.066 C 
ATOM     12  S   UNL     1      -4.086  -0.757   0.324  0.00  0.00    -0.046 S 
ENDROOT
BRANCH   1  15
ATOM     13  C   UNL     1       2.169   0.374  -1.089  0.00  0.00    +0.164 A 
ATOM     14  C   UNL     1       1.098  -0.304  -0.542  0.00  0.00    +0.057 A 
ATOM     15  C   UNL     1      -0.197  -0.059  -1.015  0.00  0.00    -0.019 A 
ATOM     16  C   UNL     1      -0.399   0.872  -2.042  0.00  0.00    +0.032 A 
ATOM     17  C   UNL     1       0.677   1.543  -2.582  0.00  0.00    +0.087 A 
ATOM     18  C   UNL     1       1.961   1.299  -2.111  0.00  0.00    +0.177 A 
ATOM     19 CL   UNL     1       0.427   2.697  -3.855  0.00  0.00    -0.080 Cl
BRANCH  18  20
ATOM     20  O   UNL     1       3.018   1.965  -2.647  0.00  0.00    -0.502 OA
ATOM     21  H   UNL     1       3.422   1.517  -3.403  0.00  0.00    +0.292 HD
ENDBRANCH  18  20
BRANCH  13  22
ATOM     22  O   UNL     1       3.428   0.138  -0.632  0.00  0.00    -0.489 OA
BRANCH  22  24
ATOM     23  C   UNL     1       5.045  -0.952   0.796  0.00  0.00    +0.048 C 
ATOM     24  C   UNL     1       3.568  -0.823   0.416  0.00  0.00    +0.226 C 
ENDBRANCH  22  24
ENDBRANCH  13  22
ENDBRANCH   1  15
BRANCH  10  25
ATOM     25  C   UNL     1      -3.635   3.930   1.026  0.00  0.00    -0.020 A 
ATOM     26  C   UNL     1      -3.247   3.368   2.228  0.00  0.00    +0.006 A 
ATOM     27  C   UNL     1      -2.450   4.084   3.101  0.00  0.00    +0.004 A 
ATOM     28  C   UNL     1      -2.050   5.367   2.777  0.00  0.00    -0.045 A 
ATOM     29  C   UNL     1      -2.443   5.931   1.577  0.00  0.00    +0.004 A 
ATOM     30  C   UNL     1      -3.235   5.213   0.702  0.00  0.00    +0.006 A 
BRANCH  28  31
ATOM     31  C   UNL     1      -1.187   6.151   3.731  0.00  0.00    +0.013 C 
ATOM     32  C   UNL     1      -1.920   6.318   5.063  0.00  0.00    +0.012 C 
ATOM     33  C   UNL     1       0.127   5.402   3.963  0.00  0.00    +0.012 C 
ENDBRANCH  28  31
ENDBRANCH  10  25
BRANCH   9  34
ATOM     34  C   UNL     1      -6.480   4.681   0.478  0.00  0.00    +0.339 C 
ATOM     35  O   UNL     1      -7.669   4.844   0.686  0.00  0.00    -0.245 OA
BRANCH  34  36
ATOM     36  O   UNL     1      -5.677   5.748   0.274  0.00  0.00    -0.465 OA
ATOM     37  C   UNL     1      -6.290   7.038   0.315  0.00  0.00    +0.280 C 
ENDBRANCH  34  36
ENDBRANCH   9  34
TORSDOF 8
