REMARK  Name = ZINC36555349
REMARK  15 active torsions:
REMARK  status: ('A' for Active; 'I' for Inactive)
REMARK    1  A    between atoms: C_1  and  C_2
REMARK    2  A    between atoms: C_5  and  C_9
REMARK    3  A    between atoms: C_6  and  C_8
REMARK    4  A    between atoms: C_9  and  C_11
REMARK    5  A    between atoms: C_9  and  N_18
REMARK    6  A    between atoms: N_13  and  C_14
REMARK    7  A    between atoms: C_14  and  C_15
REMARK    8  A    between atoms: C_14  and  C_16
REMARK    9  A    between atoms: C_14  and  C_17
REMARK   10  A    between atoms: N_18  and  C_19
REMARK   11  A    between atoms: C_19  and  C_20
REMARK   12  A    between atoms: C_23  and  C_25
REMARK   13  A    between atoms: C_26  and  C_28
REMARK   14  A    between atoms: C_28  and  C_36
REMARK   15  A    between atoms: C_29  and  C_30
REMARK                            x       y       z     vdW  Elec       q    Type
REMARK                         _______ _______ _______ _____ _____    ______ ____
ROOT
ATOM      1  N   UNL     1       0.943  -4.447  -1.727  0.00  0.00    -0.275 N 
ATOM      2  C   UNL     1       2.275  -4.633  -1.629  0.00  0.00    +0.248 C 
ATOM      3  O   UNL     1       2.821  -4.556  -0.545  0.00  0.00    -0.270 OA
ENDROOT
BRANCH   2   4
ATOM      4  C   UNL     1       3.067  -4.931  -2.833  0.00  0.00    +0.045 C 
ATOM      5  C   UNL     1       4.246  -5.599  -2.723  0.00  0.00    +0.021 C 
BRANCH   5   6
ATOM      6  C   UNL     1       5.117  -5.749  -3.896  0.00  0.00    -0.024 A 
ATOM      7  C   UNL     1       5.168  -4.743  -4.868  0.00  0.00    +0.008 A 
ATOM      8  C   UNL     1       5.989  -4.892  -5.966  0.00  0.00    +0.001 A 
ATOM      9  C   UNL     1       6.761  -6.033  -6.109  0.00  0.00    +0.000 A 
ATOM     10  C   UNL     1       6.716  -7.032  -5.152  0.00  0.00    +0.001 A 
ATOM     11  C   UNL     1       5.905  -6.896  -4.045  0.00  0.00    +0.008 A 
ENDBRANCH   5   6
BRANCH   4  12
ATOM     12  C   UNL     1       2.579  -4.503  -4.164  0.00  0.00    -0.013 A 
ATOM     13  C   UNL     1       2.302  -3.158  -4.409  0.00  0.00    +0.008 A 
ATOM     14  C   UNL     1       1.848  -2.765  -5.652  0.00  0.00    +0.001 A 
ATOM     15  C   UNL     1       1.668  -3.703  -6.653  0.00  0.00    +0.000 A 
ATOM     16  C   UNL     1       1.941  -5.038  -6.416  0.00  0.00    +0.001 A 
ATOM     17  C   UNL     1       2.401  -5.442  -5.180  0.00  0.00    +0.008 A 
ENDBRANCH   4  12
ENDBRANCH   2   4
BRANCH   1  18
ATOM     18  C   UNL     1       0.168  -4.066  -0.544  0.00  0.00    +0.193 C 
BRANCH  18  23
ATOM     19  C   UNL     1      -0.455  -8.655   2.913  0.00  0.00    +0.044 C 
ATOM     20  C   UNL     1      -0.292  -7.458   2.012  0.00  0.00    -0.050 A 
ATOM     21  C   UNL     1       0.749  -7.413   1.104  0.00  0.00    +0.004 A 
ATOM     22  C   UNL     1       0.898  -6.315   0.277  0.00  0.00    +0.006 A 
ATOM     23  C   UNL     1       0.005  -5.263   0.357  0.00  0.00    -0.015 A 
ATOM     24  C   UNL     1      -1.037  -5.309   1.264  0.00  0.00    -0.045 A 
ATOM     25  C   UNL     1      -1.188  -6.408   2.088  0.00  0.00    +0.007 A 
ATOM     26  C   UNL     1      -2.010  -4.162   1.352  0.00  0.00    +0.044 C 
ENDBRANCH  18  23
BRANCH  18  27
ATOM     27  C   UNL     1       0.890  -2.972   0.200  0.00  0.00    +0.239 C 
ATOM     28  O   UNL     1       1.836  -2.413  -0.314  0.00  0.00    -0.273 OA
ATOM     29  N   UNL     1       0.485  -2.616   1.435  0.00  0.00    -0.309 N 
ATOM     30  H   UNL     1      -0.216  -3.118   1.879  0.00  0.00    +0.149 HD
BRANCH  29  31
ATOM     31  C   UNL     1       1.104  -1.470   2.106  0.00  0.00    +0.026 C 
ATOM     32  C   UNL     1       0.886  -0.209   1.268  0.00  0.00    +0.031 C 
ATOM     33  C   UNL     1       0.467  -1.282   3.485  0.00  0.00    +0.031 C 
ATOM     34  C   UNL     1       2.604  -1.723   2.268  0.00  0.00    +0.031 C 
ENDBRANCH  29  31
ENDBRANCH  18  27
ENDBRANCH   1  18
BRANCH   1  35
ATOM     35  C   UNL     1       0.272  -4.626  -3.017  0.00  0.00    +0.183 C 
BRANCH  35  36
ATOM     36  C   UNL     1      -0.974  -5.452  -2.824  0.00  0.00    +0.122 A 
ATOM     37  C   UNL     1      -2.218  -4.971  -2.653  0.00  0.00    +0.046 A 
ATOM     38  C   UNL     1      -3.073  -6.089  -2.512  0.00  0.00    +0.045 A 
ATOM     39  C   UNL     1      -2.300  -7.185  -2.607  0.00  0.00    +0.102 A 
ATOM     40  O   UNL     1      -1.030  -6.794  -2.801  0.00  0.00    -0.463 OA
ATOM     41  C   UNL     1      -2.778  -8.611  -2.515  0.00  0.00    +0.086 C 
ENDBRANCH  35  36
ENDBRANCH   1  35
TORSDOF 9
