REMARK  Name = ZINC36597841
REMARK  11 active torsions:
REMARK  status: ('A' for Active; 'I' for Inactive)
REMARK    1  A    between atoms: C_1  and  C_2
REMARK    2  A    between atoms: C_5  and  C_8
REMARK    3  A    between atoms: C_8  and  C_10
REMARK    4  A    between atoms: C_8  and  N_19
REMARK    5  A    between atoms: N_12  and  C_13
REMARK    6  A    between atoms: N_19  and  C_20
REMARK    7  A    between atoms: C_20  and  C_21
REMARK    8  A    between atoms: C_24  and  C_26
REMARK    9  A    between atoms: C_27  and  C_29
REMARK   10  A    between atoms: C_33  and  O_36
REMARK   11  A    between atoms: C_34  and  O_35
REMARK                            x       y       z     vdW  Elec       q    Type
REMARK                         _______ _______ _______ _____ _____    ______ ____
ROOT
ATOM      1  N   UNL     1       1.478  -3.914  -2.381  0.00  0.00    -0.275 N 
ATOM      2  C   UNL     1       2.160  -2.800  -2.047  0.00  0.00    +0.252 C 
ATOM      3  O   UNL     1       2.248  -1.881  -2.838  0.00  0.00    -0.270 OA
ENDROOT
BRANCH   2   4
ATOM      4  C   UNL     1       2.800  -2.696  -0.722  0.00  0.00    +0.082 A 
ATOM      5  C   UNL     1       3.481  -3.792  -0.183  0.00  0.00    +0.017 A 
ATOM      6  C   UNL     1       4.077  -3.691   1.055  0.00  0.00    +0.005 A 
ATOM      7  C   UNL     1       4.007  -2.508   1.771  0.00  0.00    +0.049 A 
ATOM      8  C   UNL     1       3.336  -1.414   1.251  0.00  0.00    +0.159 A 
ATOM      9  C   UNL     1       2.733  -1.499  -0.000  0.00  0.00    +0.171 A 
BRANCH   9  10
ATOM     10  O   UNL     1       2.079  -0.427  -0.516  0.00  0.00    -0.503 OA
ATOM     11  H   UNL     1       1.141  -0.389  -0.283  0.00  0.00    +0.292 HD
ENDBRANCH   9  10
BRANCH   8  12
ATOM     12  O   UNL     1       3.270  -0.256   1.961  0.00  0.00    -0.503 OA
ATOM     13  H   UNL     1       3.998   0.355   1.784  0.00  0.00    +0.292 HD
ENDBRANCH   8  12
ENDBRANCH   2   4
BRANCH   1  14
ATOM     14  C   UNL     1       1.245  -4.957  -1.380  0.00  0.00    +0.193 C 
BRANCH  14  19
ATOM     15  C   UNL     1       3.765  -9.867  -3.093  0.00  0.00    +0.044 C 
ATOM     16  C   UNL     1       3.108  -8.587  -2.646  0.00  0.00    -0.050 A 
ATOM     17  C   UNL     1       2.466  -8.530  -1.423  0.00  0.00    +0.004 A 
ATOM     18  C   UNL     1       1.864  -7.355  -1.013  0.00  0.00    +0.006 A 
ATOM     19  C   UNL     1       1.903  -6.238  -1.826  0.00  0.00    -0.018 A 
ATOM     20  C   UNL     1       2.545  -6.295  -3.049  0.00  0.00    +0.006 A 
ATOM     21  C   UNL     1       3.152  -7.468  -3.457  0.00  0.00    +0.004 A 
ENDBRANCH  14  19
BRANCH  14  22
ATOM     22  C   UNL     1      -0.237  -5.182  -1.224  0.00  0.00    +0.238 C 
ATOM     23  O   UNL     1      -0.997  -4.854  -2.111  0.00  0.00    -0.273 OA
ATOM     24  N   UNL     1      -0.719  -5.747  -0.100  0.00  0.00    -0.311 N 
ATOM     25  H   UNL     1      -0.111  -6.010   0.610  0.00  0.00    +0.149 HD
BRANCH  24  26
ATOM     26  C   UNL     1      -2.159  -5.966   0.052  0.00  0.00    +0.073 C 
ATOM     27  C   UNL     1      -2.815  -4.691   0.587  0.00  0.00    +0.022 C 
ATOM     28  C   UNL     1      -4.320  -4.919   0.745  0.00  0.00    +0.002 C 
ATOM     29  C   UNL     1      -4.561  -6.068   1.726  0.00  0.00    +0.000 C 
ATOM     30  C   UNL     1      -3.905  -7.342   1.191  0.00  0.00    +0.002 C 
ATOM     31  C   UNL     1      -2.401  -7.114   1.033  0.00  0.00    +0.022 C 
ENDBRANCH  24  26
ENDBRANCH  14  22
ENDBRANCH   1  14
BRANCH   1  32
ATOM     32  C   UNL     1       0.970  -4.080  -3.745  0.00  0.00    +0.183 C 
BRANCH  32  33
ATOM     33  C   UNL     1       0.122  -2.890  -4.114  0.00  0.00    +0.122 A 
ATOM     34  C   UNL     1       0.546  -1.795  -4.769  0.00  0.00    +0.046 A 
ATOM     35  C   UNL     1      -0.571  -0.939  -4.902  0.00  0.00    +0.045 A 
ATOM     36  C   UNL     1      -1.611  -1.562  -4.320  0.00  0.00    +0.102 A 
ATOM     37  O   UNL     1      -1.187  -2.747  -3.849  0.00  0.00    -0.463 OA
ATOM     38  C   UNL     1      -3.016  -1.026  -4.218  0.00  0.00    +0.086 C 
ENDBRANCH  32  33
ENDBRANCH   1  32
TORSDOF 9
