REMARK  Name = ZINC48838547
REMARK  5 active torsions:
REMARK  status: ('A' for Active; 'I' for Inactive)
REMARK    1  A    between atoms: C_4  and  C_7
REMARK    2  A    between atoms: C_4  and  C_20
REMARK    3  A    between atoms: C_7  and  C_8
REMARK    4  A    between atoms: N_10  and  C_11
REMARK    5  A    between atoms: C_17  and  N_19
REMARK                            x       y       z     vdW  Elec       q    Type
REMARK                         _______ _______ _______ _____ _____    ______ ____
ROOT
ATOM      1  C   UNL     1       2.890  -1.968  -2.535  0.00  0.00    +0.214 C 
ATOM      2  O   UNL     1       2.382  -2.587  -1.623  0.00  0.00    -0.276 OA
ATOM      3  N   UNL     1       3.473  -2.629  -3.555  0.00  0.00    -0.314 N 
ATOM      4  H   UNL     1       3.880  -2.134  -4.284  0.00  0.00    +0.149 HD
ENDROOT
BRANCH   3   5
ATOM      5  C   UNL     1       3.493  -4.093  -3.563  0.00  0.00    +0.058 C 
ATOM      6  C   UNL     1       4.689  -4.592  -2.749  0.00  0.00    +0.020 C 
ATOM      7  C   UNL     1       5.984  -4.061  -3.369  0.00  0.00    +0.002 C 
ATOM      8  C   UNL     1       6.103  -4.561  -4.809  0.00  0.00    -0.001 C 
ATOM      9  C   UNL     1       4.906  -4.063  -5.623  0.00  0.00    -0.014 C 
ATOM     10  C   UNL     1       3.612  -4.594  -5.004  0.00  0.00    -0.055 C 
BRANCH  10  11
ATOM     11  N   UNL     1       2.463  -4.115  -5.785  0.00  0.00    +0.381 N 
ATOM     12  H   UNL     1       2.450  -3.107  -5.779  0.00  0.00    -0.090 HD
ATOM     13  H   UNL     1       2.542  -4.446  -6.735  0.00  0.00    -0.090 HD
ATOM     14  H   UNL     1       1.610  -4.466  -5.376  0.00  0.00    -0.090 HD
ENDBRANCH  10  11
ENDBRANCH   3   5
BRANCH   1  15
ATOM     15  C   UNL     1       2.870  -0.461  -2.526  0.00  0.00    +0.114 C 
BRANCH  15  19
ATOM     16  C   UNL     1      -0.019   1.526   0.010  0.00  0.00    +0.000 C 
ATOM     17  C   UNL     1       1.417   2.055  -0.000  0.00  0.00    +0.001 C 
ATOM     18  C   UNL     1       2.133   1.562  -1.259  0.00  0.00    +0.019 C 
ATOM     19  C   UNL     1       2.154   0.032  -1.268  0.00  0.00    +0.080 C 
ATOM     20  C   UNL     1       0.718  -0.497  -1.257  0.00  0.00    +0.019 C 
ATOM     21  C   UNL     1       0.002  -0.004   0.002  0.00  0.00    +0.001 C 
BRANCH  19  22
ATOM     22  C   UNL     1       2.882  -0.467  -0.047  0.00  0.00    +0.362 C 
ATOM     23  O   UNL     1       2.579  -1.539   0.448  0.00  0.00    -0.246 OA
ATOM     24  O   UNL     1       3.775   0.201   0.446  0.00  0.00    -0.246 OA
ENDBRANCH  19  22
ENDBRANCH  15  19
ENDBRANCH   1  15
TORSDOF 5
