REMARK  Name = ZINC13305403
REMARK  10 active torsions:
REMARK  status: ('A' for Active; 'I' for Inactive)
REMARK    1  A    between atoms: C_1  and  C_2
REMARK    2  A    between atoms: C_9  and  N_13
REMARK    3  A    between atoms: C_10  and  C_11
REMARK    4  A    between atoms: C_14  and  C_16
REMARK    5  A    between atoms: C_16  and  O_17
REMARK    6  A    between atoms: O_17  and  C_18
REMARK    7  A    between atoms: C_18  and  C_19
REMARK    8  A    between atoms: N_21  and  C_22
REMARK    9  A    between atoms: C_23  and  C_33
REMARK   10  A    between atoms: C_28  and  C_32
REMARK                            x       y       z     vdW  Elec       q    Type
REMARK                         _______ _______ _______ _____ _____    ______ ____
ROOT
ATOM      1  O   UNL     1       2.867  -7.532  -4.843  0.00  0.00    -0.361 OA
ENDROOT
BRANCH   1   2
ATOM      2  C   UNL     1       2.596  -7.510  -3.440  0.00  0.00    +0.256 C 
BRANCH   2   4
ATOM      3  N   UNL     1       1.931  -5.847  -1.734  0.00  0.00    -0.277 N 
ATOM      4  C   UNL     1       2.229  -6.109  -3.022  0.00  0.00    +0.243 C 
ATOM      5  O   UNL     1       2.201  -5.218  -3.844  0.00  0.00    -0.273 OA
ATOM      6  H   UNL     1       1.956  -6.655  -0.988  0.00  0.00    +0.155 HD
BRANCH   3  14
ATOM      7  C   UNL     1      -0.019   1.526   0.010  0.00  0.00    +0.008 C 
ATOM      8  C   UNL     1       0.002  -0.004   0.002  0.00  0.00    -0.009 C 
ATOM      9  C   UNL     1       0.742  -0.514   1.242  0.00  0.00    +0.008 C 
ATOM     10  C   UNL     1       0.556  -2.027   1.373  0.00  0.00    +0.037 C 
ATOM     11  C   UNL     1       0.941  -2.684   0.054  0.00  0.00    -0.018 A 
ATOM     12  C   UNL     1       1.008  -1.965  -1.089  0.00  0.00    -0.004 A 
ATOM     13  S   UNL     1       1.485  -3.134  -2.331  0.00  0.00    -0.077 S 
ATOM     14  C   UNL     1       1.593  -4.557  -1.349  0.00  0.00    +0.090 A 
ATOM     15  C   UNL     1       1.258  -4.095  -0.084  0.00  0.00    +0.084 A 
ATOM     16  C   UNL     1       0.736  -0.502  -1.252  0.00  0.00    +0.046 C 
BRANCH  15  17
ATOM     17  C   UNL     1       1.226  -4.977   1.044  0.00  0.00    +0.102 C 
ATOM     18  N   UNL     1       1.200  -5.676   1.938  0.00  0.00    -0.191 NA
ENDBRANCH  15  17
ENDBRANCH   3  14
ENDBRANCH   2   4
ENDBRANCH   1   2
BRANCH   1  19
ATOM     19  C   UNL     1       3.227  -8.821  -5.345  0.00  0.00    +0.256 C 
BRANCH  19  20
ATOM     20  C   UNL     1       3.488  -8.728  -6.826  0.00  0.00    +0.243 C 
ATOM     21  O   UNL     1       3.377  -7.663  -7.396  0.00  0.00    -0.273 OA
ATOM     22  N   UNL     1       3.846  -9.828  -7.518  0.00  0.00    -0.277 N 
ATOM     23  H   UNL     1       3.947 -10.794  -7.001  0.00  0.00    +0.155 HD
BRANCH  22  24
ATOM     24  C   UNL     1       4.086  -9.743  -8.882  0.00  0.00    +0.090 A 
ATOM     25  C   UNL     1       4.465 -10.752  -9.755  0.00  0.00    +0.084 A 
ATOM     26  C   UNL     1       4.650 -10.398 -11.151  0.00  0.00    -0.018 A 
ATOM     27  C   UNL     1       4.439  -9.096 -11.448  0.00  0.00    -0.004 A 
ATOM     28  S   UNL     1       3.994  -8.348  -9.906  0.00  0.00    -0.077 S 
ATOM     29  C   UNL     1       4.558  -8.445 -12.791  0.00  0.00    +0.046 C 
ATOM     30  C   UNL     1       4.594  -9.546 -13.861  0.00  0.00    -0.009 C 
ATOM     31  C   UNL     1       5.602 -10.617 -13.433  0.00  0.00    +0.008 C 
ATOM     32  C   UNL     1       5.060 -11.392 -12.231  0.00  0.00    +0.037 C 
ATOM     33  C   UNL     1       5.019  -8.944 -15.202  0.00  0.00    +0.008 C 
BRANCH  25  34
ATOM     34  C   UNL     1       4.662 -12.094  -9.297  0.00  0.00    +0.102 C 
ATOM     35  N   UNL     1       4.818 -13.159  -8.934  0.00  0.00    -0.191 NA
ENDBRANCH  25  34
ENDBRANCH  22  24
ENDBRANCH  19  20
ENDBRANCH   1  19
TORSDOF 8
