REMARK  Name = ZINC12581702
REMARK  6 active torsions:
REMARK  status: ('A' for Active; 'I' for Inactive)
REMARK    1  A    between atoms: C_1  and  C_2
REMARK    2  A    between atoms: N_10  and  N_14
REMARK    3  A    between atoms: C_15  and  C_17
REMARK    4  A    between atoms: C_17  and  S_18
REMARK    5  A    between atoms: S_18  and  C_19
REMARK    6  A    between atoms: N_23  and  C_24
REMARK                            x       y       z     vdW  Elec       q    Type
REMARK                         _______ _______ _______ _____ _____    ______ ____
ROOT
ATOM      1  N   UNL     1       0.776  -6.725   3.271  0.00  0.00    -0.223 N 
ATOM      2  C   UNL     1       1.519  -5.646   3.589  0.00  0.00    +0.240 C 
ATOM      3  O   UNL     1       2.371  -5.729   4.449  0.00  0.00    -0.273 OA
ATOM      4  H   UNL     1       0.095  -6.659   2.584  0.00  0.00    +0.174 HD
ENDROOT
BRANCH   1  14
ATOM      5  C   UNL     1       1.485 -13.517   7.316  0.00  0.00    +0.007 C 
ATOM      6  C   UNL     1       0.837 -12.192   6.906  0.00  0.00    -0.014 C 
ATOM      7  C   UNL     1       1.810 -11.043   7.179  0.00  0.00    +0.006 C 
ATOM      8  C   UNL     1       1.157  -9.718   6.780  0.00  0.00    +0.035 C 
ATOM      9  C   UNL     1       0.789  -9.754   5.301  0.00  0.00    +0.114 C 
ATOM     10  C   UNL     1      -0.161 -10.910   5.008  0.00  0.00    +0.035 C 
ATOM     11  C   UNL     1       0.498 -12.231   5.414  0.00  0.00    +0.006 C 
ATOM     12  C   UNL     1       0.167  -8.442   4.880  0.00  0.00    +0.263 C 
ATOM     13  O   UNL     1      -0.854  -7.945   5.304  0.00  0.00    -0.271 OA
ATOM     14  N   UNL     1       0.988  -7.941   3.933  0.00  0.00    -0.137 N 
ATOM     15  C   UNL     1       2.026  -8.754   3.701  0.00  0.00    +0.326 C 
ATOM     16  O   UNL     1       2.898  -8.521   2.887  0.00  0.00    -0.251 OA
ATOM     17  N   UNL     1       1.997  -9.857   4.472  0.00  0.00    -0.284 N 
ATOM     18  H   UNL     1       2.644 -10.580   4.477  0.00  0.00    +0.151 HD
ENDBRANCH   1  14
BRANCH   2  19
ATOM     19  C   UNL     1       1.292  -4.338   2.877  0.00  0.00    +0.174 C 
BRANCH  19  20
ATOM     20  S   UNL     1       2.436  -3.093   3.523  0.00  0.00    -0.078 S 
BRANCH  20  21
ATOM     21  C   UNL     1       1.963  -1.706   2.543  0.00  0.00    +0.174 A 
ATOM     22  N   UNL     1       1.022  -1.698   1.625  0.00  0.00    -0.226 NA
ATOM     23  C   UNL     1       0.939  -0.475   1.087  0.00  0.00    +0.064 A 
ATOM     24  C   UNL     1       1.857   0.312   1.683  0.00  0.00    +0.047 A 
ATOM     25  N   UNL     1       2.513  -0.457   2.610  0.00  0.00    -0.291 N 
ATOM     26  C   UNL     1       2.080   1.765   1.351  0.00  0.00    +0.056 C 
ATOM     27  C   UNL     1       1.417   2.060  -0.000  0.00  0.00    +0.007 C 
ATOM     28  C   UNL     1      -0.019   1.529   0.010  0.00  0.00    +0.007 C 
ATOM     29  C   UNL     1       0.002  -0.004   0.002  0.00  0.00    +0.057 C 
BRANCH  25  30
ATOM     30  C   UNL     1       3.547  -0.042   3.461  0.00  0.00    +0.049 A 
ATOM     31  C   UNL     1       3.304   0.918   4.434  0.00  0.00    +0.026 A 
ATOM     32  C   UNL     1       4.323   1.320   5.275  0.00  0.00    +0.002 A 
ATOM     33  C   UNL     1       5.587   0.777   5.140  0.00  0.00    +0.000 A 
ATOM     34  C   UNL     1       5.834  -0.175   4.168  0.00  0.00    +0.002 A 
ATOM     35  C   UNL     1       4.817  -0.586   3.328  0.00  0.00    +0.026 A 
ENDBRANCH  25  30
ENDBRANCH  20  21
ENDBRANCH  19  20
ENDBRANCH   2  19
TORSDOF 5
