REMARK  Name = ZINC39029568
REMARK  8 active torsions:
REMARK  status: ('A' for Active; 'I' for Inactive)
REMARK    1  A    between atoms: C_1  and  C_2
REMARK    2  A    between atoms: C_2  and  C_3
REMARK    3  A    between atoms: C_3  and  C_5
REMARK    4  A    between atoms: C_3  and  N_6
REMARK    5  A    between atoms: C_7  and  O_31
REMARK    6  A    between atoms: C_9  and  C_15
REMARK    7  A    between atoms: C_10  and  O_14
REMARK    8  A    between atoms: N_29  and  C_30
REMARK                            x       y       z     vdW  Elec       q    Type
REMARK                         _______ _______ _______ _____ _____    ______ ____
ROOT
ATOM      1  N   UNL     1      -0.055  -0.114  -2.441  0.00  0.00    -0.253 N 
ATOM      2  C   UNL     1       0.534   0.747  -3.479  0.00  0.00    +0.240 C 
ATOM      3  C   UNL     1      -0.337   1.093  -4.668  0.00  0.00    +0.057 C 
ATOM      4  C   UNL     1      -1.571   0.601  -4.701  0.00  0.00    +0.190 C 
ATOM      5  N   UNL     1      -2.050  -0.205  -3.679  0.00  0.00    -0.240 N 
ATOM      6  C   UNL     1      -1.321  -0.546  -2.607  0.00  0.00    +0.311 C 
ATOM      7  O   UNL     1      -1.817  -1.261  -1.759  0.00  0.00    -0.252 OA
ATOM      8  H   UNL     1      -2.957  -0.542  -3.744  0.00  0.00    +0.159 HD
ENDROOT
BRANCH   3   9
ATOM      9  C   UNL     1       0.179   1.968  -5.781  0.00  0.00    +0.139 C 
ATOM     10  C   UNL     1       1.320   1.274  -6.486  0.00  0.00    +0.042 A 
ATOM     11  H   UNL     1       0.685  -0.697  -6.715  0.00  0.00    +0.166 HD
ATOM     12  C   UNL     1       2.461   1.906  -6.841  0.00  0.00    -0.016 A 
ATOM     13  C   UNL     1       3.310   0.929  -7.484  0.00  0.00    +0.003 A 
ATOM     14  C   UNL     1       4.587   1.002  -8.048  0.00  0.00    +0.010 A 
ATOM     15  C   UNL     1       5.097  -0.154  -8.584  0.00  0.00    +0.001 A 
ATOM     16  C   UNL     1       4.390  -1.345  -8.573  0.00  0.00    +0.002 A 
ATOM     17  C   UNL     1       3.124  -1.447  -8.023  0.00  0.00    +0.026 A 
ATOM     18  C   UNL     1       2.580  -0.289  -7.471  0.00  0.00    +0.047 A 
ATOM     19  N   UNL     1       1.384  -0.041  -6.861  0.00  0.00    -0.356 N 
ATOM     20  C   UNL     1       2.718   3.369  -6.577  0.00  0.00    +0.053 C 
ATOM     21  C   UNL     1       1.376   4.033  -6.241  0.00  0.00    +0.090 C 
ATOM     22  N   UNL     1       0.673   3.237  -5.222  0.00  0.00    -0.293 NA
ATOM     23  C   UNL     1      -0.420   4.005  -4.610  0.00  0.00    +0.105 C 
ENDBRANCH   3   9
BRANCH   1  24
ATOM     24  C   UNL     1       0.718  -0.497  -1.257  0.00  0.00    +0.077 C 
ATOM     25  C   UNL     1       0.849  -2.021  -1.205  0.00  0.00    +0.028 C 
BRANCH  24  27
ATOM     26  C   UNL     1      -0.019   1.526   0.010  0.00  0.00    +0.006 C 
ATOM     27  C   UNL     1       0.002  -0.004   0.002  0.00  0.00    +0.019 C 
ENDBRANCH  24  27
ENDBRANCH   1  24
BRANCH   4  28
ATOM     28  O   UNL     1      -2.378   0.892  -5.752  0.00  0.00    -0.495 OA
ATOM     29  H   UNL     1      -3.257   0.494  -5.696  0.00  0.00    +0.293 HD
ENDBRANCH   4  28
BRANCH   2  30
ATOM     30  O   UNL     1       0.936   1.971  -2.859  0.00  0.00    -0.370 OA
ATOM     31  H   UNL     1       1.590   1.859  -2.156  0.00  0.00    +0.212 HD
ENDBRANCH   2  30
TORSDOF 5
