REMARK  Name = ZINC09298069
REMARK  8 active torsions:
REMARK  status: ('A' for Active; 'I' for Inactive)
REMARK    1  A    between atoms: C_1  and  C_2
REMARK    2  A    between atoms: C_9  and  N_18
REMARK    3  A    between atoms: C_10  and  C_11
REMARK    4  A    between atoms: C_14  and  O_16
REMARK    5  A    between atoms: O_16  and  C_17
REMARK    6  A    between atoms: C_19  and  C_21
REMARK    7  A    between atoms: C_24  and  S_27
REMARK    8  A    between atoms: S_27  and  N_30
REMARK                            x       y       z     vdW  Elec       q    Type
REMARK                         _______ _______ _______ _____ _____    ______ ____
ROOT
ATOM      1  N   UNL     1      -1.071  -0.879   0.007  0.00  0.00    -0.275 N 
ATOM      2  C   UNL     1      -0.856  -2.210  -0.002  0.00  0.00    +0.249 C 
ATOM      3  O   UNL     1       0.281  -2.642  -0.015  0.00  0.00    -0.270 OA
ATOM      4  H   UNL     1      -1.978  -0.535   0.017  0.00  0.00    +0.156 HD
ENDROOT
BRANCH   1  12
ATOM      5  C   UNL     1       5.256   3.718   0.066  0.00  0.00    +0.008 C 
ATOM      6  C   UNL     1       3.855   3.177   0.361  0.00  0.00    -0.009 C 
ATOM      7  C   UNL     1       2.821   3.950  -0.463  0.00  0.00    +0.008 C 
ATOM      8  C   UNL     1       1.410   3.590   0.006  0.00  0.00    +0.037 C 
ATOM      9  C   UNL     1       1.263   2.073   0.001  0.00  0.00    -0.023 A 
ATOM     10  C   UNL     1       2.349   1.270  -0.013  0.00  0.00    -0.004 A 
ATOM     11  S   UNL     1       1.694  -0.376  -0.016  0.00  0.00    -0.077 S 
ATOM     12  C   UNL     1       0.002  -0.004   0.002  0.00  0.00    +0.085 A 
ATOM     13  C   UNL     1      -0.017   1.385   0.010  0.00  0.00    +0.069 A 
ATOM     14  C   UNL     1       3.785   1.692  -0.024  0.00  0.00    +0.046 C 
BRANCH  13  15
ATOM     15  C   UNL     1      -1.279   2.128   0.020  0.00  0.00    +0.255 C 
ATOM     16  O   UNL     1      -1.798   2.431   1.078  0.00  0.00    -0.270 OA
ATOM     17  N   UNL     1      -1.866   2.475  -1.143  0.00  0.00    -0.217 N 
ATOM     18  C   UNL     1      -3.027   3.159  -1.133  0.00  0.00    +0.407 C 
ATOM     19  O   UNL     1      -3.546   3.462  -0.077  0.00  0.00    -0.226 OA
ATOM     20  H   UNL     1      -1.452   2.234  -1.986  0.00  0.00    +0.161 HD
BRANCH  18  21
ATOM     21  O   UNL     1      -3.613   3.506  -2.295  0.00  0.00    -0.453 OA
ATOM     22  C   UNL     1      -4.862   4.241  -2.209  0.00  0.00    +0.282 C 
ENDBRANCH  18  21
ENDBRANCH  13  15
ENDBRANCH   1  12
BRANCH   2  23
ATOM     23  C   UNL     1      -2.001  -3.144   0.003  0.00  0.00    +0.037 A 
ATOM     24  C   UNL     1      -3.307  -2.651   0.024  0.00  0.00    +0.015 A 
ATOM     25  C   UNL     1      -4.372  -3.529   0.024  0.00  0.00    +0.029 A 
ATOM     26  C   UNL     1      -4.147  -4.894   0.014  0.00  0.00    +0.106 A 
ATOM     27  C   UNL     1      -2.855  -5.389  -0.001  0.00  0.00    +0.029 A 
ATOM     28  C   UNL     1      -1.782  -4.522  -0.006  0.00  0.00    +0.015 A 
BRANCH  26  29
ATOM     29  S   UNL     1      -5.513  -6.008   0.020  0.00  0.00    +0.061 S 
ATOM     30  O   UNL     1      -6.619  -5.296  -0.517  0.00  0.00    -0.153 OA
ATOM     31  O   UNL     1      -5.045  -7.226  -0.542  0.00  0.00    -0.153 OA
BRANCH  29  32
ATOM     32  N   UNL     1      -5.878  -6.326   1.604  0.00  0.00    -0.177 NA
ATOM     33  C   UNL     1      -5.248  -7.453   2.305  0.00  0.00    +0.109 C 
ATOM     34  C   UNL     1      -4.605  -6.926   3.597  0.00  0.00    +0.017 C 
ATOM     35  C   UNL     1      -5.660  -6.184   4.420  0.00  0.00    +0.003 C 
ATOM     36  C   UNL     1      -6.184  -4.988   3.622  0.00  0.00    +0.017 C 
ATOM     37  C   UNL     1      -6.842  -5.490   2.332  0.00  0.00    +0.109 C 
ENDBRANCH  29  32
ENDBRANCH  26  29
ENDBRANCH   2  23
TORSDOF 6
