REMARK  Name = ZINC38845274
REMARK  10 active torsions:
REMARK  status: ('A' for Active; 'I' for Inactive)
REMARK    1  A    between atoms: C_1  and  C_2
REMARK    2  A    between atoms: C_2  and  N_3
REMARK    3  A    between atoms: N_3  and  C_4
REMARK    4  A    between atoms: N_3  and  C_6
REMARK    5  A    between atoms: C_4  and  C_5
REMARK    6  A    between atoms: C_6  and  C_7
REMARK    7  A    between atoms: C_7  and  N_8
REMARK    8  A    between atoms: C_17  and  S_18
REMARK    9  A    between atoms: S_18  and  C_21
REMARK   10  A    between atoms: C_22  and  C_24
REMARK                            x       y       z     vdW  Elec       q    Type
REMARK                         _______ _______ _______ _____ _____    ______ ____
ROOT
ATOM      1  N   UNL     1       1.918  -3.515   1.760  0.00  0.00    -0.248 N 
ATOM      2  C   UNL     1       2.985  -3.759   0.912  0.00  0.00    +0.168 A 
ATOM      3  N   UNL     1       3.380  -4.899   0.394  0.00  0.00    -0.222 NA
ATOM      4  C   UNL     1       4.449  -4.991  -0.426  0.00  0.00    +0.105 A 
ATOM      5  C   UNL     1       5.121  -3.776  -0.695  0.00  0.00    +0.043 A 
ATOM      6  S   UNL     1       4.169  -2.603   0.239  0.00  0.00    -0.052 S 
ATOM      7  C   UNL     1       6.224  -3.704  -1.508  0.00  0.00    +0.017 A 
ATOM      8  C   UNL     1       6.713  -4.855  -2.099  0.00  0.00    +0.003 A 
ATOM      9  C   UNL     1       6.079  -6.065  -1.858  0.00  0.00    +0.029 A 
ATOM     10  C   UNL     1       4.976  -6.146  -1.047  0.00  0.00    +0.114 A 
ATOM     11  C   UNL     1       1.130  -4.532   2.162  0.00  0.00    +0.260 C 
ATOM     12  O   UNL     1       1.414  -5.677   1.862  0.00  0.00    -0.269 OA
ENDROOT
BRANCH  11  13
ATOM     13  C   UNL     1      -0.071  -4.259   2.960  0.00  0.00    +0.094 A 
ATOM     14  C   UNL     1      -0.910  -5.146   3.561  0.00  0.00    +0.068 A 
ATOM     15  C   UNL     1      -2.019  -4.678   4.290  0.00  0.00    +0.008 A 
ATOM     16  C   UNL     1      -2.999  -5.437   4.981  0.00  0.00    +0.010 A 
ATOM     17  C   UNL     1      -4.015  -4.823   5.641  0.00  0.00    +0.001 A 
ATOM     18  C   UNL     1      -4.136  -3.439   5.666  0.00  0.00    +0.001 A 
ATOM     19  C   UNL     1      -3.204  -2.663   5.008  0.00  0.00    +0.016 A 
ATOM     20  C   UNL     1      -2.167  -3.272   4.334  0.00  0.00    +0.021 A 
ATOM     21  S   UNL     1      -0.786  -2.681   3.388  0.00  0.00    -0.082 S 
ATOM     22 CL   UNL     1      -0.612  -6.851   3.429  0.00  0.00    -0.082 Cl
ENDBRANCH  11  13
BRANCH  10  23
ATOM     23  S   UNL     1       4.209  -7.709  -0.774  0.00  0.00    -0.004 S 
ATOM     24  O   UNL     1       2.833  -7.490  -1.048  0.00  0.00    -0.170 OA
ATOM     25  O   UNL     1       4.967  -8.626  -1.552  0.00  0.00    -0.170 OA
ATOM     26  C   UNL     1       4.449  -8.043   0.993  0.00  0.00    +0.200 C 
ENDBRANCH  10  23
BRANCH   1  27
ATOM     27  C   UNL     1       1.646  -2.151   2.221  0.00  0.00    +0.097 C 
BRANCH  27  28
ATOM     28  C   UNL     1       0.663  -1.476   1.263  0.00  0.00    -0.059 C 
BRANCH  28  29
ATOM     29  N   UNL     1       0.289  -0.158   1.793  0.00  0.00    +0.380 N 
ATOM     30  H   UNL     1      -0.075  -0.262   2.728  0.00  0.00    -0.082 HD
BRANCH  29  32
ATOM     31  C   UNL     1       1.114   2.040   2.489  0.00  0.00    -0.017 C 
ATOM     32  C   UNL     1       1.473   0.711   1.823  0.00  0.00    -0.082 C 
ENDBRANCH  29  32
BRANCH  29  33
ATOM     33  C   UNL     1      -0.738   0.443   0.932  0.00  0.00    -0.082 C 
ATOM     34  C   UNL     1      -2.022  -0.383   1.017  0.00  0.00    -0.017 C 
ENDBRANCH  29  33
ENDBRANCH  28  29
ENDBRANCH  27  28
ENDBRANCH   1  27
TORSDOF 7
