REMARK  Name = ZINC23250376
REMARK  6 active torsions:
REMARK  status: ('A' for Active; 'I' for Inactive)
REMARK    1  A    between atoms: C_1  and  N_2
REMARK    2  A    between atoms: C_5  and  C_7
REMARK    3  A    between atoms: C_15  and  N_19
REMARK    4  A    between atoms: N_19  and  C_20
REMARK    5  A    between atoms: C_20  and  C_21
REMARK    6  A    between atoms: C_21  and  N_28
REMARK                            x       y       z     vdW  Elec       q    Type
REMARK                         _______ _______ _______ _____ _____    ______ ____
ROOT
ATOM      1  C   UNL     1       0.042   1.647  -0.203  0.00  0.00    +0.172 C 
ATOM      2  N   UNL     1       0.509   0.261  -0.289  0.00  0.00    -0.270 N 
ATOM      3  C   UNL     1       0.387  -0.527  -1.370  0.00  0.00    +0.043 A 
ATOM      4  C   UNL     1       0.935  -1.727  -1.055  0.00  0.00    +0.004 A 
ATOM      5  C   UNL     1       1.391  -1.608   0.269  0.00  0.00    +0.151 A 
ATOM      6  N   UNL     1       1.101  -0.379   0.660  0.00  0.00    -0.166 NA
ATOM      7  C   UNL     1       1.004  -2.905  -1.987  0.00  0.00    +0.023 C 
ATOM      8  C   UNL     1       0.023  -2.664  -3.142  0.00  0.00    -0.067 C 
ATOM      9  C   UNL     1       0.247  -1.263  -3.719  0.00  0.00    -0.009 C 
ATOM     10  C   UNL     1      -0.226  -0.209  -2.709  0.00  0.00    +0.054 C 
ENDROOT
BRANCH   5  11
ATOM     11  C   UNL     1       2.066  -2.651   1.066  0.00  0.00    +0.267 C 
ATOM     12  O   UNL     1       2.278  -3.746   0.581  0.00  0.00    -0.268 OA
ATOM     13  N   UNL     1       2.449  -2.390   2.332  0.00  0.00    -0.296 N 
ATOM     14  C   UNL     1       2.251  -1.118   3.042  0.00  0.00    +0.108 C 
ATOM     15  C   UNL     1       2.869  -1.276   4.447  0.00  0.00    +0.020 C 
ATOM     16  C   UNL     1       3.881  -2.436   4.253  0.00  0.00    +0.020 C 
ATOM     17  C   UNL     1       3.129  -3.335   3.236  0.00  0.00    +0.108 C 
ENDBRANCH   5  11
BRANCH   8  18
ATOM     18  N   UNL     1       0.247  -3.666  -4.192  0.00  0.00    +0.382 N 
ATOM     19  H   UNL     1       1.159  -3.526  -4.602  0.00  0.00    -0.085 HD
ATOM     20  H   UNL     1       0.197  -4.591  -3.791  0.00  0.00    -0.085 HD
BRANCH  18  21
ATOM     21  C   UNL     1      -0.783  -3.527  -5.230  0.00  0.00    -0.060 C 
BRANCH  21  22
ATOM     22  C   UNL     1      -0.632  -4.654  -6.253  0.00  0.00    +0.007 C 
ATOM     23  C   UNL     1      -1.043  -4.161  -7.614  0.00  0.00    +0.020 C 
ATOM     24  C   UNL     1      -2.041  -2.990  -7.539  0.00  0.00    +0.002 C 
ATOM     25  C   UNL     1      -3.119  -3.191  -6.457  0.00  0.00    +0.000 C 
ATOM     26  C   UNL     1      -3.640  -4.603  -6.419  0.00  0.00    +0.000 C 
ATOM     27  C   UNL     1      -2.839  -5.392  -5.363  0.00  0.00    +0.002 C 
ATOM     28  C   UNL     1      -1.546  -5.834  -5.864  0.00  0.00    +0.020 C 
BRANCH  22  29
ATOM     29  N   UNL     1       0.766  -5.104  -6.289  0.00  0.00    -0.294 NA
ATOM     30  C   UNL     1       1.654  -4.029  -6.755  0.00  0.00    +0.113 C 
ATOM     31  C   UNL     1       3.103  -4.520  -6.720  0.00  0.00    +0.175 C 
ATOM     32  O   UNL     1       3.220  -5.703  -7.516  0.00  0.00    -0.377 OA
ATOM     33  C   UNL     1       2.370  -6.771  -7.090  0.00  0.00    +0.175 C 
ATOM     34  C   UNL     1       0.913  -6.302  -7.128  0.00  0.00    +0.113 C 
ENDBRANCH  22  29
ENDBRANCH  21  22
ENDBRANCH  18  21
ENDBRANCH   8  18
TORSDOF 5
