REMARK  Name = ZINC16796272
REMARK  13 active torsions:
REMARK  status: ('A' for Active; 'I' for Inactive)
REMARK    1  A    between atoms: C_1  and  C_2
REMARK    2  A    between atoms: C_5  and  N_9
REMARK    3  A    between atoms: C_6  and  C_8
REMARK    4  A    between atoms: C_10  and  C_12
REMARK    5  A    between atoms: C_12  and  C_14
REMARK    6  A    between atoms: C_12  and  S_15
REMARK    7  A    between atoms: S_15  and  C_16
REMARK    8  A    between atoms: N_29  and  C_30
REMARK    9  A    between atoms: C_30  and  C_31
REMARK   10  A    between atoms: C_31  and  C_32
REMARK   11  A    between atoms: C_32  and  N_68
REMARK   12  A    between atoms: C_33  and  N_68
REMARK   13  A    between atoms: C_34  and  N_68
REMARK                            x       y       z     vdW  Elec       q    Type
REMARK                         _______ _______ _______ _____ _____    ______ ____
ROOT
ATOM      1  C   UNL     1       3.900   2.126  -0.792  0.00  0.00    +0.173 A 
ATOM      2  N   UNL     1       3.704   3.345  -0.333  0.00  0.00    -0.216 NA
ATOM      3  C   UNL     1       4.681   4.243  -0.348  0.00  0.00    +0.117 A 
ATOM      4  C   UNL     1       5.961   3.947  -0.847  0.00  0.00    +0.076 A 
ATOM      5  C   UNL     1       6.935   5.039  -0.798  0.00  0.00    -0.023 A 
ATOM      6  C   UNL     1       6.514   6.212  -0.284  0.00  0.00    -0.004 A 
ATOM      7  S   UNL     1       4.820   5.939   0.160  0.00  0.00    -0.073 S 
ATOM      8  C   UNL     1       7.311   7.471  -0.126  0.00  0.00    +0.043 C 
ATOM      9  C   UNL     1       8.798   7.129  -0.295  0.00  0.00    +0.005 C 
ATOM     10  C   UNL     1       8.963   6.263  -1.547  0.00  0.00    +0.005 C 
ATOM     11  C   UNL     1       8.367   4.876  -1.302  0.00  0.00    +0.037 C 
ATOM     12  C   UNL     1       6.145   2.615  -1.338  0.00  0.00    +0.263 A 
ATOM     13  O   UNL     1       7.223   2.267  -1.790  0.00  0.00    -0.267 OA
ATOM     14  N   UNL     1       5.114   1.752  -1.290  0.00  0.00    -0.287 N 
ENDROOT
BRANCH   1  15
ATOM     15  S   UNL     1       2.579   0.961  -0.756  0.00  0.00    -0.075 S 
BRANCH  15  16
ATOM     16  C   UNL     1       1.280   1.980  -0.015  0.00  0.00    +0.137 C 
ATOM     17  C   UNL     1       1.676   2.350   1.416  0.00  0.00    +0.029 C 
BRANCH  16  19
ATOM     18  N   UNL     1      -1.191   1.867   0.018  0.00  0.00    -0.284 N 
ATOM     19  C   UNL     1      -0.014   1.209   0.005  0.00  0.00    +0.230 C 
ATOM     20  O   UNL     1       0.003  -0.004   0.005  0.00  0.00    -0.274 OA
ATOM     21  H   UNL     1      -1.205   2.833   0.099  0.00  0.00    +0.155 HD
BRANCH  18  26
ATOM     22  C   UNL     1      -6.057  -1.018  -0.402  0.00  0.00    +0.044 C 
ATOM     23  C   UNL     1      -4.765  -0.252  -0.291  0.00  0.00    -0.050 A 
ATOM     24  C   UNL     1      -3.597  -0.791  -0.800  0.00  0.00    +0.005 A 
ATOM     25  C   UNL     1      -2.411  -0.091  -0.699  0.00  0.00    +0.024 A 
ATOM     26  C   UNL     1      -2.391   1.155  -0.086  0.00  0.00    +0.036 A 
ATOM     27  C   UNL     1      -3.564   1.691   0.428  0.00  0.00    -0.029 A 
ATOM     28  C   UNL     1      -4.748   0.989   0.320  0.00  0.00    +0.008 A 
ATOM     29  C   UNL     1      -3.546   3.040   1.100  0.00  0.00    +0.045 C 
ENDBRANCH  18  26
ENDBRANCH  16  19
ENDBRANCH  15  16
ENDBRANCH   1  15
BRANCH  14  30
ATOM     30  C   UNL     1       5.298   0.386  -1.786  0.00  0.00    +0.125 C 
BRANCH  30  31
ATOM     31  C   UNL     1       4.952   0.333  -3.275  0.00  0.00    +0.003 C 
BRANCH  31  32
ATOM     32  C   UNL     1       5.143  -1.093  -3.793  0.00  0.00    -0.078 C 
BRANCH  32  35
ATOM     33  C   UNL     1       5.206  -2.431  -5.811  0.00  0.00    -0.097 C 
ATOM     34  C   UNL     1       3.382  -0.881  -5.442  0.00  0.00    -0.097 C 
ATOM     35  N   UNL     1       4.826  -1.123  -5.237  0.00  0.00    +0.376 N 
ATOM     36  H   UNL     1       5.359  -0.384  -5.710  0.00  0.00    -0.083 HD
ENDBRANCH  32  35
ENDBRANCH  31  32
ENDBRANCH  30  31
ENDBRANCH  14  30
TORSDOF 8
