REMARK  Name = ZINC40003869
REMARK  18 active torsions:
REMARK  status: ('A' for Active; 'I' for Inactive)
REMARK    1  A    between atoms: C_1  and  C_2
REMARK    2  A    between atoms: C_2  and  N_3
REMARK    3  A    between atoms: N_3  and  C_4
REMARK    4  A    between atoms: N_3  and  C_6
REMARK    5  A    between atoms: C_4  and  C_5
REMARK    6  A    between atoms: C_6  and  C_7
REMARK    7  A    between atoms: C_7  and  N_8
REMARK    8  A    between atoms: C_9  and  C_29
REMARK    9  A    between atoms: C_11  and  C_16
REMARK   10  A    between atoms: C_16  and  C_18
REMARK   11  A    between atoms: C_19  and  C_28
REMARK   12  A    between atoms: C_26  and  C_27
REMARK   13  A    between atoms: C_32  and  O_38
REMARK   14  A    between atoms: C_33  and  O_35
REMARK   15  A    between atoms: O_35  and  C_36
REMARK   16  A    between atoms: C_36  and  C_37
REMARK   17  A    between atoms: O_38  and  C_39
REMARK   18  A    between atoms: C_39  and  C_40
REMARK                            x       y       z     vdW  Elec       q    Type
REMARK                         _______ _______ _______ _____ _____    ______ ____
ROOT
ATOM      1  N   UNL     1      -3.072  -4.221   1.062  0.00  0.00    -0.285 N 
ATOM      2  C   UNL     1      -2.663  -5.000  -0.113  0.00  0.00    +0.145 C 
ATOM      3  C   UNL     1      -2.720  -6.451   0.305  0.00  0.00    +0.078 C 
ATOM      4  C   UNL     1      -3.126  -6.470   1.595  0.00  0.00    +0.249 C 
ATOM      5  C   UNL     1      -3.337  -5.086   2.059  0.00  0.00    +0.288 C 
ATOM      6  O   UNL     1      -3.699  -4.772   3.176  0.00  0.00    -0.266 OA
ATOM      7  O   UNL     1      -3.305  -7.584   2.344  0.00  0.00    -0.282 OA
ENDROOT
BRANCH   2   8
ATOM      8  C   UNL     1      -3.611  -4.751  -1.257  0.00  0.00    -0.019 A 
ATOM      9  C   UNL     1      -4.964  -4.606  -1.012  0.00  0.00    +0.009 A 
ATOM     10  C   UNL     1      -5.839  -4.377  -2.058  0.00  0.00    +0.050 A 
ATOM     11  C   UNL     1      -5.359  -4.292  -3.355  0.00  0.00    +0.162 A 
ATOM     12  C   UNL     1      -3.998  -4.437  -3.602  0.00  0.00    +0.162 A 
ATOM     13  C   UNL     1      -3.126  -4.662  -2.548  0.00  0.00    +0.055 A 
BRANCH  12  14
ATOM     14  O   UNL     1      -3.523  -4.354  -4.873  0.00  0.00    -0.489 OA
BRANCH  14  15
ATOM     15  C   UNL     1      -2.131  -4.617  -5.064  0.00  0.00    +0.226 C 
ATOM     16  C   UNL     1      -1.764  -4.381  -6.531  0.00  0.00    +0.048 C 
ENDBRANCH  14  15
ENDBRANCH  12  14
BRANCH  11  17
ATOM     17  O   UNL     1      -6.218  -4.067  -4.385  0.00  0.00    -0.489 OA
BRANCH  17  18
ATOM     18  C   UNL     1      -7.602  -3.929  -4.058  0.00  0.00    +0.226 C 
ATOM     19  C   UNL     1      -8.407  -3.683  -5.336  0.00  0.00    +0.048 C 
ENDBRANCH  17  18
ENDBRANCH  11  17
ENDBRANCH   2   8
BRANCH   3  20
ATOM     20  C   UNL     1      -2.399  -7.616  -0.529  0.00  0.00    +0.213 C 
ATOM     21  O   UNL     1      -3.212  -8.029  -1.339  0.00  0.00    -0.285 OA
BRANCH  20  22
ATOM     22  C   UNL     1      -1.144  -8.260  -0.393  0.00  0.00    +0.116 A 
ATOM     23  C   UNL     1      -0.081  -7.853   0.403  0.00  0.00    +0.068 A 
ATOM     24  N   UNL     1       0.904  -8.721   0.252  0.00  0.00    -0.232 NA
ATOM     25  C   UNL     1       0.538  -9.676  -0.603  0.00  0.00    +0.141 A 
ATOM     26  N   UNL     1      -0.738  -9.423  -1.021  0.00  0.00    -0.296 N 
ATOM     27  C   UNL     1      -1.357 -10.255  -1.900  0.00  0.00    +0.093 A 
ATOM     28  C   UNL     1      -0.723 -11.352  -2.375  0.00  0.00    +0.018 A 
ATOM     29  C   UNL     1       0.584 -11.642  -1.963  0.00  0.00    +0.008 A 
ATOM     30  C   UNL     1       1.215 -10.808  -1.088  0.00  0.00    -0.008 A 
ATOM     31  C   UNL     1       2.621 -11.106  -0.633  0.00  0.00    +0.047 C 
ATOM     32  C   UNL     1      -0.055  -6.631   1.285  0.00  0.00    +0.068 C 
ENDBRANCH  20  22
ENDBRANCH   3  20
BRANCH   1  33
ATOM     33  C   UNL     1      -3.170  -2.761   1.138  0.00  0.00    +0.090 C 
BRANCH  33  34
ATOM     34  C   UNL     1      -1.828  -2.183   1.590  0.00  0.00    -0.060 C 
BRANCH  34  35
ATOM     35  N   UNL     1      -1.890  -0.716   1.555  0.00  0.00    +0.380 N 
ATOM     36  H   UNL     1      -2.194  -0.414   0.642  0.00  0.00    -0.082 HD
BRANCH  35  38
ATOM     37  C   UNL     1      -2.999   1.275   2.450  0.00  0.00    -0.017 C 
ATOM     38  C   UNL     1      -2.841  -0.242   2.570  0.00  0.00    -0.082 C 
ENDBRANCH  35  38
BRANCH  35  39
ATOM     39  C   UNL     1      -0.558  -0.163   1.836  0.00  0.00    -0.082 C 
ATOM     40  C   UNL     1       0.400  -0.541   0.704  0.00  0.00    -0.017 C 
ENDBRANCH  35  39
ENDBRANCH  34  35
ENDBRANCH  33  34
ENDBRANCH   1  33
TORSDOF 12
