REMARK  Name = ZINC64792357
REMARK  8 active torsions:
REMARK  status: ('A' for Active; 'I' for Inactive)
REMARK    1  A    between atoms: C_1  and  C_2
REMARK    2  A    between atoms: C_2  and  N_3
REMARK    3  A    between atoms: C_7  and  C_30
REMARK    4  A    between atoms: C_13  and  C_16
REMARK    5  A    between atoms: C_14  and  C_15
REMARK    6  A    between atoms: C_16  and  C_17
REMARK    7  A    between atoms: C_17  and  C_18
REMARK    8  A    between atoms: N_20  and  C_21
REMARK                            x       y       z     vdW  Elec       q    Type
REMARK                         _______ _______ _______ _____ _____    ______ ____
ROOT
ATOM      1  N   UNL     1       0.725  -0.612   1.202  0.00  0.00    -0.302 N 
ATOM      2  C   UNL     1       2.159  -0.936   1.243  0.00  0.00    +0.254 C 
ATOM      3  N   UNL     1       2.855  -0.312   0.098  0.00  0.00    -0.262 NA
ATOM      4  C   UNL     1       3.821   0.635   0.712  0.00  0.00    +0.173 C 
ATOM      5  N   UNL     1       3.973   0.139   2.108  0.00  0.00    -0.213 NA
ATOM      6  N   UNL     1       2.706  -0.286   2.455  0.00  0.00    -0.197 N 
ATOM      7  C   UNL     1       2.012  -0.129   3.594  0.00  0.00    +0.260 C 
ATOM      8  O   UNL     1       2.554   0.243   4.619  0.00  0.00    -0.269 OA
ATOM      9  C   UNL     1       0.620  -0.414   3.557  0.00  0.00    +0.033 C 
ATOM     10  C   UNL     1       0.017  -0.654   2.377  0.00  0.00    +0.014 C 
ATOM     11  C   UNL     1      -1.455  -0.979   2.349  0.00  0.00    +0.061 C 
ATOM     12  H   UNL     1       3.333  -1.006  -0.457  0.00  0.00    +0.127 HD
ATOM     13  H   UNL     1       4.290   0.875   2.720  0.00  0.00    +0.147 HD
ENDROOT
BRANCH   4  14
ATOM     14  C   UNL     1       5.140   0.589  -0.015  0.00  0.00    -0.015 A 
ATOM     15  C   UNL     1       5.177   0.288  -1.363  0.00  0.00    +0.006 A 
ATOM     16  C   UNL     1       6.387   0.246  -2.030  0.00  0.00    +0.000 A 
ATOM     17  C   UNL     1       7.561   0.506  -1.348  0.00  0.00    +0.000 A 
ATOM     18  C   UNL     1       7.525   0.808   0.001  0.00  0.00    +0.000 A 
ATOM     19  C   UNL     1       6.314   0.854   0.666  0.00  0.00    +0.006 A 
ENDBRANCH   4  14
BRANCH   1  21
ATOM     20  C   UNL     1       0.158   1.268  -0.256  0.00  0.00    +0.024 C 
ATOM     21  C   UNL     1       0.072  -0.247  -0.057  0.00  0.00    +0.104 C 
ENDBRANCH   1  21
BRANCH   9  22
ATOM     22  C   UNL     1      -0.179  -0.443   4.835  0.00  0.00    +0.051 C 
BRANCH  22  23
ATOM     23  C   UNL     1      -0.077  -1.831   5.470  0.00  0.00    +0.101 C 
BRANCH  23  24
ATOM     24  C   UNL     1      -0.877  -1.859   6.747  0.00  0.00    +0.216 C 
ATOM     25  O   UNL     1      -1.469  -0.866   7.113  0.00  0.00    -0.276 OA
ATOM     26  N   UNL     1      -0.932  -2.987   7.482  0.00  0.00    -0.278 N 
ATOM     27  H   UNL     1      -0.458  -3.781   7.189  0.00  0.00    +0.152 HD
BRANCH  26  28
ATOM     28  C   UNL     1      -1.710  -3.014   8.724  0.00  0.00    +0.269 C 
ATOM     29  N   UNL     1      -0.961  -2.355   9.801  0.00  0.00    -0.348 N 
ATOM     30  C   UNL     1      -0.762  -3.238  10.736  0.00  0.00    +0.061 A 
ATOM     31  C   UNL     1      -0.086  -3.179  12.039  0.00  0.00    +0.027 A 
ATOM     32  C   UNL     1      -0.036  -4.282  12.814  0.00  0.00    +0.002 A 
ATOM     33  C   UNL     1      -0.610  -5.506  12.427  0.00  0.00    +0.002 A 
ATOM     34  C   UNL     1      -1.252  -5.669  11.254  0.00  0.00    +0.027 A 
ATOM     35  C   UNL     1      -1.370  -4.534  10.328  0.00  0.00    +0.061 A 
ATOM     36  N   UNL     1      -1.921  -4.402   9.156  0.00  0.00    -0.348 N 
ATOM     37  H   UNL     1      -0.668  -1.430   9.814  0.00  0.00    +0.163 HD
ATOM     38  H   UNL     1      -2.386  -5.093   8.659  0.00  0.00    +0.163 HD
ENDBRANCH  26  28
ENDBRANCH  23  24
ENDBRANCH  22  23
ENDBRANCH   9  22
TORSDOF 6
