REMARK  Name = ZINC26753476
REMARK  8 active torsions:
REMARK  status: ('A' for Active; 'I' for Inactive)
REMARK    1  A    between atoms: C_1  and  N_2
REMARK    2  A    between atoms: N_2  and  O_3
REMARK    3  A    between atoms: N_2  and  S_5
REMARK    4  A    between atoms: O_3  and  C_4
REMARK    5  A    between atoms: S_5  and  C_8
REMARK    6  A    between atoms: C_12  and  C_14
REMARK    7  A    between atoms: N_16  and  N_17
REMARK    8  A    between atoms: C_18  and  C_20
REMARK                            x       y       z     vdW  Elec       q    Type
REMARK                         _______ _______ _______ _____ _____    ______ ____
ROOT
ATOM      1  C   UNL     1       4.197  -3.911  -1.247  0.00  0.00    +0.260 C 
ATOM      2  O   UNL     1       3.547  -4.701  -0.591  0.00  0.00    -0.269 OA
ATOM      3  N   UNL     1       5.481  -4.184  -1.553  0.00  0.00    -0.230 N 
ATOM      4  H   UNL     1       6.069  -3.469  -2.148  0.00  0.00    +0.173 HD
ENDROOT
BRANCH   1   9
ATOM      5  C   UNL     1       1.678  -1.187  -1.832  0.00  0.00    +0.108 A 
ATOM      6  C   UNL     1       2.418  -0.292  -2.585  0.00  0.00    +0.028 A 
ATOM      7  C   UNL     1       3.738  -0.567  -2.896  0.00  0.00    +0.003 A 
ATOM      8  C   UNL     1       4.321  -1.742  -2.466  0.00  0.00    +0.013 A 
ATOM      9  C   UNL     1       3.578  -2.650  -1.711  0.00  0.00    +0.040 A 
ATOM     10  C   UNL     1       2.249  -2.364  -1.396  0.00  0.00    +0.041 A 
BRANCH   5  11
ATOM     11  S   UNL     1      -0.000  -0.824  -1.437  0.00  0.00    +0.082 S 
ATOM     12  O   UNL     1      -0.638  -2.070  -1.193  0.00  0.00    -0.151 OA
ATOM     13  O   UNL     1      -0.462   0.088  -2.423  0.00  0.00    -0.151 OA
BRANCH  11  15
ATOM     14  C   UNL     1      -0.018   1.461   0.010  0.00  0.00    +0.166 C 
ATOM     15  N   UNL     1       0.002  -0.004   0.002  0.00  0.00    -0.058 NA
BRANCH  15  16
ATOM     16  O   UNL     1       0.023  -0.719   1.224  0.00  0.00    -0.280 OA
ATOM     17  C   UNL     1      -1.273  -1.030   1.738  0.00  0.00    +0.223 C 
ENDBRANCH  15  16
ENDBRANCH  11  15
ENDBRANCH   5  11
ENDBRANCH   1   9
BRANCH   3  18
ATOM     18  N   UNL     1       6.066  -5.378  -1.114  0.00  0.00    -0.230 N 
ATOM     19  C   UNL     1       7.350  -5.651  -1.419  0.00  0.00    +0.267 C 
ATOM     20  O   UNL     1       8.001  -4.860  -2.077  0.00  0.00    -0.268 OA
ATOM     21  H   UNL     1       5.479  -6.093  -0.519  0.00  0.00    +0.173 HD
BRANCH  19  22
ATOM     22  C   UNL     1       7.963  -6.901  -0.960  0.00  0.00    +0.076 A 
ATOM     23  C   UNL     1       9.250  -7.368  -1.161  0.00  0.00    +0.024 A 
ATOM     24  C   UNL     1       9.594  -8.596  -0.609  0.00  0.00    -0.036 A 
ATOM     25  C   UNL     1       8.620  -9.252   0.062  0.00  0.00    -0.006 A 
ATOM     26  S   UNL     1       7.248  -8.216   0.014  0.00  0.00    -0.088 S 
ATOM     27  C   UNL     1       8.727 -10.617   0.704  0.00  0.00    +0.043 C 
ATOM     28  C   UNL     1       9.685 -10.483   1.900  0.00  0.00    +0.005 C 
ATOM     29  C   UNL     1      11.119 -10.478   1.425  0.00  0.00    +0.001 C 
ATOM     30  C   UNL     1      11.583  -9.238   0.705  0.00  0.00    +0.005 C 
ATOM     31  C   UNL     1      11.018  -9.154  -0.715  0.00  0.00    +0.036 C 
ENDBRANCH  19  22
ENDBRANCH   3  18
TORSDOF 6
