REMARK  Name = ZINC17641279
REMARK  13 active torsions:
REMARK  status: ('A' for Active; 'I' for Inactive)
REMARK    1  A    between atoms: C_1  and  C_2
REMARK    2  A    between atoms: C_3  and  C_34
REMARK    3  A    between atoms: C_11  and  C_13
REMARK    4  A    between atoms: C_13  and  S_14
REMARK    5  A    between atoms: S_14  and  C_15
REMARK    6  A    between atoms: C_15  and  C_17
REMARK    7  A    between atoms: C_15  and  C_18
REMARK    8  A    between atoms: N_20  and  N_21
REMARK    9  A    between atoms: C_22  and  C_24
REMARK   10  A    between atoms: C_27  and  C_30
REMARK   11  A    between atoms: C_30  and  C_31
REMARK   12  A    between atoms: C_30  and  C_32
REMARK   13  A    between atoms: C_30  and  C_33
REMARK                            x       y       z     vdW  Elec       q    Type
REMARK                         _______ _______ _______ _____ _____    ______ ____
ROOT
ATOM      1  C   UNL     1       3.635  -4.865  -0.058  0.00  0.00    +0.242 C 
ATOM      2  O   UNL     1       4.673  -4.239  -0.065  0.00  0.00    -0.273 OA
ATOM      3  N   UNL     1       2.455  -4.213  -0.043  0.00  0.00    -0.233 N 
ATOM      4  H   UNL     1       1.624  -4.714  -0.038  0.00  0.00    +0.173 HD
ENDROOT
BRANCH   3   5
ATOM      5  N   UNL     1       2.429  -2.812  -0.036  0.00  0.00    -0.230 N 
ATOM      6  C   UNL     1       1.250  -2.160  -0.021  0.00  0.00    +0.260 C 
ATOM      7  O   UNL     1       0.208  -2.788  -0.014  0.00  0.00    -0.269 OA
ATOM      8  H   UNL     1       3.260  -2.312  -0.041  0.00  0.00    +0.173 HD
BRANCH   6   9
ATOM      9  C   UNL     1       1.222  -0.682  -0.013  0.00  0.00    +0.038 A 
ATOM     10  C   UNL     1       0.002  -0.004   0.002  0.00  0.00    +0.013 A 
ATOM     11  C   UNL     1      -0.017   1.375   0.010  0.00  0.00    +0.005 A 
ATOM     12  C   UNL     1       1.170   2.086   0.002  0.00  0.00    -0.042 A 
ATOM     13  C   UNL     1       2.383   1.420  -0.013  0.00  0.00    +0.005 A 
ATOM     14  C   UNL     1       2.416   0.041  -0.021  0.00  0.00    +0.013 A 
BRANCH  12  15
ATOM     15  C   UNL     1       1.142   3.593   0.010  0.00  0.00    -0.013 C 
ATOM     16  C   UNL     1       0.423   4.083   1.268  0.00  0.00    +0.015 C 
ATOM     17  C   UNL     1       2.575   4.130  -0.001  0.00  0.00    +0.015 C 
ATOM     18  C   UNL     1       0.400   4.096  -1.230  0.00  0.00    +0.015 C 
ENDBRANCH  12  15
ENDBRANCH   6   9
ENDBRANCH   3   5
BRANCH   1  19
ATOM     19  C   UNL     1       3.663  -6.372  -0.066  0.00  0.00    +0.131 C 
ATOM     20  C   UNL     1       3.436  -6.894   1.354  0.00  0.00    +0.029 C 
BRANCH  19  21
ATOM     21  S   UNL     1       5.275  -6.943  -0.669  0.00  0.00    -0.141 S 
BRANCH  21  22
ATOM     22  C   UNL     1       5.095  -8.746  -0.762  0.00  0.00    +0.144 C 
BRANCH  22  33
ATOM     23  C   UNL     1      10.372 -12.297  -2.882  0.00  0.00    +0.045 C 
ATOM     24  C   UNL     1      10.041 -10.846  -2.644  0.00  0.00    -0.026 A 
ATOM     25  C   UNL     1      10.958  -9.893  -2.878  0.00  0.00    -0.008 A 
ATOM     26  S   UNL     1      10.105  -8.386  -2.454  0.00  0.00    -0.073 S 
ATOM     27  C   UNL     1       8.543  -9.080  -1.977  0.00  0.00    +0.116 A 
ATOM     28  C   UNL     1       8.729 -10.462  -2.160  0.00  0.00    +0.075 A 
ATOM     29  C   UNL     1       7.600 -11.286  -1.843  0.00  0.00    +0.260 A 
ATOM     30  O   UNL     1       7.662 -12.497  -1.968  0.00  0.00    -0.267 OA
ATOM     31  N   UNL     1       6.471 -10.702  -1.398  0.00  0.00    -0.310 N 
ATOM     32  H   UNL     1       5.705 -11.255  -1.178  0.00  0.00    +0.170 HD
ATOM     33  C   UNL     1       6.382  -9.354  -1.257  0.00  0.00    +0.121 A 
ATOM     34  N   UNL     1       7.393  -8.577  -1.538  0.00  0.00    -0.226 NA
ATOM     35  C   UNL     1      12.370 -10.059  -3.377  0.00  0.00    +0.052 C 
ENDBRANCH  22  33
ENDBRANCH  21  22
ENDBRANCH  19  21
ENDBRANCH   1  19
TORSDOF 7
