REMARK  Name = ZINC02153684
REMARK  5 active torsions:
REMARK  status: ('A' for Active; 'I' for Inactive)
REMARK    1  A    between atoms: C_11  and  C_31
REMARK    2  A    between atoms: N_19  and  C_23
REMARK    3  A    between atoms: C_23  and  C_24
REMARK    4  A    between atoms: C_24  and  C_25
REMARK    5  A    between atoms: C_25  and  N_64
REMARK                            x       y       z     vdW  Elec       q    Type
REMARK                         _______ _______ _______ _____ _____    ______ ____
ROOT
ATOM      1  C   UNL     1       1.098   1.510  -0.242  0.00  0.00    +0.001 A 
ATOM      2  C   UNL     1       1.160   2.894  -0.270  0.00  0.00    +0.002 A 
ATOM      3  C   UNL     1       0.026   3.685  -0.222  0.00  0.00    +0.026 A 
ATOM      4  C   UNL     1      -1.200   3.027  -0.145  0.00  0.00    +0.047 A 
ATOM      5  C   UNL     1      -1.258   1.610  -0.123  0.00  0.00    +0.003 A 
ATOM      6  C   UNL     1      -0.095   0.835  -0.166  0.00  0.00    +0.010 A 
ATOM      7  C   UNL     1      -2.664   1.267  -0.049  0.00  0.00    -0.015 A 
ATOM      8  C   UNL     1      -3.353   2.429  -0.034  0.00  0.00    +0.046 A 
ATOM      9  N   UNL     1      -2.484   3.487  -0.085  0.00  0.00    -0.356 N 
ATOM     10  H   UNL     1      -2.743   4.421  -0.088  0.00  0.00    +0.166 HD
ATOM     11  C   UNL     1      -4.861   2.504   0.045  0.00  0.00    +0.154 C 
ATOM     12  N   UNL     1      -5.385   1.142  -0.191  0.00  0.00    -0.276 N 
ATOM     13  C   UNL     1      -4.735   0.030   0.503  0.00  0.00    +0.167 C 
ATOM     14  C   UNL     1      -3.291  -0.103  -0.001  0.00  0.00    +0.069 C 
ATOM     15  C   UNL     1      -5.459  -1.261   0.297  0.00  0.00    +0.237 C 
ATOM     16  O   UNL     1      -5.064  -2.236   0.899  0.00  0.00    -0.274 OA
ATOM     17  N   UNL     1      -6.511  -1.408  -0.507  0.00  0.00    -0.291 N 
ATOM     18  C   UNL     1      -7.092  -0.327  -1.285  0.00  0.00    +0.203 C 
ATOM     19  C   UNL     1      -6.418   0.980  -1.020  0.00  0.00    +0.234 C 
ATOM     20  O   UNL     1      -6.838   1.960  -1.598  0.00  0.00    -0.274 OA
ENDROOT
BRANCH  11  21
ATOM     21  C   UNL     1      -5.383   3.444  -1.011  0.00  0.00    -0.021 A 
ATOM     22  C   UNL     1      -4.979   3.299  -2.325  0.00  0.00    +0.007 A 
ATOM     23  C   UNL     1      -5.462   4.157  -3.295  0.00  0.00    +0.020 A 
ATOM     24  C   UNL     1      -6.340   5.168  -2.949  0.00  0.00    +0.041 A 
ATOM     25  C   UNL     1      -6.740   5.316  -1.633  0.00  0.00    +0.020 A 
ATOM     26  C   UNL     1      -6.261   4.453  -0.664  0.00  0.00    +0.007 A 
ATOM     27 CL   UNL     1      -6.941   6.251  -4.165  0.00  0.00    -0.084 Cl
ENDBRANCH  11  21
BRANCH  17  28
ATOM     28  C   UNL     1      -7.116  -2.738  -0.614  0.00  0.00    +0.106 C 
BRANCH  28  29
ATOM     29  C   UNL     1      -6.444  -3.515  -1.747  0.00  0.00    +0.000 C 
BRANCH  29  30
ATOM     30  C   UNL     1      -7.077  -4.904  -1.859  0.00  0.00    -0.077 C 
BRANCH  30  36
ATOM     31  C   UNL     1      -6.721  -5.035  -4.251  0.00  0.00    -0.050 C 
ATOM     32  C   UNL     1      -5.982  -5.807  -5.348  0.00  0.00    +0.141 C 
ATOM     33  O   UNL     1      -6.370  -7.183  -5.300  0.00  0.00    -0.383 OA
ATOM     34  C   UNL     1      -6.102  -7.813  -4.045  0.00  0.00    +0.141 C 
ATOM     35  C   UNL     1      -6.842  -7.061  -2.934  0.00  0.00    -0.050 C 
ATOM     36  N   UNL     1      -6.404  -5.650  -2.945  0.00  0.00    +0.383 N 
ATOM     37  H   UNL     1      -5.389  -5.614  -2.795  0.00  0.00    -0.082 HD
ENDBRANCH  30  36
ENDBRANCH  29  30
ENDBRANCH  28  29
ENDBRANCH  17  28
TORSDOF 5
