REMARK  Name = ZINC09851355
REMARK  14 active torsions:
REMARK  status: ('A' for Active; 'I' for Inactive)
REMARK    1  A    between atoms: C_1  and  C_2
REMARK    2  A    between atoms: C_2  and  C_3
REMARK    3  A    between atoms: C_8  and  N_9
REMARK    4  A    between atoms: C_10  and  C_12
REMARK    5  A    between atoms: C_12  and  S_13
REMARK    6  A    between atoms: S_13  and  C_14
REMARK    7  A    between atoms: C_17  and  C_20
REMARK    8  A    between atoms: N_18  and  C_19
REMARK    9  A    between atoms: C_20  and  C_22
REMARK   10  A    between atoms: C_20  and  N_26
REMARK   11  A    between atoms: C_22  and  C_23
REMARK   12  A    between atoms: C_23  and  C_24
REMARK   13  A    between atoms: C_23  and  C_25
REMARK   14  A    between atoms: C_27  and  C_29
REMARK                            x       y       z     vdW  Elec       q    Type
REMARK                         _______ _______ _______ _____ _____    ______ ____
ROOT
ATOM      1  C   UNL     1       3.890   0.273  -1.700  0.00  0.00    +0.192 A 
ATOM      2  N   UNL     1       3.444  -0.683  -0.919  0.00  0.00    -0.122 NA
ATOM      3  N   UNL     1       2.428  -0.265  -0.253  0.00  0.00    -0.132 NA
ATOM      4  C   UNL     1       2.162   0.970  -0.572  0.00  0.00    +0.154 A 
ATOM      5  N   UNL     1       3.086   1.359  -1.502  0.00  0.00    -0.308 N 
ATOM      6  C   UNL     1       3.190   2.667  -2.152  0.00  0.00    +0.152 C 
ENDROOT
BRANCH   1   7
ATOM      7  S   UNL     1       5.267   0.175  -2.795  0.00  0.00    -0.077 S 
BRANCH   7   8
ATOM      8  C   UNL     1       5.789  -1.531  -2.492  0.00  0.00    +0.173 C 
BRANCH   8  10
ATOM      9  N   UNL     1       7.554  -3.071  -3.287  0.00  0.00    -0.285 N 
ATOM     10  C   UNL     1       6.989  -1.848  -3.346  0.00  0.00    +0.227 C 
ATOM     11  O   UNL     1       7.446  -1.004  -4.088  0.00  0.00    -0.275 OA
ATOM     12  H   UNL     1       7.240  -3.719  -2.638  0.00  0.00    +0.155 HD
BRANCH   9  18
ATOM     13  C   UNL     1       9.502  -4.397  -3.817  0.00  0.00    -0.026 A 
ATOM     14  C   UNL     1      10.528  -4.723  -4.682  0.00  0.00    +0.005 A 
ATOM     15  C   UNL     1      10.654  -4.061  -5.889  0.00  0.00    +0.000 A 
ATOM     16  C   UNL     1       9.752  -3.071  -6.235  0.00  0.00    +0.002 A 
ATOM     17  C   UNL     1       8.721  -2.744  -5.377  0.00  0.00    +0.023 A 
ATOM     18  C   UNL     1       8.595  -3.403  -4.161  0.00  0.00    +0.037 A 
BRANCH  13  20
ATOM     19  C   UNL     1       8.378  -6.278  -2.656  0.00  0.00    +0.009 C 
ATOM     20  C   UNL     1       9.365  -5.120  -2.502  0.00  0.00    +0.033 C 
ENDBRANCH  13  20
ENDBRANCH   9  18
ENDBRANCH   8  10
ENDBRANCH   7   8
ENDBRANCH   1   7
BRANCH   4  21
ATOM     21  C   UNL     1       1.046   1.816  -0.014  0.00  0.00    +0.142 C 
BRANCH  21  22
ATOM     22  N   UNL     1      -0.193   1.034   0.011  0.00  0.00    -0.301 N 
ATOM     23  C   UNL     1      -1.385   1.662   0.067  0.00  0.00    +0.246 C 
ATOM     24  O   UNL     1      -1.436   2.875   0.008  0.00  0.00    -0.270 OA
ATOM     25  H   UNL     1      -0.156   0.066  -0.016  0.00  0.00    +0.150 HD
BRANCH  23  26
ATOM     26  C   UNL     1      -2.628   0.876   0.199  0.00  0.00    +0.055 A 
ATOM     27  C   UNL     1      -2.574  -0.518   0.261  0.00  0.00    +0.014 A 
ATOM     28  C   UNL     1      -3.738  -1.246   0.390  0.00  0.00    +0.001 A 
ATOM     29  C   UNL     1      -4.960  -0.599   0.447  0.00  0.00    +0.001 A 
ATOM     30  C   UNL     1      -5.024   0.780   0.380  0.00  0.00    +0.021 A 
ATOM     31  C   UNL     1      -3.865   1.523   0.257  0.00  0.00    +0.053 A 
ATOM     32 CL   UNL     1      -3.946   3.255   0.172  0.00  0.00    -0.083 Cl
ENDBRANCH  23  26
ENDBRANCH  21  22
BRANCH  21  33
ATOM     33  C   UNL     1       1.401   2.256   1.407  0.00  0.00    +0.033 C 
BRANCH  33  34
ATOM     34  C   UNL     1       2.612   3.189   1.365  0.00  0.00    -0.015 C 
ATOM     35  C   UNL     1       2.230   4.488   0.652  0.00  0.00    +0.007 C 
ATOM     36  C   UNL     1       3.063   3.504   2.793  0.00  0.00    +0.007 C 
ENDBRANCH  33  34
ENDBRANCH  21  33
ENDBRANCH   4  21
TORSDOF 10
