REMARK  Name = ZINC14987693
REMARK  10 active torsions:
REMARK  status: ('A' for Active; 'I' for Inactive)
REMARK    1  A    between atoms: C_1  and  O_2
REMARK    2  A    between atoms: O_2  and  C_3
REMARK    3  A    between atoms: C_6  and  C_10
REMARK    4  A    between atoms: C_8  and  O_9
REMARK    5  A    between atoms: C_10  and  N_67
REMARK    6  A    between atoms: C_13  and  C_16
REMARK    7  A    between atoms: C_16  and  C_27
REMARK    8  A    between atoms: N_19  and  C_23
REMARK    9  A    between atoms: C_23  and  C_24
REMARK   10  A    between atoms: C_27  and  C_28
REMARK                            x       y       z     vdW  Elec       q    Type
REMARK                         _______ _______ _______ _____ _____    ______ ____
ROOT
ATOM      1  C   UNL     1       0.379   5.633   0.869  0.00  0.00    +0.119 C 
ATOM      2  C   UNL     1       1.754   6.270   0.825  0.00  0.00    +0.247 C 
ATOM      3  O   UNL     1       2.597   6.251   1.695  0.00  0.00    -0.273 OA
ATOM      4  N   UNL     1       1.843   6.860  -0.384  0.00  0.00    -0.224 N 
ATOM      5  C   UNL     1       0.727   6.686  -1.101  0.00  0.00    +0.309 C 
ATOM      6  O   UNL     1       0.570   7.126  -2.223  0.00  0.00    -0.252 OA
ATOM      7  N   UNL     1      -0.202   5.970  -0.442  0.00  0.00    -0.284 N 
ATOM      8  H   UNL     1      -1.081   5.723  -0.767  0.00  0.00    +0.151 HD
ENDROOT
BRANCH   1  11
ATOM      9  C   UNL     1      -0.785   1.974   1.154  0.00  0.00    -0.078 C 
ATOM     10  C   UNL     1      -0.907   3.496   1.050  0.00  0.00    -0.013 C 
ATOM     11  C   UNL     1       0.493   4.116   1.034  0.00  0.00    +0.018 C 
ATOM     12  C   UNL     1       1.287   3.533  -0.138  0.00  0.00    -0.013 C 
ATOM     13  C   UNL     1       1.346   2.010   0.000  0.00  0.00    -0.078 C 
ATOM     14  N   UNL     1      -0.032   1.473  -0.015  0.00  0.00    +0.382 N 
ATOM     15  H   UNL     1      -0.501   1.786  -0.873  0.00  0.00    -0.081 HD
BRANCH  14  16
ATOM     16  C   UNL     1       0.002  -0.004   0.002  0.00  0.00    -0.043 C 
BRANCH  16  20
ATOM     17  C   UNL     1      -3.943  -1.488   0.726  0.00  0.00    +0.161 A 
ATOM     18  C   UNL     1      -3.519  -1.243  -0.570  0.00  0.00    +0.049 A 
ATOM     19  C   UNL     1      -2.243  -0.762  -0.801  0.00  0.00    +0.005 A 
ATOM     20  C   UNL     1      -1.388  -0.527   0.259  0.00  0.00    -0.060 A 
ATOM     21  C   UNL     1      -1.803  -0.775   1.554  0.00  0.00    +0.051 A 
ATOM     22  C   UNL     1      -3.082  -1.251   1.793  0.00  0.00    +0.159 A 
BRANCH  17  24
ATOM     23  C   UNL     1      -6.026  -2.182  -0.189  0.00  0.00    +0.277 C 
ATOM     24  O   UNL     1      -5.197  -1.961   0.954  0.00  0.00    -0.491 OA
ENDBRANCH  17  24
BRANCH  22  25
ATOM     25  O   UNL     1      -3.493  -1.490   3.067  0.00  0.00    -0.503 OA
ATOM     26  H   UNL     1      -3.311  -2.388   3.377  0.00  0.00    +0.292 HD
ENDBRANCH  22  25
ENDBRANCH  16  20
ENDBRANCH  14  16
ENDBRANCH   1  11
BRANCH   4  27
ATOM     27  C   UNL     1       3.016   7.600  -0.853  0.00  0.00    +0.121 C 
BRANCH  27  28
ATOM     28  C   UNL     1       3.971   6.643  -1.569  0.00  0.00    +0.007 C 
ATOM     29  C   UNL     1       5.355   6.431  -0.952  0.00  0.00    +0.005 C 
ATOM     30  C   UNL     1       5.207   7.247  -2.239  0.00  0.00    +0.005 C 
ENDBRANCH  27  28
ENDBRANCH   4  27
BRANCH   1  31
ATOM     31  C   UNL     1      -0.457   6.234   2.001  0.00  0.00    +0.072 C 
BRANCH  31  32
ATOM     32  C   UNL     1      -0.657   7.707   1.750  0.00  0.00    -0.027 A 
ATOM     33  C   UNL     1       0.189   8.629   2.337  0.00  0.00    +0.005 A 
ATOM     34  C   UNL     1       0.009   9.979   2.103  0.00  0.00    +0.000 A 
ATOM     35  C   UNL     1      -1.025  10.409   1.291  0.00  0.00    +0.001 A 
ATOM     36  C   UNL     1      -1.875   9.488   0.709  0.00  0.00    +0.020 A 
ATOM     37  C   UNL     1      -1.691   8.136   0.938  0.00  0.00    +0.044 A 
ATOM     38 CL   UNL     1      -2.759   6.978   0.207  0.00  0.00    -0.083 Cl
ENDBRANCH  31  32
ENDBRANCH   1  31
TORSDOF 9
