REMARK  Name = ZINC64612682
REMARK  7 active torsions:
REMARK  status: ('A' for Active; 'I' for Inactive)
REMARK    1  A    between atoms: C_1  and  O_2
REMARK    2  A    between atoms: O_2  and  C_3
REMARK    3  A    between atoms: C_8  and  N_9
REMARK    4  A    between atoms: N_12  and  S_15
REMARK    5  A    between atoms: S_15  and  C_18
REMARK    6  A    between atoms: C_21  and  C_24
REMARK    7  A    between atoms: C_28  and  C_30
REMARK                            x       y       z     vdW  Elec       q    Type
REMARK                         _______ _______ _______ _____ _____    ______ ____
ROOT
ATOM      1  S   UNL     1      -1.225  -6.059   2.302  0.00  0.00    +0.043 S 
ATOM      2  O   UNL     1      -0.469  -5.745   3.463  0.00  0.00    -0.157 OA
ATOM      3  O   UNL     1      -2.616  -5.776   2.244  0.00  0.00    -0.157 OA
ENDROOT
BRANCH   1   7
ATOM      4  N   UNL     1       0.097  -2.777  -0.113  0.00  0.00    -0.325 N 
ATOM      5  C   UNL     1      -1.305  -3.210  -0.195  0.00  0.00    +0.122 C 
ATOM      6  C   UNL     1      -1.355  -4.737  -0.068  0.00  0.00    +0.128 C 
ATOM      7  N   UNL     1      -0.556  -5.138   1.100  0.00  0.00    -0.177 NA
ATOM      8  C   UNL     1       0.846  -4.705   1.181  0.00  0.00    +0.128 C 
ATOM      9  C   UNL     1       0.896  -3.182   1.051  0.00  0.00    +0.122 C 
BRANCH   4  15
ATOM     10  C   UNL     1       0.606  -0.608  -1.057  0.00  0.00    +0.141 A 
ATOM     11  C   UNL     1       1.173   0.158  -2.062  0.00  0.00    +0.047 A 
ATOM     12  C   UNL     1       1.786  -0.457  -3.138  0.00  0.00    +0.004 A 
ATOM     13  C   UNL     1       1.837  -1.836  -3.214  0.00  0.00    +0.002 A 
ATOM     14  C   UNL     1       1.274  -2.608  -2.214  0.00  0.00    +0.027 A 
ATOM     15  C   UNL     1       0.662  -1.998  -1.129  0.00  0.00    +0.072 A 
BRANCH  10  17
ATOM     16  C   UNL     1      -0.017   1.425   0.010  0.00  0.00    +0.277 C 
ATOM     17  O   UNL     1       0.002  -0.004   0.002  0.00  0.00    -0.493 OA
ENDBRANCH  10  17
ENDBRANCH   4  15
ENDBRANCH   1   7
BRANCH   1  18
ATOM     18  C   UNL     1      -0.915  -7.775   1.801  0.00  0.00    +0.214 C 
ATOM     19  C   UNL     1      -1.636  -8.742   2.722  0.00  0.00    +0.035 C 
ATOM     20  C   UNL     1      -2.486  -9.399   1.939  0.00  0.00    +0.099 C 
ATOM     21  N   UNL     1      -2.414  -8.994   0.649  0.00  0.00    -0.257 NA
ATOM     22  C   UNL     1      -1.540  -8.061   0.449  0.00  0.00    +0.116 C 
BRANCH  20  23
ATOM     23  C   UNL     1      -3.421 -10.473   2.430  0.00  0.00    +0.327 C 
ATOM     24  N   UNL     1      -3.178 -11.737   1.712  0.00  0.00    -0.223 N 
ATOM     25  N   UNL     1      -4.380 -12.028   1.052  0.00  0.00    -0.145 NA
ATOM     26  C   UNL     1      -5.259 -11.113   1.295  0.00  0.00    +0.239 C 
ATOM     27  O   UNL     1      -4.780 -10.140   2.112  0.00  0.00    -0.446 OA
ATOM     28  H   UNL     1      -2.359 -12.257   1.700  0.00  0.00    +0.172 HD
BRANCH  26  29
ATOM     29  C   UNL     1      -6.631 -11.124   0.747  0.00  0.00    +0.038 A 
ATOM     30  C   UNL     1      -7.518 -10.090   1.056  0.00  0.00    +0.013 A 
ATOM     31  C   UNL     1      -8.797 -10.107   0.541  0.00  0.00    +0.001 A 
ATOM     32  C   UNL     1      -9.203 -11.145  -0.279  0.00  0.00    +0.000 A 
ATOM     33  C   UNL     1      -8.330 -12.172  -0.589  0.00  0.00    +0.001 A 
ATOM     34  C   UNL     1      -7.045 -12.165  -0.086  0.00  0.00    +0.013 A 
ENDBRANCH  26  29
ENDBRANCH  20  23
ENDBRANCH   1  18
TORSDOF 6
