REMARK  Name = ZINC11276924
REMARK  7 active torsions:
REMARK  status: ('A' for Active; 'I' for Inactive)
REMARK    1  A    between atoms: C_1  and  C_2
REMARK    2  A    between atoms: C_2  and  C_4
REMARK    3  A    between atoms: C_2  and  S_13
REMARK    4  A    between atoms: N_9  and  C_10
REMARK    5  A    between atoms: S_13  and  C_14
REMARK    6  A    between atoms: C_17  and  C_24
REMARK    7  A    between atoms: N_18  and  C_19
REMARK                            x       y       z     vdW  Elec       q    Type
REMARK                         _______ _______ _______ _____ _____    ______ ____
ROOT
ATOM      1  C   UNL     1       3.899   5.537  -0.139  0.00  0.00    +0.193 A 
ATOM      2  N   UNL     1       4.501   4.377  -0.004  0.00  0.00    -0.122 NA
ATOM      3  N   UNL     1       3.631   3.440   0.125  0.00  0.00    -0.128 NA
ATOM      4  C   UNL     1       2.420   3.945   0.080  0.00  0.00    +0.167 A 
ATOM      5  N   UNL     1       2.554   5.303  -0.095  0.00  0.00    -0.299 N 
ENDROOT
BRANCH   4   6
ATOM      6  C   UNL     1       1.151   3.194   0.191  0.00  0.00    +0.038 A 
ATOM      7  C   UNL     1       0.149   3.634   1.058  0.00  0.00    +0.013 A 
ATOM      8  C   UNL     1      -1.032   2.930   1.157  0.00  0.00    +0.001 A 
ATOM      9  C   UNL     1      -1.225   1.785   0.403  0.00  0.00    +0.001 A 
ATOM     10  C   UNL     1      -0.239   1.346  -0.463  0.00  0.00    +0.021 A 
ATOM     11  C   UNL     1       0.949   2.042  -0.571  0.00  0.00    +0.052 A 
ATOM     12 CL   UNL     1       2.188   1.485  -1.652  0.00  0.00    -0.083 Cl
ENDBRANCH   4   6
BRANCH   5  13
ATOM     13  C   UNL     1       1.479   6.291  -0.209  0.00  0.00    +0.091 C 
ATOM     14  C   UNL     1       1.587   7.037  -1.555  0.00  0.00    +0.025 C 
ATOM     15  C   UNL     1       1.179   8.493  -1.215  0.00  0.00    +0.002 C 
ATOM     16  C   UNL     1       1.809   8.707   0.184  0.00  0.00    +0.002 C 
ATOM     17  C   UNL     1       1.619   7.352   0.896  0.00  0.00    +0.025 C 
ENDBRANCH   5  13
BRANCH   1  18
ATOM     18  S   UNL     1       4.680   7.103  -0.345  0.00  0.00    -0.073 S 
BRANCH  18  20
ATOM     19  C   UNL     1       6.716   5.710  -1.519  0.00  0.00    +0.029 C 
ATOM     20  C   UNL     1       6.417   6.595  -0.308  0.00  0.00    +0.137 C 
BRANCH  20  21
ATOM     21  C   UNL     1       7.299   7.816  -0.348  0.00  0.00    +0.233 C 
ATOM     22  O   UNL     1       6.857   8.870  -0.754  0.00  0.00    -0.274 OA
ATOM     23  N   UNL     1       8.578   7.738   0.068  0.00  0.00    -0.239 N 
ATOM     24  C   UNL     1       9.367   8.830   0.032  0.00  0.00    +0.306 C 
ATOM     25  O   UNL     1       8.924   9.886  -0.376  0.00  0.00    -0.252 OA
ATOM     26  N   UNL     1      10.647   8.752   0.447  0.00  0.00    -0.296 N 
ATOM     27  H   UNL     1       8.932   6.895   0.393  0.00  0.00    +0.159 HD
ATOM     28  H   UNL     1      11.000   7.909   0.772  0.00  0.00    +0.151 HD
BRANCH  26  29
ATOM     29  C   UNL     1      11.504   9.939   0.408  0.00  0.00    +0.075 C 
ATOM     30  C   UNL     1      12.930   9.764  -0.118  0.00  0.00    +0.024 C 
ATOM     31  C   UNL     1      12.687   9.988   1.377  0.00  0.00    +0.024 C 
ENDBRANCH  26  29
ENDBRANCH  20  21
ENDBRANCH  18  20
ENDBRANCH   1  18
TORSDOF 6
