REMARK  Name = ZINC57681380
REMARK  3 active torsions:
REMARK  status: ('A' for Active; 'I' for Inactive)
REMARK    1  A    between atoms: C_10  and  C_11
REMARK    2  A    between atoms: C_17  and  S_24
REMARK    3  A    between atoms: S_24  and  N_27
REMARK                            x       y       z     vdW  Elec       q    Type
REMARK                         _______ _______ _______ _____ _____    ______ ____
ROOT
ATOM      1  C   UNL     1       4.960   0.161  -0.046  0.00  0.00    +0.191 C 
ATOM      2  N   UNL     1       4.832   1.317  -0.930  0.00  0.00    -0.322 N 
ATOM      3  C   UNL     1       4.741   1.214  -2.315  0.00  0.00    +0.057 A 
ATOM      4  C   UNL     1       4.175   2.268  -3.031  0.00  0.00    +0.047 A 
ATOM      5  C   UNL     1       4.085   2.204  -4.407  0.00  0.00    +0.069 A 
ATOM      6  C   UNL     1       4.557   1.094  -5.085  0.00  0.00    +0.125 A 
ATOM      7  C   UNL     1       5.114   0.043  -4.381  0.00  0.00    +0.060 A 
ATOM      8  C   UNL     1       5.198   0.100  -3.006  0.00  0.00    +0.128 A 
ATOM      9  S   UNL     1       5.874  -1.264  -2.108  0.00  0.00    +0.062 S 
ATOM     10  O   UNL     1       4.876  -2.275  -2.073  0.00  0.00    -0.153 OA
ATOM     11  O   UNL     1       7.180  -1.491  -2.619  0.00  0.00    -0.153 OA
ATOM     12  N   UNL     1       6.052  -0.701  -0.544  0.00  0.00    -0.166 NA
ATOM     13 CL   UNL     1       3.376   3.521  -5.289  0.00  0.00    -0.081 Cl
ATOM     14  H   UNL     1       4.809   2.201  -0.531  0.00  0.00    +0.148 HD
ATOM     15  H   UNL     1       6.822  -0.923   0.002  0.00  0.00    +0.150 HD
ENDROOT
BRANCH   1  25
ATOM     16  C   UNL     1       2.672  -3.087   3.181  0.00  0.00    +0.001 A 
ATOM     17  C   UNL     1       3.872  -2.379   3.190  0.00  0.00    +0.001 A 
ATOM     18  C   UNL     1       4.215  -1.568   2.152  0.00  0.00    +0.009 A 
ATOM     19  C   UNL     1       3.348  -1.442   1.053  0.00  0.00    -0.012 A 
ATOM     20  C   UNL     1       2.128  -2.163   1.044  0.00  0.00    -0.018 A 
ATOM     21  C   UNL     1       1.808  -2.990   2.135  0.00  0.00    +0.008 A 
ATOM     22  C   UNL     1       1.262  -2.036  -0.055  0.00  0.00    +0.008 A 
ATOM     23  C   UNL     1       1.605  -1.226  -1.093  0.00  0.00    +0.001 A 
ATOM     24  C   UNL     1       2.804  -0.517  -1.085  0.00  0.00    +0.007 A 
ATOM     25  C   UNL     1       3.668  -0.615  -0.037  0.00  0.00    -0.004 A 
ENDBRANCH   1  25
BRANCH   6  26
ATOM     26  S   UNL     1       4.448   1.021  -6.843  0.00  0.00    +0.057 S 
ATOM     27  O   UNL     1       4.962   2.252  -7.333  0.00  0.00    -0.153 OA
ATOM     28  O   UNL     1       4.985  -0.236  -7.231  0.00  0.00    -0.153 OA
BRANCH  26  29
ATOM     29  N   UNL     1       2.839   0.990  -7.233  0.00  0.00    -0.203 NA
ATOM     30  H   UNL     1       2.170   1.013  -6.532  0.00  0.00    +0.144 HD
ATOM     31  H   UNL     1       2.567   0.950  -8.163  0.00  0.00    +0.144 HD
ENDBRANCH  26  29
ENDBRANCH   6  26
TORSDOF 3
