REMARK  Name = ZINC20283240
REMARK  9 active torsions:
REMARK  status: ('A' for Active; 'I' for Inactive)
REMARK    1  A    between atoms: C_1  and  C_2
REMARK    2  A    between atoms: C_2  and  O_3
REMARK    3  A    between atoms: O_3  and  C_4
REMARK    4  A    between atoms: C_4  and  C_6
REMARK    5  A    between atoms: C_7  and  C_20
REMARK    6  A    between atoms: C_12  and  C_14
REMARK    7  A    between atoms: C_20  and  N_21
REMARK    8  A    between atoms: N_21  and  C_22
REMARK    9  A    between atoms: C_22  and  C_23
REMARK                            x       y       z     vdW  Elec       q    Type
REMARK                         _______ _______ _______ _____ _____    ______ ____
ROOT
ATOM      1  C   UNL     1      -0.188  -0.553  -1.390  0.00  0.00    +0.076 C 
ATOM      2  C   UNL     1      -1.266  -1.334  -1.620  0.00  0.00    +0.007 C 
ATOM      3  N   UNL     1      -2.146  -1.632  -0.620  0.00  0.00    -0.274 N 
ATOM      4  C   UNL     1      -2.020  -1.189   0.637  0.00  0.00    +0.304 C 
ATOM      5  O   UNL     1      -2.856  -1.508   1.460  0.00  0.00    -0.252 OA
ATOM      6  N   UNL     1      -0.996  -0.401   1.020  0.00  0.00    -0.288 N 
ATOM      7  C   UNL     1       0.011  -0.021   0.015  0.00  0.00    +0.143 C 
ATOM      8  H   UNL     1      -3.019  -2.269  -0.828  0.00  0.00    +0.156 HD
ATOM      9  H   UNL     1      -0.901  -0.042   2.056  0.00  0.00    +0.151 HD
ENDROOT
BRANCH   7  10
ATOM     10  C   UNL     1       0.048   1.484  -0.060  0.00  0.00    -0.023 A 
ATOM     11  C   UNL     1      -1.130   2.200  -0.155  0.00  0.00    +0.006 A 
ATOM     12  C   UNL     1      -1.096   3.581  -0.219  0.00  0.00    +0.000 A 
ATOM     13  C   UNL     1       0.117   4.244  -0.197  0.00  0.00    +0.000 A 
ATOM     14  C   UNL     1       1.295   3.527  -0.107  0.00  0.00    +0.000 A 
ATOM     15  C   UNL     1       1.261   2.147  -0.039  0.00  0.00    +0.006 A 
ENDBRANCH   7  10
BRANCH   1  16
ATOM     16  C   UNL     1       0.726  -0.244  -2.425  0.00  0.00    +0.339 C 
ATOM     17  O   UNL     1       1.784  -0.840  -2.500  0.00  0.00    -0.245 OA
BRANCH  16  18
ATOM     18  O   UNL     1       0.424   0.711  -3.329  0.00  0.00    -0.462 OA
BRANCH  18  20
ATOM     19  C   UNL     1       0.877   2.077  -5.270  0.00  0.00    +0.048 C 
ATOM     20  C   UNL     1       1.393   0.971  -4.346  0.00  0.00    +0.229 C 
ENDBRANCH  18  20
ENDBRANCH  16  18
ENDBRANCH   1  16
BRANCH   2  21
ATOM     21  C   UNL     1      -1.500  -1.885  -3.003  0.00  0.00    -0.030 C 
BRANCH  21  22
ATOM     22  N   UNL     1      -1.375  -3.348  -2.975  0.00  0.00    +0.385 N 
ATOM     23  H   UNL     1      -0.365  -3.623  -2.637  0.00  0.00    -0.085 HD
ATOM     24  H   UNL     1      -2.120  -3.766  -2.283  0.00  0.00    -0.085 HD
BRANCH  22  25
ATOM     25  C   UNL     1      -1.598  -3.921  -4.309  0.00  0.00    -0.046 C 
BRANCH  25  26
ATOM     26  C   UNL     1      -1.462  -5.420  -4.241  0.00  0.00    -0.061 A 
ATOM     27  C   UNL     1      -0.230  -6.012  -4.452  0.00  0.00    +0.005 A 
ATOM     28  C   UNL     1      -0.099  -7.386  -4.385  0.00  0.00    +0.050 A 
ATOM     29  C   UNL     1      -1.205  -8.176  -4.117  0.00  0.00    +0.166 A 
ATOM     30  C   UNL     1      -2.447  -7.581  -3.910  0.00  0.00    +0.166 A 
ATOM     31  C   UNL     1      -2.570  -6.202  -3.973  0.00  0.00    +0.051 A 
ATOM     32  O   UNL     1      -3.366  -8.561  -3.668  0.00  0.00    -0.453 OA
ATOM     33  C   UNL     1      -2.758  -9.781  -4.132  0.00  0.00    +0.466 C 
ATOM     34  O   UNL     1      -1.346  -9.529  -4.005  0.00  0.00    -0.453 OA
ENDBRANCH  25  26
ENDBRANCH  22  25
ENDBRANCH  21  22
ENDBRANCH   2  21
TORSDOF 8
