REMARK  Name = ZINC20540851
REMARK  7 active torsions:
REMARK  status: ('A' for Active; 'I' for Inactive)
REMARK    1  A    between atoms: C_1  and  C_2
REMARK    2  A    between atoms: C_7  and  C_8
REMARK    3  A    between atoms: C_8  and  N_9
REMARK    4  A    between atoms: N_12  and  C_15
REMARK    5  A    between atoms: C_15  and  C_16
REMARK    6  A    between atoms: C_17  and  C_28
REMARK    7  A    between atoms: C_20  and  C_22
REMARK                            x       y       z     vdW  Elec       q    Type
REMARK                         _______ _______ _______ _____ _____    ______ ____
ROOT
ATOM      1  C   UNL     1      -5.009   1.173   4.792  0.00  0.00    +0.139 C 
ENDROOT
BRANCH   1   2
ATOM      2  C   UNL     1      -5.031   1.811   6.157  0.00  0.00    +0.051 A 
ATOM      3  C   UNL     1      -4.861   1.169   7.331  0.00  0.00    +0.035 A 
ATOM      4  N   UNL     1      -4.952   2.110   8.320  0.00  0.00    -0.343 N 
ATOM      5  H   UNL     1      -4.871   1.954   9.274  0.00  0.00    +0.167 HD
ATOM      6  C   UNL     1      -5.178   3.309   7.710  0.00  0.00    +0.116 A 
ATOM      7  N   UNL     1      -5.217   3.111   6.411  0.00  0.00    -0.342 N 
ATOM      8  C   UNL     1      -4.616  -0.307   7.518  0.00  0.00    +0.065 C 
ATOM      9  H   UNL     1      -5.360   3.799   5.743  0.00  0.00    +0.167 HD
BRANCH   6  10
ATOM     10  C   UNL     1      -5.344   4.611   8.393  0.00  0.00    +0.015 A 
ATOM     11  C   UNL     1      -5.681   5.749   7.660  0.00  0.00    +0.011 A 
ATOM     12  C   UNL     1      -5.835   6.960   8.303  0.00  0.00    +0.001 A 
ATOM     13  C   UNL     1      -5.657   7.047   9.672  0.00  0.00    +0.000 A 
ATOM     14  C   UNL     1      -5.323   5.922  10.405  0.00  0.00    +0.001 A 
ATOM     15  C   UNL     1      -5.171   4.704   9.775  0.00  0.00    +0.011 A 
ENDBRANCH   6  10
ENDBRANCH   1   2
BRANCH   1  19
ATOM     16  N   UNL     1      -1.370   0.762   2.687  0.00  0.00    -0.296 NA
ATOM     17  C   UNL     1      -2.130  -0.458   2.995  0.00  0.00    +0.100 C 
ATOM     18  C   UNL     1      -3.584  -0.088   3.296  0.00  0.00    +0.100 C 
ATOM     19  N   UNL     1      -3.624   0.853   4.424  0.00  0.00    -0.294 NA
ATOM     20  C   UNL     1      -2.865   2.072   4.115  0.00  0.00    +0.100 C 
ATOM     21  C   UNL     1      -1.411   1.703   3.815  0.00  0.00    +0.100 C 
BRANCH  16  22
ATOM     22  C   UNL     1       0.015   0.441   2.318  0.00  0.00    +0.120 C 
BRANCH  22  29
ATOM     23  C   UNL     1      -0.248   1.854  -0.188  0.00  0.00    +0.044 C 
ATOM     24  C   UNL     1      -0.101   0.354  -0.181  0.00  0.00    -0.046 A 
ATOM     25  C   UNL     1      -0.086  -0.345  -1.373  0.00  0.00    +0.003 A 
ATOM     26  C   UNL     1       0.050  -1.720  -1.367  0.00  0.00    +0.000 A 
ATOM     27  C   UNL     1       0.170  -2.397  -0.167  0.00  0.00    +0.000 A 
ATOM     28  C   UNL     1       0.156  -1.698   1.025  0.00  0.00    +0.005 A 
ATOM     29  C   UNL     1       0.025  -0.322   1.018  0.00  0.00    -0.030 A 
ENDBRANCH  22  29
ENDBRANCH  16  22
ENDBRANCH   1  19
TORSDOF 5
