REMARK  Name = ZINC38596083
REMARK  11 active torsions:
REMARK  status: ('A' for Active; 'I' for Inactive)
REMARK    1  A    between atoms: C_1  and  C_2
REMARK    2  A    between atoms: C_2  and  C_4
REMARK    3  A    between atoms: C_2  and  N_24
REMARK    4  A    between atoms: C_4  and  C_6
REMARK    5  A    between atoms: C_4  and  N_11
REMARK    6  A    between atoms: N_14  and  C_17
REMARK    7  A    between atoms: C_17  and  C_18
REMARK    8  A    between atoms: N_24  and  S_25
REMARK    9  A    between atoms: S_25  and  C_28
REMARK   10  A    between atoms: C_33  and  O_34
REMARK   11  A    between atoms: O_34  and  C_35
REMARK                            x       y       z     vdW  Elec       q    Type
REMARK                         _______ _______ _______ _____ _____    ______ ____
ROOT
ATOM      1  C   UNL     1       0.606  -0.499  -1.314  0.00  0.00    +0.112 C 
ENDROOT
BRANCH   1   2
ATOM      2  N   UNL     1       1.926   0.046  -1.660  0.00  0.00    -0.297 NA
ATOM      3  C   UNL     1       2.405  -0.506  -2.935  0.00  0.00    +0.066 C 
ATOM      4  C   UNL     1       3.752   0.130  -3.288  0.00  0.00    -0.063 C 
ATOM      5  N   UNL     1       4.720  -0.148  -2.219  0.00  0.00    +0.384 N 
ATOM      6  C   UNL     1       4.239   0.431  -0.958  0.00  0.00    -0.063 C 
ATOM      7  C   UNL     1       2.897  -0.203  -0.585  0.00  0.00    +0.066 C 
ATOM      8  H   UNL     1       4.826  -1.145  -2.113  0.00  0.00    -0.081 HD
BRANCH   5   9
ATOM      9  C   UNL     1       6.017   0.448  -2.567  0.00  0.00    -0.043 C 
BRANCH   9  10
ATOM     10  C   UNL     1       7.042   0.060  -1.532  0.00  0.00    -0.064 A 
ATOM     11  C   UNL     1       7.232   0.853  -0.417  0.00  0.00    +0.002 A 
ATOM     12  C   UNL     1       8.172   0.497   0.533  0.00  0.00    +0.000 A 
ATOM     13  C   UNL     1       8.921  -0.652   0.366  0.00  0.00    +0.000 A 
ATOM     14  C   UNL     1       8.730  -1.446  -0.749  0.00  0.00    +0.000 A 
ATOM     15  C   UNL     1       7.787  -1.093  -1.696  0.00  0.00    +0.002 A 
ENDBRANCH   9  10
ENDBRANCH   5   9
ENDBRANCH   1   2
BRANCH   1  16
ATOM     16  C   UNL     1      -0.368  -0.201  -2.425  0.00  0.00    +0.008 A 
ATOM     17  C   UNL     1      -1.367  -0.974  -2.914  0.00  0.00    +0.013 A 
ATOM     18  C   UNL     1      -2.145  -0.489  -3.949  0.00  0.00    +0.008 A 
ATOM     19  C   UNL     1      -1.885   0.746  -4.443  0.00  0.00    +0.045 A 
ATOM     20  S   UNL     1      -0.510   1.267  -3.432  0.00  0.00    -0.100 S 
ENDBRANCH   1  16
BRANCH   1  22
ATOM     21  C   UNL     1       0.119   1.668  -0.169  0.00  0.00    +0.027 C 
ATOM     22  C   UNL     1       0.113   0.145  -0.017  0.00  0.00    +0.095 C 
BRANCH  22  23
ATOM     23  N   UNL     1      -1.250  -0.311   0.268  0.00  0.00    -0.185 NA
ATOM     24  H   UNL     1      -1.869  -0.475  -0.461  0.00  0.00    +0.148 HD
BRANCH  23  25
ATOM     25  S   UNL     1      -1.733  -0.549   1.834  0.00  0.00    +0.062 S 
ATOM     26  O   UNL     1      -3.093  -0.959   1.782  0.00  0.00    -0.153 OA
ATOM     27  O   UNL     1      -0.725  -1.333   2.456  0.00  0.00    -0.153 OA
BRANCH  25  28
ATOM     28  C   UNL     1      -1.712   1.023   2.630  0.00  0.00    +0.147 A 
ATOM     29  C   UNL     1      -2.890   1.584   3.083  0.00  0.00    +0.032 A 
ATOM     30  C   UNL     1      -2.874   2.818   3.708  0.00  0.00    +0.002 A 
ATOM     31  C   UNL     1      -1.679   3.492   3.880  0.00  0.00    +0.004 A 
ATOM     32  C   UNL     1      -0.498   2.935   3.429  0.00  0.00    +0.047 A 
ATOM     33  C   UNL     1      -0.511   1.695   2.807  0.00  0.00    +0.146 A 
BRANCH  33  34
ATOM     34  O   UNL     1       0.650   1.142   2.367  0.00  0.00    -0.493 OA
ATOM     35  C   UNL     1       1.847   1.890   2.583  0.00  0.00    +0.277 C 
ENDBRANCH  33  34
ENDBRANCH  25  28
ENDBRANCH  23  25
ENDBRANCH  22  23
ENDBRANCH   1  22
TORSDOF 9
