REMARK  Name = ZINC09105012
REMARK  11 active torsions:
REMARK  status: ('A' for Active; 'I' for Inactive)
REMARK    1  A    between atoms: C_1  and  C_2
REMARK    2  A    between atoms: C_2  and  C_3
REMARK    3  A    between atoms: C_2  and  C_4
REMARK    4  A    between atoms: C_7  and  S_10
REMARK    5  A    between atoms: S_10  and  C_13
REMARK    6  A    between atoms: C_13  and  C_15
REMARK    7  A    between atoms: C_13  and  C_30
REMARK    8  A    between atoms: C_15  and  N_16
REMARK    9  A    between atoms: C_17  and  C_19
REMARK   10  A    between atoms: N_21  and  C_22
REMARK   11  A    between atoms: C_22  and  C_23
REMARK                            x       y       z     vdW  Elec       q    Type
REMARK                         _______ _______ _______ _____ _____    ______ ____
ROOT
ATOM      1  C   UNL     1      -1.036   3.567   0.026  0.00  0.00    +0.189 C 
ENDROOT
BRANCH   1   2
ATOM      2  C   UNL     1      -2.351   4.302   0.037  0.00  0.00    +0.016 A 
ATOM      3  C   UNL     1      -2.841   5.188  -0.865  0.00  0.00    +0.013 A 
ATOM      4  C   UNL     1      -4.088   5.742  -0.651  0.00  0.00    +0.008 A 
ATOM      5  C   UNL     1      -4.781   5.392   0.461  0.00  0.00    +0.045 A 
ATOM      6  S   UNL     1      -3.664   4.240   1.244  0.00  0.00    -0.100 S 
ENDBRANCH   1   2
BRANCH   1   7
ATOM      7  S   UNL     1      -0.083   4.010   1.505  0.00  0.00    +0.006 S 
ATOM      8  O   UNL     1      -0.832   3.714   2.676  0.00  0.00    -0.169 OA
ATOM      9  O   UNL     1       1.260   3.566   1.373  0.00  0.00    -0.169 OA
BRANCH   7  13
ATOM     10  C   UNL     1       0.177   8.528   1.411  0.00  0.00    -0.045 A 
ATOM     11  C   UNL     1      -0.877   7.910   2.057  0.00  0.00    +0.006 A 
ATOM     12  C   UNL     1      -0.957   6.530   2.086  0.00  0.00    +0.027 A 
ATOM     13  C   UNL     1       0.018   5.768   1.469  0.00  0.00    +0.089 A 
ATOM     14  C   UNL     1       1.075   6.387   0.828  0.00  0.00    +0.027 A 
ATOM     15  C   UNL     1       1.152   7.766   0.795  0.00  0.00    +0.006 A 
BRANCH  10  17
ATOM     16  C   UNL     1       1.562  10.483   2.050  0.00  0.00    +0.012 C 
ATOM     17  C   UNL     1       0.263  10.032   1.379  0.00  0.00    +0.013 C 
ATOM     18  C   UNL     1       0.245  10.513  -0.073  0.00  0.00    +0.012 C 
ENDBRANCH  10  17
ENDBRANCH   7  13
ENDBRANCH   1   7
BRANCH   1  19
ATOM     19  C   UNL     1      -1.295   2.059   0.019  0.00  0.00    +0.136 C 
BRANCH  19  20
ATOM     20  N   UNL     1      -0.016   1.344   0.009  0.00  0.00    -0.305 N 
ATOM     21  C   UNL     1       0.002  -0.004   0.002  0.00  0.00    +0.299 C 
ATOM     22  O   UNL     1      -1.040  -0.625   0.009  0.00  0.00    -0.265 OA
ATOM     23  H   UNL     1       0.817   1.840   0.004  0.00  0.00    +0.149 HD
BRANCH  21  24
ATOM     24  C   UNL     1       1.306  -0.734  -0.014  0.00  0.00    +0.299 C 
ATOM     25  O   UNL     1       2.349  -0.113  -0.021  0.00  0.00    -0.265 OA
ATOM     26  N   UNL     1       1.325  -2.081  -0.022  0.00  0.00    -0.303 N 
ATOM     27  H   UNL     1       0.491  -2.578  -0.017  0.00  0.00    +0.149 HD
BRANCH  26  28
ATOM     28  C   UNL     1       2.603  -2.796  -0.038  0.00  0.00    +0.140 C 
BRANCH  28  29
ATOM     29  C   UNL     1       2.348  -4.282  -0.043  0.00  0.00    -0.030 A 
ATOM     30  C   UNL     1       2.248  -4.970   1.151  0.00  0.00    +0.006 A 
ATOM     31  C   UNL     1       2.008  -6.331   1.147  0.00  0.00    +0.020 A 
ATOM     32  C   UNL     1       1.879  -7.007  -0.053  0.00  0.00    +0.041 A 
ATOM     33  C   UNL     1       1.985  -6.318  -1.249  0.00  0.00    +0.020 A 
ATOM     34  C   UNL     1       2.219  -4.956  -1.243  0.00  0.00    +0.006 A 
ATOM     35 CL   UNL     1       1.585  -8.718  -0.060  0.00  0.00    -0.084 Cl
ENDBRANCH  28  29
ENDBRANCH  26  28
ENDBRANCH  21  24
ENDBRANCH  19  20
ENDBRANCH   1  19
TORSDOF 9
