REMARK  Name = ZINC36516842
REMARK  17 active torsions:
REMARK  status: ('A' for Active; 'I' for Inactive)
REMARK    1  A    between atoms: C_1  and  C_2
REMARK    2  A    between atoms: C_2  and  C_3
REMARK    3  A    between atoms: C_3  and  C_4
REMARK    4  A    between atoms: C_4  and  C_5
REMARK    5  A    between atoms: C_5  and  C_6
REMARK    6  A    between atoms: C_6  and  N_7
REMARK    7  A    between atoms: N_7  and  C_8
REMARK    8  A    between atoms: C_8  and  C_10
REMARK    9  A    between atoms: C_8  and  C_19
REMARK   10  A    between atoms: C_13  and  N_16
REMARK   11  A    between atoms: N_21  and  C_22
REMARK   12  A    between atoms: C_22  and  S_23
REMARK   13  A    between atoms: S_23  and  C_26
REMARK   14  A    between atoms: C_29  and  C_32
REMARK   15  A    between atoms: C_33  and  C_35
REMARK   16  A    between atoms: C_36  and  C_37
REMARK   17  A    between atoms: C_36  and  C_38
REMARK                            x       y       z     vdW  Elec       q    Type
REMARK                         _______ _______ _______ _____ _____    ______ ____
ROOT
ATOM      1  C   UNL     1       3.576  -3.442  -4.548  0.00  0.00    +0.192 C 
ENDROOT
BRANCH   1   2
ATOM      2  C   UNL     1       4.288  -4.763  -4.683  0.00  0.00    -0.018 A 
ATOM      3  C   UNL     1       4.660  -5.466  -3.552  0.00  0.00    +0.008 A 
ATOM      4  C   UNL     1       5.313  -6.678  -3.676  0.00  0.00    +0.033 A 
ATOM      5  C   UNL     1       5.594  -7.187  -4.930  0.00  0.00    +0.126 A 
ATOM      6  C   UNL     1       5.221  -6.484  -6.061  0.00  0.00    +0.033 A 
ATOM      7  C   UNL     1       4.564  -5.274  -5.937  0.00  0.00    +0.008 A 
BRANCH   5   8
ATOM      8  N   UNL     1       6.294  -8.484  -5.063  0.00  0.00    +0.056 N 
ATOM      9  O   UNL     1       6.621  -9.098  -4.074  0.00  0.00    -0.126 OA
ATOM     10  O   UNL     1       6.539  -8.930  -6.160  0.00  0.00    -0.126 OA
ENDBRANCH   5   8
ENDBRANCH   1   2
BRANCH   1  11
ATOM     11  C   UNL     1       3.835  -2.604  -5.774  0.00  0.00    +0.239 C 
ATOM     12  O   UNL     1       2.908  -2.238  -6.465  0.00  0.00    -0.273 OA
ATOM     13  N   UNL     1       5.096  -2.262  -6.102  0.00  0.00    -0.294 N 
ATOM     14  H   UNL     1       5.838  -2.555  -5.549  0.00  0.00    +0.150 HD
BRANCH  13  15
ATOM     15  C   UNL     1       5.348  -1.448  -7.294  0.00  0.00    +0.278 C 
BRANCH  15  16
ATOM     16  S   UNL     1       5.458   0.300  -6.820  0.00  0.00    +0.013 S 
ATOM     17  O   UNL     1       5.765   1.097  -7.956  0.00  0.00    -0.168 OA
ATOM     18  O   UNL     1       4.377   0.644  -5.964  0.00  0.00    -0.168 OA
BRANCH  16  19
ATOM     19  C   UNL     1       6.891   0.403  -5.798  0.00  0.00    +0.090 A 
ATOM     20  C   UNL     1       6.780   0.218  -4.433  0.00  0.00    +0.027 A 
ATOM     21  C   UNL     1       7.904   0.298  -3.632  0.00  0.00    +0.005 A 
ATOM     22  C   UNL     1       9.138   0.563  -4.196  0.00  0.00    -0.050 A 
ATOM     23  C   UNL     1       9.248   0.747  -5.562  0.00  0.00    +0.005 A 
ATOM     24  C   UNL     1       8.125   0.662  -6.363  0.00  0.00    +0.027 A 
ATOM     25  C   UNL     1      10.363   0.652  -3.323  0.00  0.00    +0.044 C 
ENDBRANCH  16  19
ENDBRANCH  15  16
ENDBRANCH  13  15
ENDBRANCH   1  11
BRANCH   1  26
ATOM     26  N   UNL     1       2.136  -3.675  -4.411  0.00  0.00    -0.282 N 
ATOM     27  C   UNL     1       1.465  -3.153  -3.365  0.00  0.00    +0.240 C 
ATOM     28  O   UNL     1       2.034  -2.411  -2.587  0.00  0.00    -0.271 OA
BRANCH  27  29
ATOM     29  C   UNL     1       0.045  -3.480  -3.164  0.00  0.00    +0.066 C 
ATOM     30  C   UNL     1      -0.581  -3.076  -2.062  0.00  0.00    -0.071 C 
ATOM     31  C   UNL     1       0.198  -2.426  -0.948  0.00  0.00    +0.039 C 
ATOM     32  C   UNL     1      -2.070  -3.269  -1.928  0.00  0.00    +0.039 C 
ENDBRANCH  27  29
BRANCH  26  33
ATOM     33  C   UNL     1       1.425  -4.475  -5.411  0.00  0.00    +0.109 C 
BRANCH  33  34
ATOM     34  C   UNL     1       1.443  -5.947  -4.994  0.00  0.00    +0.019 C 
BRANCH  34  35
ATOM     35  C   UNL     1       0.701  -6.782  -6.038  0.00  0.00    +0.002 C 
BRANCH  35  36
ATOM     36  C   UNL     1       0.719  -8.254  -5.621  0.00  0.00    -0.000 C 
BRANCH  36  38
ATOM     37  C   UNL     1      -0.005 -10.562  -6.248  0.00  0.00    +0.004 C 
ATOM     38  C   UNL     1      -0.023  -9.090  -6.665  0.00  0.00    -0.003 C 
ENDBRANCH  36  38
ENDBRANCH  35  36
ENDBRANCH  34  35
ENDBRANCH  33  34
ENDBRANCH  26  33
ENDBRANCH   1  26
TORSDOF 13
