REMARK  Name = ZINC12712542
REMARK  14 active torsions:
REMARK  status: ('A' for Active; 'I' for Inactive)
REMARK    1  A    between atoms: C_1  and  C_2
REMARK    2  A    between atoms: C_5  and  C_8
REMARK    3  A    between atoms: C_8  and  C_10
REMARK    4  A    between atoms: C_8  and  N_18
REMARK    5  A    between atoms: N_12  and  C_13
REMARK    6  A    between atoms: C_13  and  C_14
REMARK    7  A    between atoms: C_14  and  C_15
REMARK    8  A    between atoms: C_15  and  C_16
REMARK    9  A    between atoms: C_15  and  C_17
REMARK   10  A    between atoms: N_18  and  C_19
REMARK   11  A    between atoms: C_22  and  N_25
REMARK   12  A    between atoms: C_26  and  C_28
REMARK   13  A    between atoms: C_29  and  C_31
REMARK   14  A    between atoms: C_31  and  N_32
REMARK                            x       y       z     vdW  Elec       q    Type
REMARK                         _______ _______ _______ _____ _____    ______ ____
ROOT
ATOM      1  N   UNL     1      -2.911   3.075   1.920  0.00  0.00    -0.254 N 
ATOM      2  C   UNL     1      -2.289   1.881   1.873  0.00  0.00    +0.242 C 
ATOM      3  O   UNL     1      -1.556   1.542   2.778  0.00  0.00    -0.273 OA
ENDROOT
BRANCH   1   4
ATOM      4  C   UNL     1      -3.865   3.407   0.949  0.00  0.00    +0.038 A 
ATOM      5  C   UNL     1      -5.207   3.493   1.296  0.00  0.00    +0.025 A 
ATOM      6  C   UNL     1      -6.147   3.824   0.340  0.00  0.00    +0.025 A 
ATOM      7  C   UNL     1      -5.752   4.061  -0.970  0.00  0.00    +0.033 A 
ATOM      8  C   UNL     1      -4.410   3.970  -1.317  0.00  0.00    +0.025 A 
ATOM      9  C   UNL     1      -3.470   3.644  -0.360  0.00  0.00    +0.025 A 
BRANCH   7  10
ATOM     10  N   UNL     1      -6.705   4.393  -1.940  0.00  0.00    -0.286 N 
ATOM     11  C   UNL     1      -6.536   3.994  -3.216  0.00  0.00    +0.214 C 
ATOM     12  O   UNL     1      -5.600   3.279  -3.509  0.00  0.00    -0.276 OA
ATOM     13  C   UNL     1      -7.508   4.435  -4.280  0.00  0.00    +0.109 C 
ATOM     14  H   UNL     1      -7.488   4.910  -1.694  0.00  0.00    +0.155 HD
ENDBRANCH   7  10
ENDBRANCH   1   4
BRANCH   1  15
ATOM     15  C   UNL     1      -2.590   4.027   2.986  0.00  0.00    +0.197 C 
BRANCH  15  20
ATOM     16  C   UNL     1      -6.181   8.544   2.684  0.00  0.00    +0.044 C 
ATOM     17  C   UNL     1      -5.244   7.366   2.763  0.00  0.00    -0.050 A 
ATOM     18  C   UNL     1      -5.164   6.624   3.926  0.00  0.00    +0.004 A 
ATOM     19  C   UNL     1      -4.306   5.543   3.998  0.00  0.00    +0.006 A 
ATOM     20  C   UNL     1      -3.527   5.205   2.908  0.00  0.00    -0.018 A 
ATOM     21  C   UNL     1      -3.602   5.951   1.746  0.00  0.00    +0.006 A 
ATOM     22  C   UNL     1      -4.465   7.029   1.672  0.00  0.00    +0.004 A 
ENDBRANCH  15  20
BRANCH  15  23
ATOM     23  C   UNL     1      -1.169   4.503   2.824  0.00  0.00    +0.238 C 
ATOM     24  O   UNL     1      -0.492   4.088   1.907  0.00  0.00    -0.273 OA
ATOM     25  N   UNL     1      -0.652   5.389   3.697  0.00  0.00    -0.313 N 
ATOM     26  H   UNL     1      -1.194   5.721   4.430  0.00  0.00    +0.149 HD
BRANCH  25  27
ATOM     27  C   UNL     1       0.729   5.852   3.539  0.00  0.00    +0.104 C 
BRANCH  27  28
ATOM     28  C   UNL     1       1.065   6.845   4.653  0.00  0.00    +0.022 C 
BRANCH  28  29
ATOM     29  C   UNL     1       2.507   7.329   4.488  0.00  0.00    -0.016 C 
ATOM     30  C   UNL     1       2.634   8.122   3.186  0.00  0.00    +0.007 C 
ATOM     31  C   UNL     1       2.883   8.224   5.670  0.00  0.00    +0.007 C 
ENDBRANCH  28  29
ENDBRANCH  27  28
ENDBRANCH  25  27
ENDBRANCH  15  23
ENDBRANCH   1  15
BRANCH   2  32
ATOM     32  C   UNL     1      -2.504   0.965   0.695  0.00  0.00    +0.242 C 
BRANCH  32  33
ATOM     33  N   UNL     1      -1.669  -0.229   0.846  0.00  0.00    -0.235 N 
ATOM     34  C   UNL     1      -2.018  -1.403   1.471  0.00  0.00    +0.090 A 
ATOM     35  C   UNL     1      -3.162  -1.846   2.126  0.00  0.00    +0.029 A 
ATOM     36  C   UNL     1      -3.197  -3.105   2.656  0.00  0.00    +0.002 A 
ATOM     37  C   UNL     1      -2.098  -3.948   2.547  0.00  0.00    +0.002 A 
ATOM     38  C   UNL     1      -0.964  -3.537   1.911  0.00  0.00    +0.032 A 
ATOM     39  C   UNL     1      -0.903  -2.251   1.358  0.00  0.00    +0.113 A 
ATOM     40  N   UNL     1       0.055  -1.580   0.688  0.00  0.00    -0.129 NA
ATOM     41  N   UNL     1      -0.359  -0.403   0.376  0.00  0.00    -0.064 NA
ENDBRANCH  32  33
ENDBRANCH   2  32
TORSDOF 10
