REMARK  Name = ZINC59122457
REMARK  8 active torsions:
REMARK  status: ('A' for Active; 'I' for Inactive)
REMARK    1  A    between atoms: C_1  and  C_2
REMARK    2  A    between atoms: C_5  and  C_8
REMARK    3  A    between atoms: N_10  and  C_33
REMARK    4  A    between atoms: N_18  and  C_26
REMARK    5  A    between atoms: C_20  and  C_22
REMARK    6  A    between atoms: C_22  and  O_24
REMARK    7  A    between atoms: O_24  and  C_25
REMARK    8  A    between atoms: C_31  and  C_32
REMARK                            x       y       z     vdW  Elec       q    Type
REMARK                         _______ _______ _______ _____ _____    ______ ____
ROOT
ATOM      1  C   UNL     1      -0.109  -4.311  -0.293  0.00  0.00    +0.097 C 
ATOM      2  N   UNL     1      -0.161  -5.010  -1.399  0.00  0.00    -0.176 NA
ATOM      3  N   UNL     1      -0.027  -6.408  -1.350  0.00  0.00    -0.184 N 
ATOM      4  C   UNL     1       0.759  -7.015  -0.286  0.00  0.00    +0.221 C 
ATOM      5  C   UNL     1       0.522  -6.323   1.020  0.00  0.00    +0.017 A 
ATOM      6  C   UNL     1       0.101  -4.989   1.005  0.00  0.00    +0.010 A 
ATOM      7  C   UNL     1      -0.119  -4.321   2.206  0.00  0.00    +0.010 A 
ATOM      8  C   UNL     1       0.085  -4.978   3.403  0.00  0.00    +0.001 A 
ATOM      9  C   UNL     1       0.505  -6.296   3.410  0.00  0.00    +0.000 A 
ATOM     10  C   UNL     1       0.716  -6.967   2.222  0.00  0.00    +0.009 A 
ATOM     11  N   UNL     1       0.528  -8.462  -0.190  0.00  0.00    -0.183 N 
ATOM     12  N   UNL     1       1.638  -9.248  -0.430  0.00  0.00    -0.163 NA
ATOM     13  C   UNL     1       2.810  -8.751  -0.722  0.00  0.00    +0.203 C 
ATOM     14  S   UNL     1       2.541  -6.984  -0.710  0.00  0.00    -0.044 S 
ENDROOT
BRANCH   1  19
ATOM     15  C   UNL     1      -0.678   1.414  -0.483  0.00  0.00    +0.044 C 
ATOM     16  C   UNL     1      -0.529  -0.085  -0.434  0.00  0.00    -0.050 A 
ATOM     17  C   UNL     1      -1.234  -0.877  -1.323  0.00  0.00    +0.004 A 
ATOM     18  C   UNL     1      -1.102  -2.250  -1.282  0.00  0.00    +0.010 A 
ATOM     19  C   UNL     1      -0.255  -2.839  -0.343  0.00  0.00    +0.002 A 
ATOM     20  C   UNL     1       0.453  -2.034   0.551  0.00  0.00    +0.010 A 
ATOM     21  C   UNL     1       0.317  -0.662   0.497  0.00  0.00    +0.004 A 
ENDBRANCH   1  19
BRANCH  11  22
ATOM     22  C   UNL     1      -0.719  -9.003   0.122  0.00  0.00    +0.058 A 
ATOM     23  C   UNL     1      -1.642  -8.256   0.846  0.00  0.00    +0.025 A 
ATOM     24  C   UNL     1      -2.875  -8.794   1.152  0.00  0.00    +0.002 A 
ATOM     25  C   UNL     1      -3.194 -10.076   0.741  0.00  0.00    +0.000 A 
ATOM     26  C   UNL     1      -2.279 -10.823   0.021  0.00  0.00    +0.005 A 
ATOM     27  C   UNL     1      -1.045 -10.288  -0.295  0.00  0.00    -0.028 A 
ATOM     28  C   UNL     1      -0.051 -11.100  -1.085  0.00  0.00    +0.046 C 
ENDBRANCH  11  22
BRANCH   3  29
ATOM     29  C   UNL     1      -0.642  -7.208  -2.313  0.00  0.00    +0.055 A 
ATOM     30  C   UNL     1      -1.986  -7.021  -2.619  0.00  0.00    +0.025 A 
ATOM     31  C   UNL     1      -2.591  -7.815  -3.573  0.00  0.00    +0.002 A 
ATOM     32  C   UNL     1      -1.863  -8.794  -4.224  0.00  0.00    +0.000 A 
ATOM     33  C   UNL     1      -0.526  -8.982  -3.923  0.00  0.00    +0.002 A 
ATOM     34  C   UNL     1       0.088  -8.189  -2.974  0.00  0.00    +0.025 A 
ENDBRANCH   3  29
BRANCH  13  35
ATOM     35  C   UNL     1       4.057  -9.474  -0.997  0.00  0.00    +0.366 C 
ATOM     36  O   UNL     1       5.073  -8.859  -1.255  0.00  0.00    -0.243 OA
BRANCH  35  37
ATOM     37  O   UNL     1       4.076 -10.823  -0.963  0.00  0.00    -0.463 OA
ATOM     38  C   UNL     1       5.324 -11.462  -1.240  0.00  0.00    +0.280 C 
ENDBRANCH  35  37
ENDBRANCH  13  35
TORSDOF 5
