REMARK  Name = ZINC39992702
REMARK  10 active torsions:
REMARK  status: ('A' for Active; 'I' for Inactive)
REMARK    1  A    between atoms: C_1  and  C_2
REMARK    2  A    between atoms: C_4  and  C_10
REMARK    3  A    between atoms: C_6  and  C_9
REMARK    4  A    between atoms: C_7  and  O_8
REMARK    5  A    between atoms: C_11  and  C_12
REMARK    6  A    between atoms: C_11  and  C_14
REMARK    7  A    between atoms: N_16  and  C_17
REMARK    8  A    between atoms: C_18  and  C_26
REMARK    9  A    between atoms: N_28  and  C_29
REMARK   10  A    between atoms: C_29  and  C_30
REMARK                            x       y       z     vdW  Elec       q    Type
REMARK                         _______ _______ _______ _____ _____    ______ ____
ROOT
ATOM      1  C   UNL     1       0.494  -6.930  -4.949  0.00  0.00    +0.085 A 
ATOM      2  C   UNL     1       0.618  -8.297  -5.146  0.00  0.00    +0.069 A 
ATOM      3  C   UNL     1       0.715  -8.764  -6.518  0.00  0.00    -0.023 A 
ATOM      4  C   UNL     1       0.670  -7.779  -7.441  0.00  0.00    -0.004 A 
ATOM      5  S   UNL     1       0.496  -6.290  -6.502  0.00  0.00    -0.077 S 
ATOM      6  C   UNL     1       0.747  -7.936  -8.928  0.00  0.00    +0.043 C 
ATOM      7  C   UNL     1       1.263  -9.349  -9.238  0.00  0.00    +0.005 C 
ATOM      8  C   UNL     1       0.474 -10.360  -8.401  0.00  0.00    +0.005 C 
ATOM      9  C   UNL     1       0.855 -10.223  -6.925  0.00  0.00    +0.037 C 
ENDROOT
BRANCH   1  12
ATOM     10  C   UNL     1       0.266  -4.907  -3.742  0.00  0.00    +0.259 C 
ATOM     11  O   UNL     1       0.252  -4.293  -4.793  0.00  0.00    -0.269 OA
ATOM     12  N   UNL     1       0.386  -6.249  -3.748  0.00  0.00    -0.275 N 
ATOM     13  H   UNL     1       0.398  -6.738  -2.910  0.00  0.00    +0.156 HD
BRANCH  10  15
ATOM     14  C   UNL     1       0.029  -2.811  -2.461  0.00  0.00    +0.032 C 
ATOM     15  C   UNL     1       0.152  -4.184  -2.466  0.00  0.00    +0.114 C 
BRANCH  14  19
ATOM     16  C   UNL     1       1.620  -2.429   2.234  0.00  0.00    +0.047 C 
ATOM     17  C   UNL     1       0.831  -1.891   1.069  0.00  0.00    -0.008 A 
ATOM     18  C   UNL     1       0.800  -2.580  -0.111  0.00  0.00    +0.015 A 
ATOM     19  C   UNL     1       0.065  -2.078  -1.194  0.00  0.00    -0.023 A 
ATOM     20  C   UNL     1      -0.636  -0.871  -1.059  0.00  0.00    +0.015 A 
ATOM     21  C   UNL     1      -0.598  -0.191   0.125  0.00  0.00    -0.008 A 
ATOM     22  C   UNL     1       0.129  -0.697   1.198  0.00  0.00    +0.123 A 
ATOM     23  C   UNL     1      -1.350   1.107   0.272  0.00  0.00    +0.047 C 
BRANCH  22  24
ATOM     24  O   UNL     1       0.159  -0.020   2.373  0.00  0.00    -0.506 OA
ATOM     25  H   UNL     1       0.878   0.624   2.439  0.00  0.00    +0.292 HD
ENDBRANCH  22  24
ENDBRANCH  14  19
BRANCH  15  26
ATOM     26  C   UNL     1       0.169  -4.906  -1.230  0.00  0.00    +0.104 C 
ATOM     27  N   UNL     1       0.182  -5.479  -0.249  0.00  0.00    -0.191 NA
ENDBRANCH  15  26
ENDBRANCH  10  15
ENDBRANCH   1  12
BRANCH   2  28
ATOM     28  C   UNL     1       0.651  -9.231  -4.017  0.00  0.00    +0.247 C 
ATOM     29  O   UNL     1      -0.384  -9.709  -3.592  0.00  0.00    -0.270 OA
ATOM     30  N   UNL     1       1.829  -9.562  -3.450  0.00  0.00    -0.309 N 
ATOM     31  H   UNL     1       2.654  -9.181  -3.789  0.00  0.00    +0.149 HD
BRANCH  30  32
ATOM     32  C   UNL     1       1.862 -10.496  -2.322  0.00  0.00    +0.136 C 
BRANCH  32  33
ATOM     33  C   UNL     1       3.309 -10.698  -1.870  0.00  0.00    +0.135 C 
ATOM     34  C   UNL     1       3.370 -11.711  -0.698  0.00  0.00    +0.035 C 
ATOM     35  C   UNL     1       4.823 -12.241  -0.842  0.00  0.00    +0.031 C 
ATOM     36  C   UNL     1       5.031 -12.217  -2.372  0.00  0.00    +0.160 C 
ATOM     37  O   UNL     1       4.082 -11.294  -2.924  0.00  0.00    -0.375 OA
ENDBRANCH  32  33
ENDBRANCH  30  32
ENDBRANCH   2  28
TORSDOF 8
