REMARK  Name = ZINC15826007
REMARK  8 active torsions:
REMARK  status: ('A' for Active; 'I' for Inactive)
REMARK    1  A    between atoms: C_1  and  C_2
REMARK    2  A    between atoms: C_5  and  S_8
REMARK    3  A    between atoms: S_8  and  N_11
REMARK    4  A    between atoms: N_11  and  C_12
REMARK    5  A    between atoms: C_12  and  C_14
REMARK    6  A    between atoms: C_12  and  C_15
REMARK    7  A    between atoms: N_17  and  C_18
REMARK    8  A    between atoms: N_33  and  C_34
REMARK                            x       y       z     vdW  Elec       q    Type
REMARK                         _______ _______ _______ _____ _____    ______ ____
ROOT
ATOM      1  C   UNL     1      -1.418   6.184  -0.038  0.00  0.00    +0.236 C 
ATOM      2  O   UNL     1      -2.439   5.529  -0.034  0.00  0.00    -0.274 OA
ATOM      3  N   UNL     1      -0.223   5.567   0.046  0.00  0.00    -0.284 N 
ATOM      4  H   UNL     1       0.590   6.093   0.121  0.00  0.00    +0.155 HD
ENDROOT
BRANCH   3   5
ATOM      5  C   UNL     1      -0.153   4.169   0.027  0.00  0.00    +0.035 A 
ATOM      6  C   UNL     1       0.830   3.509   0.753  0.00  0.00    +0.025 A 
ATOM      7  C   UNL     1       0.903   2.131   0.729  0.00  0.00    +0.026 A 
ATOM      8  C   UNL     1      -0.010   1.386  -0.014  0.00  0.00    +0.050 A 
ATOM      9  C   UNL     1      -0.995   2.050  -0.738  0.00  0.00    +0.036 A 
ATOM     10  C   UNL     1      -1.065   3.435  -0.718  0.00  0.00    +0.040 A 
ATOM     11  S   UNL     1      -2.166   1.139  -1.689  0.00  0.00    -0.087 S 
ATOM     12  C   UNL     1      -2.989   0.142  -0.491  0.00  0.00    +0.025 A 
ATOM     13  C   UNL     1      -4.361   0.264  -0.314  0.00  0.00    +0.016 A 
ATOM     14  C   UNL     1      -5.010  -0.519   0.619  0.00  0.00    +0.001 A 
ATOM     15  C   UNL     1      -4.295  -1.429   1.381  0.00  0.00    +0.001 A 
ATOM     16  C   UNL     1      -2.935  -1.560   1.219  0.00  0.00    +0.014 A 
ATOM     17  C   UNL     1      -2.257  -0.772   0.278  0.00  0.00    +0.051 A 
ATOM     18  C   UNL     1      -0.812  -0.924   0.123  0.00  0.00    +0.252 C 
ATOM     19  O   UNL     1      -0.403  -2.069   0.114  0.00  0.00    -0.270 OA
ATOM     20  N   UNL     1       0.102   0.001  -0.007  0.00  0.00    -0.269 N 
ATOM     21  C   UNL     1       1.467  -0.505  -0.172  0.00  0.00    +0.138 C 
ENDBRANCH   3   5
BRANCH   1  22
ATOM     22  C   UNL     1      -1.486   7.686  -0.137  0.00  0.00    +0.159 C 
ATOM     23  C   UNL     1      -0.743   8.149  -1.391  0.00  0.00    +0.035 C 
BRANCH  22  24
ATOM     24  N   UNL     1      -2.887   8.107  -0.216  0.00  0.00    -0.178 NA
ATOM     25  H   UNL     1      -3.533   7.558  -0.689  0.00  0.00    +0.149 HD
BRANCH  24  26
ATOM     26  S   UNL     1      -3.369   9.521   0.500  0.00  0.00    +0.059 S 
ATOM     27  O   UNL     1      -4.756   9.662   0.227  0.00  0.00    -0.153 OA
ATOM     28  O   UNL     1      -2.850   9.503   1.823  0.00  0.00    -0.153 OA
BRANCH  26  33
ATOM     29  C   UNL     1      -0.578  14.025  -2.386  0.00  0.00    +0.044 C 
ATOM     30  C   UNL     1      -1.275  12.900  -1.665  0.00  0.00    -0.050 A 
ATOM     31  C   UNL     1      -2.510  12.460  -2.102  0.00  0.00    +0.005 A 
ATOM     32  C   UNL     1      -3.150  11.428  -1.441  0.00  0.00    +0.029 A 
ATOM     33  C   UNL     1      -2.554  10.836  -0.343  0.00  0.00    +0.105 A 
ATOM     34  C   UNL     1      -1.320  11.279   0.096  0.00  0.00    +0.029 A 
ATOM     35  C   UNL     1      -0.679  12.308  -0.568  0.00  0.00    +0.005 A 
ENDBRANCH  26  33
ENDBRANCH  24  26
ENDBRANCH  22  24
ENDBRANCH   1  22
TORSDOF 5
