REMARK  Name = ZINC39970713
REMARK  14 active torsions:
REMARK  status: ('A' for Active; 'I' for Inactive)
REMARK    1  A    between atoms: C_1  and  C_2
REMARK    2  A    between atoms: C_7  and  C_35
REMARK    3  A    between atoms: N_9  and  S_10
REMARK    4  A    between atoms: S_10  and  C_13
REMARK    5  A    between atoms: C_16  and  N_19
REMARK    6  A    between atoms: N_19  and  C_20
REMARK    7  A    between atoms: C_20  and  N_22
REMARK    8  A    between atoms: N_22  and  C_23
REMARK    9  A    between atoms: C_24  and  C_32
REMARK   10  A    between atoms: C_28  and  C_29
REMARK   11  A    between atoms: C_29  and  C_30
REMARK   12  A    between atoms: C_29  and  C_31
REMARK   13  A    between atoms: C_32  and  C_33
REMARK   14  A    between atoms: C_32  and  C_34
REMARK                            x       y       z     vdW  Elec       q    Type
REMARK                         _______ _______ _______ _____ _____    ______ ____
ROOT
ATOM      1  N   UNL     1      -2.825   1.764   7.039  0.00  0.00    -0.297 N 
ATOM      2  H   UNL     1      -2.626   2.712   7.090  0.00  0.00    +0.154 HD
ENDROOT
BRANCH   1   6
ATOM      3  C   UNL     1      -3.631   0.001   3.352  0.00  0.00    +0.106 A 
ATOM      4  C   UNL     1      -4.220   1.207   3.683  0.00  0.00    +0.030 A 
ATOM      5  C   UNL     1      -3.955   1.794   4.905  0.00  0.00    +0.025 A 
ATOM      6  C   UNL     1      -3.096   1.172   5.801  0.00  0.00    +0.033 A 
ATOM      7  C   UNL     1      -2.506  -0.040   5.466  0.00  0.00    +0.025 A 
ATOM      8  C   UNL     1      -2.779  -0.625   4.245  0.00  0.00    +0.030 A 
BRANCH   3   9
ATOM      9  S   UNL     1      -3.971  -0.745   1.792  0.00  0.00    +0.061 S 
ATOM     10  O   UNL     1      -2.971  -1.734   1.588  0.00  0.00    -0.153 OA
ATOM     11  O   UNL     1      -4.191   0.317   0.874  0.00  0.00    -0.153 OA
BRANCH   9  18
ATOM     12  C   UNL     1      -4.041  -3.378   2.829  0.00  0.00    +0.026 C 
ATOM     13  C   UNL     1      -5.463  -2.884   2.554  0.00  0.00    +0.077 C 
ATOM     14  C   UNL     1      -6.165  -3.848   1.592  0.00  0.00    +0.020 C 
ATOM     15  C   UNL     1      -7.533  -3.276   1.212  0.00  0.00    +0.003 C 
ATOM     16  C   UNL     1      -7.348  -1.934   0.501  0.00  0.00    +0.020 C 
ATOM     17  C   UNL     1      -6.659  -0.949   1.451  0.00  0.00    +0.077 C 
ATOM     18  N   UNL     1      -5.410  -1.551   1.938  0.00  0.00    -0.171 NA
ATOM     19  C   UNL     1      -7.580  -0.649   2.636  0.00  0.00    +0.026 C 
ENDBRANCH   9  18
ENDBRANCH   3   9
ENDBRANCH   1   6
BRANCH   1  20
ATOM     20  C   UNL     1      -2.841   1.018   8.161  0.00  0.00    +0.139 C 
ATOM     21  S   UNL     1      -3.088  -0.673   8.061  0.00  0.00    -0.018 S 
BRANCH  20  22
ATOM     22  N   UNL     1      -2.662   1.603   9.362  0.00  0.00    -0.296 N 
ATOM     23  H   UNL     1      -2.609   2.569   9.428  0.00  0.00    +0.154 HD
BRANCH  22  24
ATOM     24  C   UNL     1      -2.552   0.816  10.514  0.00  0.00    +0.040 A 
ATOM     25  C   UNL     1      -1.385   0.106  10.762  0.00  0.00    -0.023 A 
ATOM     26  C   UNL     1      -1.280  -0.670  11.900  0.00  0.00    +0.006 A 
ATOM     27  C   UNL     1      -2.335  -0.740  12.791  0.00  0.00    +0.001 A 
ATOM     28  C   UNL     1      -3.498  -0.034  12.546  0.00  0.00    +0.006 A 
ATOM     29  C   UNL     1      -3.608   0.749  11.414  0.00  0.00    -0.023 A 
BRANCH  29  30
ATOM     30  C   UNL     1      -4.873   1.523  11.151  0.00  0.00    +0.015 C 
ATOM     31  C   UNL     1      -6.053   0.554  11.052  0.00  0.00    +0.012 C 
ATOM     32  C   UNL     1      -5.117   2.507  12.297  0.00  0.00    +0.012 C 
ENDBRANCH  29  30
BRANCH  25  33
ATOM     33  C   UNL     1      -0.235   0.181   9.792  0.00  0.00    +0.015 C 
ATOM     34  C   UNL     1       1.000   0.736  10.505  0.00  0.00    +0.012 C 
ATOM     35  C   UNL     1       0.072  -1.219   9.256  0.00  0.00    +0.012 C 
ENDBRANCH  25  33
ENDBRANCH  22  24
ENDBRANCH  20  22
ENDBRANCH   1  20
TORSDOF 8
