REMARK  Name = ZINC46421766
REMARK  11 active torsions:
REMARK  status: ('A' for Active; 'I' for Inactive)
REMARK    1  A    between atoms: C_1  and  C_2
REMARK    2  A    between atoms: C_2  and  C_3
REMARK    3  A    between atoms: C_3  and  C_5
REMARK    4  A    between atoms: C_3  and  N_6
REMARK    5  A    between atoms: C_7  and  C_9
REMARK    6  A    between atoms: C_9  and  N_10
REMARK    7  A    between atoms: N_18  and  C_19
REMARK    8  A    between atoms: C_19  and  C_20
REMARK    9  A    between atoms: C_20  and  N_21
REMARK   10  A    between atoms: C_23  and  C_30
REMARK   11  A    between atoms: C_26  and  C_29
REMARK                            x       y       z     vdW  Elec       q    Type
REMARK                         _______ _______ _______ _____ _____    ______ ____
ROOT
ATOM      1  N   UNL     1       0.776   0.441   6.005  0.00  0.00    -0.291 NA
ATOM      2  C   UNL     1       1.334  -0.880   6.324  0.00  0.00    +0.104 C 
ATOM      3  C   UNL     1       2.414  -0.728   7.401  0.00  0.00    +0.124 C 
ATOM      4  N   UNL     1       1.836  -0.004   8.543  0.00  0.00    -0.283 N 
ATOM      5  C   UNL     1       1.138   1.264   8.283  0.00  0.00    +0.124 C 
ATOM      6  C   UNL     1       0.108   1.034   7.172  0.00  0.00    +0.104 C 
ATOM      7  C   UNL     1       1.944  -0.490   9.796  0.00  0.00    +0.302 C 
ATOM      8  O   UNL     1       2.440  -1.584   9.983  0.00  0.00    -0.253 OA
ATOM      9  N   UNL     1       1.501   0.237  10.841  0.00  0.00    -0.301 N 
ATOM     10  H   UNL     1       1.040   1.076  10.687  0.00  0.00    +0.150 HD
ENDROOT
BRANCH   1  11
ATOM     11  C   UNL     1      -0.139   0.363   4.858  0.00  0.00    +0.180 C 
BRANCH  11  13
ATOM     12  N   UNL     1      -0.001  -0.146   2.442  0.00  0.00    -0.312 N 
ATOM     13  C   UNL     1       0.636  -0.015   3.622  0.00  0.00    +0.227 C 
ATOM     14  O   UNL     1       1.832  -0.201   3.690  0.00  0.00    -0.274 OA
ATOM     15  H   UNL     1      -0.958   0.003   2.388  0.00  0.00    +0.149 HD
BRANCH  12  16
ATOM     16  C   UNL     1       0.752  -0.514   1.240  0.00  0.00    +0.070 C 
ATOM     17  C   UNL     1       0.888  -2.036   1.169  0.00  0.00    +0.028 C 
BRANCH  16  19
ATOM     18  C   UNL     1      -0.015   1.520   0.009  0.00  0.00    +0.005 C 
ATOM     19  C   UNL     1       0.012  -0.010  -0.000  0.00  0.00    +0.018 C 
ENDBRANCH  16  19
ENDBRANCH  12  16
ENDBRANCH  11  13
ENDBRANCH   1  11
BRANCH   9  20
ATOM     20  C   UNL     1       1.716  -0.241  12.209  0.00  0.00    +0.087 C 
BRANCH  20  21
ATOM     21  C   UNL     1       1.122   0.762  13.199  0.00  0.00    -0.060 C 
BRANCH  21  22
ATOM     22  N   UNL     1       1.337   0.283  14.571  0.00  0.00    +0.381 N 
ATOM     23  C   UNL     1       0.591  -0.965  14.774  0.00  0.00    -0.076 C 
ATOM     24  C   UNL     1       0.876  -1.511  16.175  0.00  0.00    -0.031 C 
ATOM     25  C   UNL     1       0.441  -0.478  17.218  0.00  0.00    +0.003 C 
ATOM     26  C   UNL     1       1.171   0.842  16.951  0.00  0.00    -0.031 C 
ATOM     27  C   UNL     1       0.874   1.301  15.522  0.00  0.00    -0.076 C 
ATOM     28  C   UNL     1       0.686   1.903  17.941  0.00  0.00    +0.005 C 
ATOM     29  C   UNL     1       2.374  -1.786  16.321  0.00  0.00    +0.005 C 
ATOM     30  H   UNL     1       2.321   0.111  14.716  0.00  0.00    -0.082 HD
ENDBRANCH  21  22
ENDBRANCH  20  21
ENDBRANCH   9  20
TORSDOF 7
