REMARK  Name = ZINC54799233
REMARK  4 active torsions:
REMARK  status: ('A' for Active; 'I' for Inactive)
REMARK    1  A    between atoms: C_7  and  C_13
REMARK    2  A    between atoms: C_13  and  O_15
REMARK    3  A    between atoms: O_15  and  C_16
REMARK    4  A    between atoms: C_21  and  N_22
REMARK                            x       y       z     vdW  Elec       q    Type
REMARK                         _______ _______ _______ _____ _____    ______ ____
ROOT
ATOM      1  C   UNL     1      -0.269   1.313   0.028  0.00  0.00    +0.000 A 
ATOM      2  C   UNL     1       0.879   2.084   0.045  0.00  0.00    +0.002 A 
ATOM      3  C   UNL     1       2.119   1.479   0.038  0.00  0.00    +0.023 A 
ATOM      4  C   UNL     1       2.215   0.093   0.007  0.00  0.00    +0.037 A 
ATOM      5  C   UNL     1       1.061  -0.678   0.007  0.00  0.00    -0.012 A 
ATOM      6  C   UNL     1      -0.177  -0.067   0.010  0.00  0.00    +0.006 A 
ATOM      7  C   UNL     1       1.158  -2.182   0.025  0.00  0.00    +0.138 C 
ATOM      8  C   UNL     1       2.397  -2.627  -0.752  0.00  0.00    +0.115 C 
ATOM      9  C   UNL     1       3.592  -1.827  -0.306  0.00  0.00    +0.218 C 
ATOM     10  O   UNL     1       4.676  -2.365  -0.216  0.00  0.00    -0.275 OA
ATOM     11  N   UNL     1       3.470  -0.522  -0.008  0.00  0.00    -0.285 N 
ATOM     12  H   UNL     1       4.262  -0.002   0.199  0.00  0.00    +0.155 HD
ENDROOT
BRANCH   7  13
ATOM     13  C   UNL     1       1.261  -2.661   1.450  0.00  0.00    +0.320 C 
ATOM     14  O   UNL     1       1.257  -1.863   2.357  0.00  0.00    -0.250 OA
BRANCH  13  15
ATOM     15  O   UNL     1       1.358  -3.975   1.711  0.00  0.00    -0.423 OA
BRANCH  15  16
ATOM     16  C   UNL     1       1.554  -4.356   3.000  0.00  0.00    +0.162 A 
ATOM     17  C   UNL     1       2.841  -4.560   3.477  0.00  0.00    +0.049 A 
ATOM     18  C   UNL     1       3.038  -4.948   4.788  0.00  0.00    +0.004 A 
ATOM     19  C   UNL     1       1.953  -5.133   5.625  0.00  0.00    +0.002 A 
ATOM     20  C   UNL     1       0.670  -4.930   5.153  0.00  0.00    +0.036 A 
ATOM     21  C   UNL     1       0.468  -4.537   3.844  0.00  0.00    +0.168 A 
BRANCH  21  22
ATOM     22  N   UNL     1      -0.906  -4.314   3.341  0.00  0.00    +0.060 N 
ATOM     23  O   UNL     1      -1.852  -4.471   4.077  0.00  0.00    -0.126 OA
ATOM     24  O   UNL     1      -1.082  -3.974   2.195  0.00  0.00    -0.126 OA
ENDBRANCH  21  22
ENDBRANCH  15  16
ENDBRANCH  13  15
ENDBRANCH   7  13
TORSDOF 4
