REMARK  Name = ZINC62834067
REMARK  2 active torsions:
REMARK  status: ('A' for Active; 'I' for Inactive)
REMARK    1  A    between atoms: C_6  and  N_7
REMARK    2  A    between atoms: C_9  and  C_12
REMARK                            x       y       z     vdW  Elec       q    Type
REMARK                         _______ _______ _______ _____ _____    ______ ____
ROOT
ATOM      1  C   UNL     1       0.020   1.356   0.643  0.00  0.00    +0.025 A 
ATOM      2  C   UNL     1       1.214   2.016   0.823  0.00  0.00    +0.028 A 
ATOM      3  C   UNL     1       2.411   1.399   0.472  0.00  0.00    +0.047 A 
ATOM      4  C   UNL     1       2.393   0.098  -0.066  0.00  0.00    +0.002 A 
ATOM      5  C   UNL     1       1.170  -0.563  -0.244  0.00  0.00    +0.032 A 
ATOM      6  C   UNL     1      -0.005   0.068   0.110  0.00  0.00    +0.025 A 
ATOM      7  C   UNL     1       3.737  -0.263  -0.323  0.00  0.00    +0.041 A 
ATOM      8  C   UNL     1       4.524   0.781   0.048  0.00  0.00    +0.103 A 
ATOM      9  N   UNL     1       3.728   1.799   0.534  0.00  0.00    -0.351 N 
ATOM     10  H   UNL     1       4.043   2.655   0.864  0.00  0.00    +0.166 HD
ENDROOT
BRANCH   8  11
ATOM     11  C   UNL     1       5.991   0.820  -0.052  0.00  0.00    +0.263 C 
ATOM     12  O   UNL     1       6.629  -0.215  -0.042  0.00  0.00    -0.268 OA
ATOM     13  N   UNL     1       6.628   2.004  -0.154  0.00  0.00    -0.286 N 
ATOM     14  C   UNL     1       8.093   2.076  -0.286  0.00  0.00    +0.127 C 
ATOM     15  C   UNL     1       8.419   2.743  -1.624  0.00  0.00    +0.123 C 
ATOM     16  N   UNL     1       7.613   3.941  -1.814  0.00  0.00    -0.313 N 
ATOM     17  C   UNL     1       6.458   4.183  -1.193  0.00  0.00    +0.230 C 
ATOM     18  O   UNL     1       5.837   5.181  -1.494  0.00  0.00    -0.274 OA
ATOM     19  C   UNL     1       5.888   3.274  -0.144  0.00  0.00    +0.203 C 
ATOM     20  H   UNL     1       7.940   4.610  -2.436  0.00  0.00    +0.149 HD
ENDBRANCH   8  11
BRANCH   6  21
ATOM     21  N   UNL     1      -1.229  -0.589  -0.066  0.00  0.00    -0.358 N 
ATOM     22  H   UNL     1      -2.056  -0.148   0.182  0.00  0.00    +0.142 HD
ATOM     23  H   UNL     1      -1.249  -1.486  -0.436  0.00  0.00    +0.142 HD
ENDBRANCH   6  21
TORSDOF 2
