REMARK  Name = ZINC63375039
REMARK  15 active torsions:
REMARK  status: ('A' for Active; 'I' for Inactive)
REMARK    1  A    between atoms: C_1  and  C_2
REMARK    2  A    between atoms: C_2  and  C_3
REMARK    3  A    between atoms: C_2  and  O_4
REMARK    4  A    between atoms: O_4  and  C_5
REMARK    5  A    between atoms: C_5  and  C_6
REMARK    6  A    between atoms: C_6  and  C_7
REMARK    7  A    between atoms: C_7  and  N_8
REMARK    8  A    between atoms: C_14  and  C_30
REMARK    9  A    between atoms: C_26  and  C_29
REMARK   10  A    between atoms: C_33  and  O_38
REMARK   11  A    between atoms: C_34  and  O_36
REMARK   12  A    between atoms: O_36  and  C_37
REMARK   13  A    between atoms: O_38  and  C_39
REMARK   14  A    between atoms: C_39  and  C_40
REMARK   15  A    between atoms: C_39  and  C_41
REMARK                            x       y       z     vdW  Elec       q    Type
REMARK                         _______ _______ _______ _____ _____    ______ ____
ROOT
ATOM      1  N   UNL     1       4.213  -0.701  -3.860  0.00  0.00    -0.291 N 
ATOM      2  C   UNL     1       4.488  -2.126  -3.926  0.00  0.00    +0.203 C 
ATOM      3  C   UNL     1       5.174  -2.510  -5.195  0.00  0.00    +0.234 C 
ATOM      4  O   UNL     1       5.453  -3.679  -5.351  0.00  0.00    -0.274 OA
ATOM      5  N   UNL     1       5.503  -1.658  -6.173  0.00  0.00    -0.283 N 
ATOM      6  C   UNL     1       6.215  -2.194  -7.350  0.00  0.00    +0.121 C 
ATOM      7  C   UNL     1       5.390  -1.907  -8.617  0.00  0.00    +0.065 C 
ATOM      8  C   UNL     1       4.962  -0.463  -8.537  0.00  0.00    -0.027 C 
ATOM      9  C   UNL     1       5.074   0.538  -9.401  0.00  0.00    -0.000 A 
ATOM     10  C   UNL     1       5.548   0.583 -10.793  0.00  0.00    +0.010 A 
ATOM     11  C   UNL     1       5.550   1.806 -11.387  0.00  0.00    +0.001 A 
ATOM     12  C   UNL     1       5.131   2.974 -10.742  0.00  0.00    +0.002 A 
ATOM     13  C   UNL     1       4.671   3.024  -9.467  0.00  0.00    +0.026 A 
ATOM     14  C   UNL     1       4.614   1.798  -8.742  0.00  0.00    +0.043 A 
ATOM     15  N   UNL     1       4.199   1.554  -7.533  0.00  0.00    -0.375 N 
ATOM     16  C   UNL     1       4.283   0.113  -7.300  0.00  0.00    +0.139 C 
ATOM     17  C   UNL     1       5.188  -0.230  -6.112  0.00  0.00    +0.135 C 
ATOM     18  C   UNL     1       4.517   0.153  -4.835  0.00  0.00    +0.242 C 
ATOM     19  O   UNL     1       4.234   1.322  -4.673  0.00  0.00    -0.273 OA
ATOM     20  C   UNL     1       6.487   0.569  -6.234  0.00  0.00    +0.044 C 
ATOM     21  H   UNL     1       3.888   2.216  -6.896  0.00  0.00    +0.160 HD
ENDROOT
BRANCH   7  22
ATOM     22  C   UNL     1       4.180  -2.804  -8.659  0.00  0.00    -0.035 A 
ATOM     23  C   UNL     1       3.242  -2.746  -7.644  0.00  0.00    +0.008 A 
ATOM     24  C   UNL     1       2.130  -3.567  -7.678  0.00  0.00    +0.050 A 
ATOM     25  C   UNL     1       1.953  -4.450  -8.730  0.00  0.00    +0.162 A 
ATOM     26  C   UNL     1       2.897  -4.509  -9.752  0.00  0.00    +0.162 A 
ATOM     27  C   UNL     1       4.006  -3.680  -9.714  0.00  0.00    +0.053 A 
BRANCH  26  28
ATOM     28  O   UNL     1       2.727  -5.375 -10.787  0.00  0.00    -0.491 OA
ATOM     29  C   UNL     1       3.735  -5.380 -11.799  0.00  0.00    +0.277 C 
ENDBRANCH  26  28
BRANCH  25  30
ATOM     30  O   UNL     1       0.860  -5.259  -8.764  0.00  0.00    -0.486 OA
BRANCH  30  31
ATOM     31  C   UNL     1      -0.003  -5.231  -7.626  0.00  0.00    +0.167 C 
ATOM     32  C   UNL     1      -0.998  -4.077  -7.769  0.00  0.00    +0.051 C 
ATOM     33  C   UNL     1      -0.767  -6.554  -7.533  0.00  0.00    +0.051 C 
ENDBRANCH  30  31
ENDBRANCH  25  30
ENDBRANCH   7  22
BRANCH   1  34
ATOM     34  C   UNL     1       3.559  -0.176  -2.658  0.00  0.00    +0.110 C 
BRANCH  34  35
ATOM     35  C   UNL     1       2.041  -0.222  -2.842  0.00  0.00    +0.047 C 
BRANCH  35  36
ATOM     36  C   UNL     1       1.358   0.326  -1.587  0.00  0.00    +0.161 C 
BRANCH  36  37
ATOM     37  O   UNL     1      -0.060   0.284  -1.759  0.00  0.00    -0.377 OA
BRANCH  37  39
ATOM     38  C   UNL     1      -1.030   2.279  -0.801  0.00  0.00    +0.037 C 
ATOM     39  C   UNL     1      -0.796   0.776  -0.638  0.00  0.00    +0.112 C 
ATOM     40  C   UNL     1      -2.144   0.056  -0.557  0.00  0.00    +0.037 C 
ENDBRANCH  37  39
ENDBRANCH  36  37
ENDBRANCH  35  36
ENDBRANCH  34  35
ENDBRANCH   1  34
TORSDOF 9
