REMARK  Name = ZINC16247294
REMARK  8 active torsions:
REMARK  status: ('A' for Active; 'I' for Inactive)
REMARK    1  A    between atoms: C_1  and  C_2
REMARK    2  A    between atoms: C_6  and  C_8
REMARK    3  A    between atoms: C_8  and  O_10
REMARK    4  A    between atoms: O_10  and  C_11
REMARK    5  A    between atoms: C_15  and  C_17
REMARK    6  A    between atoms: C_27  and  C_29
REMARK    7  A    between atoms: C_29  and  O_30
REMARK    8  A    between atoms: O_30  and  C_31
REMARK                            x       y       z     vdW  Elec       q    Type
REMARK                         _______ _______ _______ _____ _____    ______ ____
ROOT
ATOM      1  C   UNL     1      -7.269  -0.224  -0.814  0.00  0.00    +0.024 C 
ATOM      2  C   UNL     1      -6.270  -0.761  -0.055  0.00  0.00    +0.081 C 
ATOM      3  C   UNL     1      -5.106   0.051   0.400  0.00  0.00    +0.153 C 
ATOM      4  N   UNL     1      -5.187   1.324   0.680  0.00  0.00    -0.283 NA
ATOM      5  N   UNL     1      -3.907  -0.688   0.500  0.00  0.00    -0.152 N 
ATOM      6  C   UNL     1      -4.010  -2.056   0.636  0.00  0.00    +0.181 C 
ATOM      7  N   UNL     1      -5.100  -2.781   0.613  0.00  0.00    -0.152 NA
ATOM      8  C   UNL     1      -6.282  -2.187   0.361  0.00  0.00    +0.273 C 
ATOM      9  O   UNL     1      -7.331  -2.801   0.471  0.00  0.00    -0.268 OA
ATOM     10  S   UNL     1      -2.317  -2.537   0.850  0.00  0.00    -0.035 S 
ATOM     11  C   UNL     1      -1.589  -0.911   0.695  0.00  0.00    +0.137 C 
ATOM     12  N   UNL     1      -2.635  -0.156   0.522  0.00  0.00    -0.166 NA
ATOM     13  H   UNL     1      -4.399   1.807   0.974  0.00  0.00    +0.188 HD
ENDROOT
BRANCH   1  18
ATOM     14  C   UNL     1     -10.579  -1.467  -2.067  0.00  0.00    +0.133 A 
ATOM     15  C   UNL     1     -10.239  -2.745  -2.493  0.00  0.00    +0.046 A 
ATOM     16  C   UNL     1      -8.937  -3.198  -2.373  0.00  0.00    +0.004 A 
ATOM     17  C   UNL     1      -7.965  -2.382  -1.834  0.00  0.00    +0.008 A 
ATOM     18  C   UNL     1      -8.298  -1.094  -1.395  0.00  0.00    -0.021 A 
ATOM     19  C   UNL     1      -9.617  -0.640  -1.518  0.00  0.00    +0.054 A 
BRANCH  14  20
ATOM     20  O   UNL     1     -11.861  -1.030  -2.189  0.00  0.00    -0.422 OA
BRANCH  20  21
ATOM     21  C   UNL     1     -12.123  -0.178  -3.199  0.00  0.00    +0.344 C 
ATOM     22  O   UNL     1     -11.217   0.235  -3.896  0.00  0.00    -0.245 OA
BRANCH  21  28
ATOM     23  C   UNL     1     -15.384   2.488  -5.873  0.00  0.00    +0.044 C 
ATOM     24  C   UNL     1     -15.085   1.535  -4.745  0.00  0.00    -0.050 A 
ATOM     25  C   UNL     1     -16.114   1.062  -3.949  0.00  0.00    +0.003 A 
ATOM     26  C   UNL     1     -15.849   0.187  -2.911  0.00  0.00    +0.001 A 
ATOM     27  C   UNL     1     -14.554  -0.220  -2.662  0.00  0.00    +0.015 A 
ATOM     28  C   UNL     1     -13.511   0.253  -3.460  0.00  0.00    +0.060 A 
ATOM     29  C   UNL     1     -13.786   1.140  -4.503  0.00  0.00    +0.018 A 
ENDBRANCH  21  28
ENDBRANCH  20  21
ENDBRANCH  14  20
ENDBRANCH   1  18
BRANCH  11  30
ATOM     30  C   UNL     1      -0.136  -0.515   0.755  0.00  0.00    +0.293 C 
BRANCH  30  31
ATOM     31  O   UNL     1      -0.020   0.898   0.581  0.00  0.00    -0.485 OA
BRANCH  31  32
ATOM     32  C   UNL     1       1.233   1.422   0.609  0.00  0.00    +0.121 A 
ATOM     33  C   UNL     1       2.329   0.594   0.806  0.00  0.00    +0.045 A 
ATOM     34  C   UNL     1       3.602   1.128   0.829  0.00  0.00    +0.004 A 
ATOM     35  C   UNL     1       3.785   2.489   0.667  0.00  0.00    +0.000 A 
ATOM     36  C   UNL     1       2.695   3.318   0.476  0.00  0.00    +0.004 A 
ATOM     37  C   UNL     1       1.419   2.788   0.447  0.00  0.00    +0.045 A 
ENDBRANCH  31  32
ENDBRANCH  30  31
ENDBRANCH  11  30
TORSDOF 7
