REMARK  Name = ZINC23606037
REMARK  6 active torsions:
REMARK  status: ('A' for Active; 'I' for Inactive)
REMARK    1  A    between atoms: C_1  and  N_2
REMARK    2  A    between atoms: N_2  and  C_3
REMARK    3  A    between atoms: C_3  and  C_4
REMARK    4  A    between atoms: C_16  and  C_18
REMARK    5  A    between atoms: C_18  and  N_19
REMARK    6  A    between atoms: C_20  and  C_22
REMARK                            x       y       z     vdW  Elec       q    Type
REMARK                         _______ _______ _______ _____ _____    ______ ____
ROOT
ATOM      1  C   UNL     1       1.999   6.207  -1.254  0.00  0.00    +0.132 C 
ATOM      2  N   UNL     1       2.143   5.480   0.009  0.00  0.00    -0.296 N 
ATOM      3  C   UNL     1       2.034   6.137   1.181  0.00  0.00    +0.233 C 
ATOM      4  O   UNL     1       2.153   5.535   2.227  0.00  0.00    -0.274 OA
ENDROOT
BRANCH   2   5
ATOM      5  C   UNL     1       2.405   4.039  -0.001  0.00  0.00    +0.181 C 
BRANCH   5   6
ATOM      6  C   UNL     1       1.097   3.290   0.009  0.00  0.00    +0.128 A 
ATOM      7  N   UNL     1       1.132   1.932   0.002  0.00  0.00    -0.309 N 
ATOM      8  H   UNL     1       2.099   1.407  -0.010  0.00  0.00    +0.170 HD
ATOM      9  C   UNL     1      -0.014   1.213   0.009  0.00  0.00    +0.259 A 
ATOM     10  O   UNL     1       0.002  -0.004   0.002  0.00  0.00    -0.267 OA
ATOM     11  C   UNL     1      -1.281   1.960   0.019  0.00  0.00    +0.065 A 
ATOM     12  C   UNL     1      -2.517   1.315   0.033  0.00  0.00    +0.015 A 
ATOM     13  C   UNL     1      -3.673   2.064   0.048  0.00  0.00    +0.001 A 
ATOM     14  C   UNL     1      -3.615   3.452   0.055  0.00  0.00    +0.002 A 
ATOM     15  C   UNL     1      -2.405   4.108   0.047  0.00  0.00    +0.028 A 
ATOM     16  C   UNL     1      -1.219   3.371   0.032  0.00  0.00    +0.078 A 
ATOM     17  N   UNL     1      -0.005   3.976   0.023  0.00  0.00    -0.232 NA
ENDBRANCH   5   6
ENDBRANCH   2   5
BRANCH   3  18
ATOM     18  C   UNL     1       1.764   7.620   1.191  0.00  0.00    +0.200 C 
BRANCH  18  19
ATOM     19  N   UNL     1       1.691   8.093   2.576  0.00  0.00    -0.306 N 
ATOM     20  C   UNL     1       1.456   9.395   2.831  0.00  0.00    +0.220 C 
ATOM     21  O   UNL     1       1.306  10.175   1.915  0.00  0.00    -0.275 OA
ATOM     22  H   UNL     1       1.827   7.386   3.407  0.00  0.00    +0.149 HD
BRANCH  20  23
ATOM     23  C   UNL     1       1.381   9.882   4.255  0.00  0.00    +0.048 C 
ATOM     24  C   UNL     1       0.250   9.153   4.984  0.00  0.00    +0.019 C 
ATOM     25  C   UNL     1       0.173   9.648   6.430  0.00  0.00    -0.009 C 
ATOM     26  C   UNL     1      -0.100  11.153   6.440  0.00  0.00    +0.007 C 
ATOM     27  C   UNL     1       1.030  11.882   5.711  0.00  0.00    -0.009 C 
ATOM     28  C   UNL     1       1.107  11.388   4.266  0.00  0.00    +0.019 C 
ATOM     29  C   UNL     1       2.357  11.601   6.418  0.00  0.00    +0.007 C 
ATOM     30  C   UNL     1       2.631  10.095   6.407  0.00  0.00    -0.009 C 
ATOM     31  C   UNL     1       1.501   9.366   7.136  0.00  0.00    +0.007 C 
ATOM     32  C   UNL     1       2.708   9.601   4.962  0.00  0.00    +0.019 C 
ENDBRANCH  20  23
ENDBRANCH  18  19
ENDBRANCH   3  18
TORSDOF 5
