REMARK  Name = ZINC48547556
REMARK  10 active torsions:
REMARK  status: ('A' for Active; 'I' for Inactive)
REMARK    1  A    between atoms: C_1  and  C_2
REMARK    2  A    between atoms: C_5  and  S_8
REMARK    3  A    between atoms: S_8  and  N_11
REMARK    4  A    between atoms: N_11  and  N_12
REMARK    5  A    between atoms: C_13  and  C_15
REMARK    6  A    between atoms: C_15  and  N_26
REMARK    7  A    between atoms: C_16  and  C_17
REMARK    8  A    between atoms: C_21  and  N_23
REMARK    9  A    between atoms: C_27  and  C_29
REMARK   10  A    between atoms: C_32  and  N_35
REMARK                            x       y       z     vdW  Elec       q    Type
REMARK                         _______ _______ _______ _____ _____    ______ ____
ROOT
ATOM      1  C   UNL     1       4.272  -5.051   2.591  0.00  0.00    +0.098 C 
ATOM      2  C   UNL     1       4.102  -3.872   3.231  0.00  0.00    +0.036 C 
ENDROOT
BRANCH   2   3
ATOM      3  C   UNL     1       4.901  -3.561   4.426  0.00  0.00    -0.021 A 
ATOM      4  C   UNL     1       6.078  -4.270   4.689  0.00  0.00    +0.008 A 
ATOM      5  C   UNL     1       6.822  -3.973   5.811  0.00  0.00    +0.003 A 
ATOM      6  C   UNL     1       6.406  -2.976   6.677  0.00  0.00    +0.033 A 
ATOM      7  C   UNL     1       5.243  -2.271   6.425  0.00  0.00    +0.127 A 
ATOM      8  C   UNL     1       4.491  -2.552   5.303  0.00  0.00    +0.040 A 
BRANCH   7   9
ATOM      9  N   UNL     1       4.808  -1.207   7.358  0.00  0.00    +0.056 N 
ATOM     10  O   UNL     1       5.468  -0.956   8.338  0.00  0.00    -0.126 OA
ATOM     11  O   UNL     1       3.792  -0.590   7.138  0.00  0.00    -0.126 OA
ENDBRANCH   7   9
ENDBRANCH   2   3
BRANCH   1  13
ATOM     12  N   UNL     1       2.794  -4.352   0.778  0.00  0.00    -0.227 N 
ATOM     13  C   UNL     1       3.589  -5.300   1.313  0.00  0.00    +0.273 C 
ATOM     14  O   UNL     1       3.742  -6.361   0.738  0.00  0.00    -0.267 OA
ATOM     15  H   UNL     1       2.673  -3.506   1.237  0.00  0.00    +0.171 HD
BRANCH  12  16
ATOM     16  N   UNL     1       2.144  -4.588  -0.440  0.00  0.00    -0.108 NA
ATOM     17  H   UNL     1       2.657  -4.847  -1.222  0.00  0.00    +0.172 HD
BRANCH  16  18
ATOM     18  S   UNL     1       0.499  -4.425  -0.546  0.00  0.00    +0.074 S 
ATOM     19  O   UNL     1      -0.056  -5.242   0.476  0.00  0.00    -0.152 OA
ATOM     20  O   UNL     1       0.163  -4.586  -1.917  0.00  0.00    -0.152 OA
BRANCH  18  25
ATOM     21  C   UNL     1      -0.828   1.281   0.898  0.00  0.00    +0.044 C 
ATOM     22  C   UNL     1      -0.496  -0.144   0.537  0.00  0.00    -0.050 A 
ATOM     23  C   UNL     1      -0.238  -0.482  -0.778  0.00  0.00    +0.005 A 
ATOM     24  C   UNL     1       0.066  -1.790  -1.109  0.00  0.00    +0.029 A 
ATOM     25  C   UNL     1       0.113  -2.759  -0.124  0.00  0.00    +0.107 A 
ATOM     26  C   UNL     1      -0.145  -2.421   1.191  0.00  0.00    +0.029 A 
ATOM     27  C   UNL     1      -0.445  -1.113   1.522  0.00  0.00    +0.005 A 
ENDBRANCH  18  25
ENDBRANCH  16  18
ENDBRANCH  12  16
ENDBRANCH   1  13
BRANCH   1  28
ATOM     28  N   UNL     1       5.096  -6.035   3.146  0.00  0.00    -0.277 N 
ATOM     29  C   UNL     1       6.140  -6.516   2.441  0.00  0.00    +0.248 C 
ATOM     30  O   UNL     1       6.300  -6.176   1.284  0.00  0.00    -0.270 OA
ATOM     31  H   UNL     1       4.917  -6.371   4.038  0.00  0.00    +0.155 HD
BRANCH  29  32
ATOM     32  C   UNL     1       7.087  -7.454   3.072  0.00  0.00    +0.037 A 
ATOM     33  C   UNL     1       6.840  -7.937   4.361  0.00  0.00    +0.015 A 
ATOM     34  C   UNL     1       7.725  -8.812   4.947  0.00  0.00    +0.023 A 
ATOM     35  C   UNL     1       8.866  -9.216   4.259  0.00  0.00    +0.025 A 
ATOM     36  C   UNL     1       9.114  -8.737   2.976  0.00  0.00    +0.023 A 
ATOM     37  C   UNL     1       8.230  -7.866   2.382  0.00  0.00    +0.015 A 
BRANCH  35  38
ATOM     38  N   UNL     1       9.758 -10.101   4.854  0.00  0.00    -0.358 N 
ATOM     39  H   UNL     1       9.586 -10.435   5.748  0.00  0.00    +0.142 HD
ATOM     40  H   UNL     1      10.553 -10.383   4.375  0.00  0.00    +0.142 HD
ENDBRANCH  35  38
ENDBRANCH  29  32
ENDBRANCH   1  28
TORSDOF 9
