REMARK  Name = ZINC35919939
REMARK  7 active torsions:
REMARK  status: ('A' for Active; 'I' for Inactive)
REMARK    1  A    between atoms: C_1  and  C_2
REMARK    2  A    between atoms: C_2  and  N_3
REMARK    3  A    between atoms: N_3  and  C_4
REMARK    4  A    between atoms: N_14  and  C_17
REMARK    5  A    between atoms: N_26  and  S_28
REMARK    6  A    between atoms: S_28  and  C_31
REMARK    7  A    between atoms: C_35  and  C_37
REMARK                            x       y       z     vdW  Elec       q    Type
REMARK                         _______ _______ _______ _____ _____    ______ ____
ROOT
ATOM      1  N   UNL     1       0.706  -0.517   1.177  0.00  0.00    -0.318 N 
ATOM      2  C   UNL     1       0.167   0.787   1.573  0.00  0.00    +0.130 C 
ATOM      3  C   UNL     1       2.076  -0.715   1.135  0.00  0.00    +0.131 A 
ATOM      4  C   UNL     1       2.747  -1.268   2.233  0.00  0.00    +0.027 A 
ATOM      5  C   UNL     1       4.105  -1.455   2.151  0.00  0.00    +0.028 A 
ATOM      6  N   UNL     1       4.737  -1.091   1.036  0.00  0.00    -0.331 N 
ATOM      7  C   UNL     1       4.081  -0.569   0.014  0.00  0.00    +0.198 A 
ATOM      8  N   UNL     1       2.769  -0.388   0.050  0.00  0.00    -0.201 NA
ATOM      9  N   UNL     1       4.781  -0.208  -1.124  0.00  0.00    -0.298 N 
ATOM     10  C   UNL     1       6.212  -0.520  -1.253  0.00  0.00    +0.127 C 
ATOM     11  C   UNL     1       6.425  -1.317  -2.545  0.00  0.00    +0.124 C 
ATOM     12  N   UNL     1       5.751  -0.616  -3.647  0.00  0.00    -0.325 N 
ATOM     13  C   UNL     1       4.321  -0.303  -3.518  0.00  0.00    +0.124 C 
ATOM     14  C   UNL     1       4.106   0.489  -2.228  0.00  0.00    +0.127 C 
ATOM     15  C   UNL     1       4.914  -2.069   3.260  0.00  0.00    +0.071 C 
ATOM     16  C   UNL     1       4.166  -1.979   4.590  0.00  0.00    +0.116 C 
ATOM     17  N   UNL     1       2.782  -2.428   4.366  0.00  0.00    -0.172 NA
ATOM     18  C   UNL     1       1.951  -1.627   3.459  0.00  0.00    +0.149 C 
ATOM     19  H   UNL     1       5.697  -1.212   0.974  0.00  0.00    +0.168 HD
ENDROOT
BRANCH  12  20
ATOM     20  C   UNL     1       6.458  -0.251  -4.796  0.00  0.00    +0.065 A 
ATOM     21  C   UNL     1       6.530  -1.122  -5.875  0.00  0.00    +0.026 A 
ATOM     22  C   UNL     1       7.230  -0.759  -7.010  0.00  0.00    +0.002 A 
ATOM     23  C   UNL     1       7.858   0.471  -7.073  0.00  0.00    +0.003 A 
ATOM     24  C   UNL     1       7.790   1.343  -6.001  0.00  0.00    +0.040 A 
ATOM     25  C   UNL     1       7.087   0.988  -4.865  0.00  0.00    +0.144 A 
ATOM     26  F   UNL     1       7.015   1.842  -3.820  0.00  0.00    -0.204 F 
ENDBRANCH  12  20
BRANCH  17  27
ATOM     27  S   UNL     1       2.186  -3.784   5.107  0.00  0.00    +0.061 S 
ATOM     28  O   UNL     1       1.111  -4.248   4.302  0.00  0.00    -0.153 OA
ATOM     29  O   UNL     1       3.306  -4.599   5.425  0.00  0.00    -0.153 OA
BRANCH  27  30
ATOM     30  C   UNL     1       1.484  -3.273   6.640  0.00  0.00    +0.106 A 
ATOM     31  C   UNL     1       2.265  -3.236   7.780  0.00  0.00    +0.028 A 
ATOM     32  C   UNL     1       1.714  -2.836   8.983  0.00  0.00    +0.002 A 
ATOM     33  C   UNL     1       0.382  -2.472   9.046  0.00  0.00    +0.003 A 
ATOM     34  C   UNL     1      -0.399  -2.508   7.906  0.00  0.00    -0.049 A 
ATOM     35  C   UNL     1       0.153  -2.904   6.702  0.00  0.00    +0.032 A 
ATOM     36  C   UNL     1      -1.851  -2.111   7.975  0.00  0.00    +0.044 C 
ENDBRANCH  27  30
ENDBRANCH  17  27
BRANCH   1  38
ATOM     37  C   UNL     1      -0.502  -1.565  -0.673  0.00  0.00    +0.024 C 
ATOM     38  C   UNL     1      -0.203  -1.610   0.827  0.00  0.00    +0.103 C 
ENDBRANCH   1  38
TORSDOF 4
