REMARK  Name = ZINC32998059
REMARK  7 active torsions:
REMARK  status: ('A' for Active; 'I' for Inactive)
REMARK    1  A    between atoms: C_1  and  C_2
REMARK    2  A    between atoms: C_2  and  C_3
REMARK    3  A    between atoms: C_15  and  S_18
REMARK    4  A    between atoms: S_18  and  C_19
REMARK    5  A    between atoms: C_19  and  C_20
REMARK    6  A    between atoms: C_22  and  C_24
REMARK    7  A    between atoms: C_27  and  C_30
REMARK                            x       y       z     vdW  Elec       q    Type
REMARK                         _______ _______ _______ _____ _____    ______ ____
ROOT
ATOM      1  C   UNL     1      -0.006  -2.697   6.480  0.00  0.00    +0.223 C 
ATOM      2  O   UNL     1      -1.217  -2.726   6.542  0.00  0.00    -0.275 OA
ATOM      3  N   UNL     1       0.652  -1.541   6.691  0.00  0.00    -0.230 N 
ATOM      4  C   UNL     1       2.051  -1.492   6.622  0.00  0.00    +0.050 A 
ATOM      5  C   UNL     1       2.840  -2.110   7.574  0.00  0.00    +0.026 A 
ATOM      6  C   UNL     1       4.218  -2.026   7.489  0.00  0.00    +0.022 A 
ATOM      7  C   UNL     1       4.814  -1.324   6.454  0.00  0.00    +0.042 A 
ATOM      8  C   UNL     1       4.038  -0.709   5.489  0.00  0.00    +0.032 A 
ATOM      9  C   UNL     1       2.654  -0.794   5.560  0.00  0.00    +0.030 A 
ATOM     10  C   UNL     1       1.786  -0.169   4.540  0.00  0.00    +0.156 A 
ATOM     11  C   UNL     1       0.681   0.614   4.946  0.00  0.00    +0.248 A 
ATOM     12  N   UNL     1      -0.086   1.161   4.017  0.00  0.00    -0.184 NA
ATOM     13  C   UNL     1       0.198   0.954   2.735  0.00  0.00    +0.212 A 
ATOM     14  N   UNL     1       1.242   0.219   2.374  0.00  0.00    -0.122 NA
ATOM     15  N   UNL     1       2.017  -0.329   3.246  0.00  0.00    -0.141 NA
ATOM     16  O   UNL     1       0.431   0.797   6.264  0.00  0.00    -0.448 OA
ATOM     17  C   UNL     1      -0.077  -0.314   6.995  0.00  0.00    +0.303 C 
ATOM     18 CL   UNL     1       6.544  -1.218   6.368  0.00  0.00    -0.084 Cl
ENDROOT
BRANCH  17  19
ATOM     19  C   UNL     1       0.041  -0.027   8.469  0.00  0.00    +0.012 A 
ATOM     20  C   UNL     1       0.169   1.279   8.909  0.00  0.00    +0.010 A 
ATOM     21  C   UNL     1       0.272   1.549  10.258  0.00  0.00    +0.019 A 
ATOM     22  C   UNL     1       0.258   0.501  11.179  0.00  0.00    +0.052 A 
ATOM     23  C   UNL     1       0.134  -0.815  10.729  0.00  0.00    +0.019 A 
ATOM     24  C   UNL     1       0.026  -1.071   9.377  0.00  0.00    +0.010 A 
BRANCH  22  25
ATOM     25  C   UNL     1       0.370   0.773  12.581  0.00  0.00    +0.099 C 
ATOM     26  N   UNL     1       0.458   0.990  13.693  0.00  0.00    -0.191 NA
ENDBRANCH  22  25
ENDBRANCH  17  19
BRANCH   1  28
ATOM     27  C   UNL     1      -0.217  -5.116   5.974  0.00  0.00    +0.013 C 
ATOM     28  C   UNL     1       0.761  -3.956   6.167  0.00  0.00    +0.093 C 
ENDBRANCH   1  28
BRANCH  13  29
ATOM     29  S   UNL     1      -0.825   1.673   1.494  0.00  0.00    -0.085 S 
BRANCH  29  30
ATOM     30  C   UNL     1       0.018   1.079   0.007  0.00  0.00    +0.074 C 
ATOM     31  C   UNL     1      -0.713   1.593  -1.235  0.00  0.00    +0.016 C 
ENDBRANCH  29  30
ENDBRANCH  13  29
TORSDOF 5
