REMARK  Name = ZINC22783491
REMARK  8 active torsions:
REMARK  status: ('A' for Active; 'I' for Inactive)
REMARK    1  A    between atoms: C_1  and  C_2
REMARK    2  A    between atoms: C_2  and  C_3
REMARK    3  A    between atoms: C_8  and  O_34
REMARK    4  A    between atoms: C_9  and  C_11
REMARK    5  A    between atoms: C_11  and  C_13
REMARK    6  A    between atoms: C_11  and  N_21
REMARK    7  A    between atoms: N_24  and  C_27
REMARK    8  A    between atoms: C_27  and  C_28
REMARK                            x       y       z     vdW  Elec       q    Type
REMARK                         _______ _______ _______ _____ _____    ______ ____
ROOT
ATOM      1  C   UNL     1      -6.961  -2.571  -0.749  0.00  0.00    +0.131 C 
ENDROOT
BRANCH   1   8
ATOM      2  C   UNL     1      -1.412  -0.526   0.013  0.00  0.00    +0.152 A 
ATOM      3  N   UNL     1      -2.127  -0.793   1.104  0.00  0.00    -0.205 NA
ATOM      4  C   UNL     1      -3.306  -1.227   0.751  0.00  0.00    +0.199 A 
ATOM      5  N   UNL     1      -3.395  -1.255  -0.607  0.00  0.00    -0.173 N 
ATOM      6  N   UNL     1      -2.131  -0.782  -1.047  0.00  0.00    -0.147 NA
ATOM      7  C   UNL     1      -4.579  -1.691  -1.151  0.00  0.00    +0.228 A 
ATOM      8  C   UNL     1      -5.593  -2.068  -0.364  0.00  0.00    +0.076 A 
ATOM      9  S   UNL     1      -4.901  -1.817   1.264  0.00  0.00    -0.047 S 
BRANCH   2  11
ATOM     10  C   UNL     1      -0.019   1.526   0.010  0.00  0.00    +0.012 C 
ATOM     11  C   UNL     1       0.002  -0.004   0.002  0.00  0.00    +0.075 C 
ENDBRANCH   2  11
BRANCH   7  12
ATOM     12  O   UNL     1      -4.722  -1.740  -2.503  0.00  0.00    -0.492 OA
ATOM     13  H   UNL     1      -3.939  -1.449  -2.992  0.00  0.00    +0.294 HD
ENDBRANCH   7  12
ENDBRANCH   1   8
BRANCH   1  14
ATOM     14  C   UNL     1      -7.114  -4.002  -0.301  0.00  0.00    -0.007 A 
ATOM     15  C   UNL     1      -7.810  -4.292   0.857  0.00  0.00    +0.008 A 
ATOM     16  C   UNL     1      -7.951  -5.604   1.268  0.00  0.00    +0.020 A 
ATOM     17  C   UNL     1      -7.397  -6.628   0.520  0.00  0.00    +0.042 A 
ATOM     18  C   UNL     1      -6.702  -6.337  -0.640  0.00  0.00    +0.040 A 
ATOM     19  C   UNL     1      -6.565  -5.024  -1.054  0.00  0.00    +0.047 A 
ATOM     20 CL   UNL     1      -5.697  -4.659  -2.512  0.00  0.00    -0.083 Cl
ATOM     21 CL   UNL     1      -7.574  -8.275   1.036  0.00  0.00    -0.083 Cl
ENDBRANCH   1  14
BRANCH   1  22
ATOM     22  N   UNL     1      -7.987  -1.742  -0.102  0.00  0.00    -0.295 NA
ATOM     23  C   UNL     1      -9.334  -2.257  -0.385  0.00  0.00    +0.067 C 
ATOM     24  C   UNL     1     -10.368  -1.404   0.354  0.00  0.00    -0.063 C 
ATOM     25  N   UNL     1     -10.256  -0.008  -0.087  0.00  0.00    +0.384 N 
ATOM     26  C   UNL     1      -8.914   0.500   0.224  0.00  0.00    -0.063 C 
ATOM     27  C   UNL     1      -7.868  -0.337  -0.516  0.00  0.00    +0.067 C 
ATOM     28  H   UNL     1     -10.413   0.044  -1.083  0.00  0.00    -0.081 HD
BRANCH  25  29
ATOM     29  C   UNL     1     -11.261   0.807   0.609  0.00  0.00    -0.043 C 
BRANCH  29  30
ATOM     30  C   UNL     1     -11.229   2.214   0.068  0.00  0.00    -0.064 A 
ATOM     31  C   UNL     1     -10.396   3.156   0.641  0.00  0.00    +0.002 A 
ATOM     32  C   UNL     1     -10.367   4.446   0.145  0.00  0.00    +0.000 A 
ATOM     33  C   UNL     1     -11.171   4.793  -0.925  0.00  0.00    +0.000 A 
ATOM     34  C   UNL     1     -12.003   3.851  -1.499  0.00  0.00    +0.000 A 
ATOM     35  C   UNL     1     -12.029   2.560  -1.006  0.00  0.00    +0.002 A 
ENDBRANCH  29  30
ENDBRANCH  25  29
ENDBRANCH   1  22
TORSDOF 7
