REMARK  Name = ZINC02110874
REMARK  5 active torsions:
REMARK  status: ('A' for Active; 'I' for Inactive)
REMARK    1  A    between atoms: C_1  and  C_2
REMARK    2  A    between atoms: C_5  and  N_8
REMARK    3  A    between atoms: C_9  and  C_11
REMARK    4  A    between atoms: C_14  and  N_17
REMARK    5  A    between atoms: C_20  and  C_36
REMARK                            x       y       z     vdW  Elec       q    Type
REMARK                         _______ _______ _______ _____ _____    ______ ____
ROOT
ATOM      1  N   UNL     1       2.548 -10.308   0.591  0.00  0.00    -0.192 N 
ATOM      2  C   UNL     1       3.526 -11.057   1.145  0.00  0.00    +0.257 C 
ATOM      3  O   UNL     1       4.483 -10.663   1.777  0.00  0.00    -0.272 OA
ATOM      4  C   UNL     1       3.175 -12.488   0.814  0.00  0.00    +0.153 C 
ATOM      5  C   UNL     1       3.030 -13.327   2.062  0.00  0.00    +0.053 A 
ATOM      6  C   UNL     1       1.913 -14.035   2.345  0.00  0.00    -0.015 A 
ATOM      7  C   UNL     1       2.163 -14.714   3.604  0.00  0.00    +0.003 A 
ATOM      8  C   UNL     1       1.387 -15.584   4.377  0.00  0.00    +0.010 A 
ATOM      9  C   UNL     1       1.949 -16.047   5.541  0.00  0.00    +0.001 A 
ATOM     10  C   UNL     1       3.222 -15.678   5.941  0.00  0.00    +0.002 A 
ATOM     11  C   UNL     1       4.012 -14.821   5.195  0.00  0.00    +0.026 A 
ATOM     12  C   UNL     1       3.468 -14.335   4.007  0.00  0.00    +0.047 A 
ATOM     13  N   UNL     1       3.960 -13.494   3.051  0.00  0.00    -0.356 N 
ATOM     14  H   UNL     1       4.836 -13.079   3.070  0.00  0.00    +0.166 HD
ATOM     15  C   UNL     1       0.652 -14.084   1.520  0.00  0.00    +0.056 C 
ATOM     16  C   UNL     1       0.911 -13.519   0.116  0.00  0.00    +0.115 C 
ATOM     17  N   UNL     1       1.807 -12.369   0.257  0.00  0.00    -0.265 N 
ATOM     18  C   UNL     1       1.593 -11.073   0.036  0.00  0.00    +0.317 C 
ATOM     19  O   UNL     1       0.651 -10.636  -0.595  0.00  0.00    -0.252 OA
ATOM     20  C   UNL     1       4.156 -13.101  -0.188  0.00  0.00    +0.048 C 
ENDROOT
BRANCH   1  24
ATOM     21  C   UNL     1       2.490  -6.140   0.615  0.00  0.00    +0.037 A 
ATOM     22  C   UNL     1       1.391  -6.852   0.129  0.00  0.00    +0.015 A 
ATOM     23  C   UNL     1       1.414  -8.229   0.122  0.00  0.00    +0.025 A 
ATOM     24  C   UNL     1       2.529  -8.910   0.599  0.00  0.00    +0.046 A 
ATOM     25  C   UNL     1       3.624  -8.204   1.084  0.00  0.00    +0.025 A 
ATOM     26  C   UNL     1       3.611  -6.827   1.088  0.00  0.00    +0.015 A 
BRANCH  21  28
ATOM     27  N   UNL     1       1.389  -4.002   0.166  0.00  0.00    -0.308 N 
ATOM     28  C   UNL     1       2.470  -4.663   0.623  0.00  0.00    +0.244 C 
ATOM     29  O   UNL     1       3.429  -4.045   1.042  0.00  0.00    -0.270 OA
ATOM     30  H   UNL     1       0.623  -4.495  -0.168  0.00  0.00    +0.149 HD
BRANCH  27  35
ATOM     31  C   UNL     1      -0.099   1.522   0.491  0.00  0.00    +0.007 C 
ATOM     32  C   UNL     1      -0.078  -0.008   0.482  0.00  0.00    -0.014 C 
ATOM     33  C   UNL     1       0.380  -0.504  -0.890  0.00  0.00    +0.005 C 
ATOM     34  C   UNL     1       0.401  -2.034  -0.899  0.00  0.00    +0.022 C 
ATOM     35  C   UNL     1       1.369  -2.537   0.174  0.00  0.00    +0.073 C 
ATOM     36  C   UNL     1       0.910  -2.041   1.547  0.00  0.00    +0.022 C 
ATOM     37  C   UNL     1       0.890  -0.511   1.556  0.00  0.00    +0.005 C 
ENDBRANCH  27  35
ENDBRANCH  21  28
ENDBRANCH   1  24
TORSDOF 3
