REMARK  Name = ZINC03880362
REMARK  15 active torsions:
REMARK  status: ('A' for Active; 'I' for Inactive)
REMARK    1  A    between atoms: C_1  and  C_2
REMARK    2  A    between atoms: C_2  and  N_3
REMARK    3  A    between atoms: N_3  and  C_4
REMARK    4  A    between atoms: N_3  and  C_6
REMARK    5  A    between atoms: C_4  and  C_5
REMARK    6  A    between atoms: C_6  and  C_7
REMARK    7  A    between atoms: C_7  and  O_8
REMARK    8  A    between atoms: O_8  and  C_9
REMARK    9  A    between atoms: C_9  and  C_11
REMARK   10  A    between atoms: C_14  and  N_17
REMARK   11  A    between atoms: N_17  and  C_18
REMARK   12  A    between atoms: N_25  and  C_28
REMARK   13  A    between atoms: C_29  and  C_36
REMARK   14  A    between atoms: C_31  and  C_35
REMARK   15  A    between atoms: C_33  and  C_34
REMARK                            x       y       z     vdW  Elec       q    Type
REMARK                         _______ _______ _______ _____ _____    ______ ____
ROOT
ATOM      1  C   UNL     1      -6.226   0.558  -8.080  0.00  0.00    +0.090 C 
ATOM      2  C   UNL     1      -6.728   1.050  -9.270  0.00  0.00    +0.113 C 
ATOM      3  C   UNL     1      -8.171   1.018  -9.568  0.00  0.00    +0.258 C 
ATOM      4  O   UNL     1      -8.964   0.554  -8.770  0.00  0.00    -0.270 OA
ATOM      5  N   UNL     1      -8.589   1.517 -10.750  0.00  0.00    -0.235 N 
ATOM      6  C   UNL     1      -7.727   2.031 -11.638  0.00  0.00    +0.320 C 
ATOM      7  O   UNL     1      -8.169   2.464 -12.684  0.00  0.00    -0.251 OA
ATOM      8  N   UNL     1      -6.404   2.092 -11.433  0.00  0.00    -0.189 N 
ATOM      9  C   UNL     1      -5.844   1.637 -10.294  0.00  0.00    +0.265 C 
ATOM     10  O   UNL     1      -4.642   1.703 -10.118  0.00  0.00    -0.269 OA
ATOM     11  H   UNL     1      -9.536   1.503 -10.961  0.00  0.00    +0.159 HD
ENDROOT
BRANCH   8  12
ATOM     12  C   UNL     1      -5.583   2.649 -12.424  0.00  0.00    +0.052 A 
ATOM     13  C   UNL     1      -5.053   1.842 -13.421  0.00  0.00    -0.028 A 
ATOM     14  C   UNL     1      -4.244   2.393 -14.396  0.00  0.00    +0.008 A 
ATOM     15  C   UNL     1      -3.963   3.747 -14.380  0.00  0.00    -0.050 A 
ATOM     16  C   UNL     1      -4.491   4.553 -13.388  0.00  0.00    +0.008 A 
ATOM     17  C   UNL     1      -5.304   4.009 -12.414  0.00  0.00    -0.028 A 
ATOM     18  C   UNL     1      -5.884   4.889 -11.336  0.00  0.00    +0.046 C 
ATOM     19  C   UNL     1      -3.081   4.345 -15.445  0.00  0.00    +0.044 C 
ATOM     20  C   UNL     1      -5.357   0.366 -13.440  0.00  0.00    +0.046 C 
ENDBRANCH   8  12
BRANCH   1  21
ATOM     21  N   UNL     1      -4.922   0.730  -7.775  0.00  0.00    -0.320 N 
ATOM     22  H   UNL     1      -4.356   1.270  -8.349  0.00  0.00    +0.152 HD
BRANCH  21  26
ATOM     23  C   UNL     1      -3.327  -1.059  -4.370  0.00  0.00    +0.059 A 
ATOM     24  C   UNL     1      -2.513  -0.279  -5.198  0.00  0.00    +0.017 A 
ATOM     25  C   UNL     1      -3.044   0.310  -6.323  0.00  0.00    +0.024 A 
ATOM     26  C   UNL     1      -4.388   0.132  -6.636  0.00  0.00    +0.031 A 
ATOM     27  C   UNL     1      -5.201  -0.643  -5.813  0.00  0.00    +0.024 A 
ATOM     28  C   UNL     1      -4.675  -1.240  -4.690  0.00  0.00    +0.017 A 
BRANCH  23  29
ATOM     29  C   UNL     1      -2.762  -1.692  -3.164  0.00  0.00    +0.339 C 
ATOM     30  O   UNL     1      -3.468  -2.373  -2.447  0.00  0.00    -0.245 OA
BRANCH  29  31
ATOM     31  O   UNL     1      -1.462  -1.516  -2.856  0.00  0.00    -0.463 OA
BRANCH  31  32
ATOM     32  C   UNL     1      -0.982  -2.160  -1.674  0.00  0.00    +0.214 C 
BRANCH  32  33
ATOM     33  C   UNL     1       0.505  -1.847  -1.491  0.00  0.00    -0.037 C 
BRANCH  33  34
ATOM     34  N   UNL     1       0.676  -0.408  -1.248  0.00  0.00    +0.382 N 
ATOM     35  H   UNL     1       0.245   0.113  -1.996  0.00  0.00    -0.082 HD
BRANCH  34  37
ATOM     36  C   UNL     1       0.100   1.469   0.216  0.00  0.00    -0.017 C 
ATOM     37  C   UNL     1       0.043  -0.049   0.029  0.00  0.00    -0.082 C 
ENDBRANCH  34  37
BRANCH  34  38
ATOM     38  C   UNL     1       2.109  -0.088  -1.191  0.00  0.00    -0.082 C 
ATOM     39  C   UNL     1       2.740  -0.329  -2.564  0.00  0.00    -0.017 C 
ENDBRANCH  34  38
ENDBRANCH  33  34
ENDBRANCH  32  33
ENDBRANCH  31  32
ENDBRANCH  29  31
ENDBRANCH  23  29
ENDBRANCH  21  26
ENDBRANCH   1  21
TORSDOF 10
