REMARK  Name = ZINC01167712
REMARK  6 active torsions:
REMARK  status: ('A' for Active; 'I' for Inactive)
REMARK    1  A    between atoms: C_3  and  N_29
REMARK    2  A    between atoms: C_6  and  C_7
REMARK    3  A    between atoms: N_9  and  C_10
REMARK    4  A    between atoms: C_11  and  C_19
REMARK    5  A    between atoms: N_21  and  C_22
REMARK    6  A    between atoms: C_22  and  C_23
REMARK                            x       y       z     vdW  Elec       q    Type
REMARK                         _______ _______ _______ _____ _____    ______ ____
ROOT
ATOM      1  C   UNL     1      -0.340   6.402  -2.781  0.00  0.00    +0.085 A 
ATOM      2  C   UNL     1      -1.364   5.665  -2.202  0.00  0.00    +0.069 A 
ATOM      3  C   UNL     1      -2.447   6.400  -1.573  0.00  0.00    -0.023 A 
ATOM      4  C   UNL     1      -2.338   7.745  -1.629  0.00  0.00    -0.004 A 
ATOM      5  S   UNL     1      -0.825   8.041  -2.499  0.00  0.00    -0.077 S 
ATOM      6  C   UNL     1      -3.296   8.753  -1.072  0.00  0.00    +0.043 C 
ATOM      7  C   UNL     1      -4.617   8.039  -0.752  0.00  0.00    +0.005 C 
ATOM      8  C   UNL     1      -4.309   6.758   0.030  0.00  0.00    +0.005 C 
ATOM      9  C   UNL     1      -3.637   5.737  -0.889  0.00  0.00    +0.037 C 
ENDROOT
BRANCH   1  12
ATOM     10  C   UNL     1       1.686   6.814  -3.934  0.00  0.00    +0.249 C 
ATOM     11  O   UNL     1       1.497   8.009  -3.819  0.00  0.00    -0.270 OA
ATOM     12  N   UNL     1       0.793   5.939  -3.430  0.00  0.00    -0.275 N 
ATOM     13  H   UNL     1       0.944   4.985  -3.522  0.00  0.00    +0.156 HD
BRANCH  10  19
ATOM     14  C   UNL     1       3.118   4.948  -4.755  0.00  0.00    +0.015 A 
ATOM     15  C   UNL     1       4.246   4.494  -5.406  0.00  0.00    +0.033 A 
ATOM     16  C   UNL     1       5.160   5.395  -5.923  0.00  0.00    +0.126 A 
ATOM     17  C   UNL     1       4.948   6.756  -5.794  0.00  0.00    +0.033 A 
ATOM     18  C   UNL     1       3.821   7.224  -5.149  0.00  0.00    +0.015 A 
ATOM     19  C   UNL     1       2.895   6.320  -4.626  0.00  0.00    +0.037 A 
BRANCH  16  20
ATOM     20  N   UNL     1       6.371   4.900  -6.616  0.00  0.00    +0.056 N 
ATOM     21  O   UNL     1       7.178   5.691  -7.071  0.00  0.00    -0.126 OA
ATOM     22  O   UNL     1       6.561   3.703  -6.730  0.00  0.00    -0.126 OA
ENDBRANCH  16  20
ENDBRANCH  10  19
ENDBRANCH   1  12
BRANCH   2  23
ATOM     23  C   UNL     1      -1.349   4.199  -2.219  0.00  0.00    +0.247 C 
ATOM     24  O   UNL     1      -1.870   3.595  -3.139  0.00  0.00    -0.270 OA
ATOM     25  N   UNL     1      -0.759   3.519  -1.216  0.00  0.00    -0.309 N 
ATOM     26  H   UNL     1      -0.344   4.000  -0.483  0.00  0.00    +0.149 HD
BRANCH  25  27
ATOM     27  C   UNL     1      -0.745   2.054  -1.233  0.00  0.00    +0.136 C 
BRANCH  27  28
ATOM     28  C   UNL     1      -0.019   1.537   0.011  0.00  0.00    +0.135 C 
ATOM     29  C   UNL     1       0.002  -0.004   0.002  0.00  0.00    +0.035 C 
ATOM     30  C   UNL     1       1.508  -0.363   0.039  0.00  0.00    +0.031 C 
ATOM     31  C   UNL     1       2.138   0.935   0.603  0.00  0.00    +0.160 C 
ATOM     32  O   UNL     1       1.348   1.983  -0.000  0.00  0.00    -0.375 OA
ENDBRANCH  27  28
ENDBRANCH  25  27
ENDBRANCH   2  23
TORSDOF 6
