REMARK  Name = ZINC40066437
REMARK  11 active torsions:
REMARK  status: ('A' for Active; 'I' for Inactive)
REMARK    1  A    between atoms: C_1  and  C_2
REMARK    2  A    between atoms: C_2  and  N_3
REMARK    3  A    between atoms: C_4  and  N_30
REMARK    4  A    between atoms: C_5  and  C_13
REMARK    5  A    between atoms: C_6  and  C_12
REMARK    6  A    between atoms: C_7  and  C_10
REMARK    7  A    between atoms: N_17  and  C_21
REMARK    8  A    between atoms: C_21  and  C_23
REMARK    9  A    between atoms: C_21  and  C_24
REMARK   10  A    between atoms: N_30  and  C_31
REMARK   11  A    between atoms: C_31  and  C_32
REMARK                            x       y       z     vdW  Elec       q    Type
REMARK                         _______ _______ _______ _____ _____    ______ ____
ROOT
ATOM      1  N   UNL     1       0.202  -2.309   1.315  0.00  0.00    -0.296 N 
ATOM      2  C   UNL     1      -0.228  -2.008   2.567  0.00  0.00    +0.109 A 
ATOM      3  C   UNL     1      -1.341  -2.666   3.117  0.00  0.00    +0.019 A 
ATOM      4  C   UNL     1      -2.010  -3.642   2.360  0.00  0.00    -0.017 A 
ATOM      5  C   UNL     1      -1.550  -3.932   1.078  0.00  0.00    +0.120 A 
ATOM      6  C   UNL     1      -0.425  -3.235   0.567  0.00  0.00    +0.270 A 
ATOM      7  O   UNL     1      -0.021  -3.481  -0.556  0.00  0.00    -0.266 OA
ATOM      8  C   UNL     1      -3.206  -4.363   2.925  0.00  0.00    +0.046 C 
ENDROOT
BRANCH   3   9
ATOM      9  C   UNL     1      -1.798  -2.338   4.468  0.00  0.00    +0.032 C 
ATOM     10  C   UNL     1      -2.123  -1.055   4.784  0.00  0.00    +0.077 C 
ATOM     11  C   UNL     1      -2.743  -0.538   5.962  0.00  0.00    +0.259 C 
ATOM     12  O   UNL     1      -3.066  -1.276   6.876  0.00  0.00    -0.269 OA
ATOM     13  N   UNL     1      -2.956   0.764   6.031  0.00  0.00    -0.248 N 
ATOM     14  C   UNL     1      -2.597   1.583   5.017  0.00  0.00    +0.121 C 
ATOM     15  S   UNL     1      -2.775   3.281   4.894  0.00  0.00    -0.027 S 
ATOM     16  S   UNL     1      -1.883   0.444   3.840  0.00  0.00    -0.061 S 
BRANCH  13  17
ATOM     17  C   UNL     1      -3.590   1.330   7.225  0.00  0.00    +0.110 C 
ATOM     18  C   UNL     1      -2.969   2.694   7.534  0.00  0.00    +0.033 C 
BRANCH  17  19
ATOM     19  C   UNL     1      -5.067   1.494   6.979  0.00  0.00    -0.027 A 
ATOM     20  C   UNL     1      -5.514   2.027   5.784  0.00  0.00    +0.005 A 
ATOM     21  C   UNL     1      -6.869   2.178   5.558  0.00  0.00    +0.000 A 
ATOM     22  C   UNL     1      -7.778   1.796   6.527  0.00  0.00    +0.000 A 
ATOM     23  C   UNL     1      -7.332   1.262   7.721  0.00  0.00    +0.000 A 
ATOM     24  C   UNL     1      -5.976   1.108   7.946  0.00  0.00    +0.005 A 
ENDBRANCH  17  19
ENDBRANCH  13  17
ENDBRANCH   3   9
BRANCH   1  26
ATOM     25  C   UNL     1       0.909  -0.310   0.096  0.00  0.00    +0.027 C 
ATOM     26  C   UNL     1       1.365  -1.608   0.765  0.00  0.00    +0.123 C 
ENDBRANCH   1  26
BRANCH   5  27
ATOM     27  C   UNL     1      -2.210  -4.921   0.281  0.00  0.00    +0.105 C 
ATOM     28  N   UNL     1      -2.734  -5.706  -0.352  0.00  0.00    -0.191 NA
ENDBRANCH   5  27
BRANCH   2  29
ATOM     29  N   UNL     1       0.427  -1.060   3.297  0.00  0.00    -0.326 N 
ATOM     30  H   UNL     1       0.155  -0.131   3.240  0.00  0.00    +0.148 HD
BRANCH  29  31
ATOM     31  C   UNL     1       1.540  -1.445   4.168  0.00  0.00    +0.138 C 
BRANCH  31  32
ATOM     32  C   UNL     1       2.030  -0.236   4.923  0.00  0.00    -0.030 A 
ATOM     33  C   UNL     1       3.023   0.559   4.383  0.00  0.00    +0.005 A 
ATOM     34  C   UNL     1       3.472   1.669   5.075  0.00  0.00    +0.000 A 
ATOM     35  C   UNL     1       2.927   1.983   6.306  0.00  0.00    +0.000 A 
ATOM     36  C   UNL     1       1.933   1.188   6.845  0.00  0.00    +0.000 A 
ATOM     37  C   UNL     1       1.481   0.081   6.152  0.00  0.00    +0.005 A 
ENDBRANCH  31  32
ENDBRANCH  29  31
ENDBRANCH   2  29
TORSDOF 8
