REMARK  Name = ZINC37640380
REMARK  5 active torsions:
REMARK  status: ('A' for Active; 'I' for Inactive)
REMARK    1  A    between atoms: C_3  and  N_30
REMARK    2  A    between atoms: C_6  and  C_7
REMARK    3  A    between atoms: C_7  and  N_8
REMARK    4  A    between atoms: N_16  and  C_19
REMARK    5  A    between atoms: C_19  and  C_20
REMARK                            x       y       z     vdW  Elec       q    Type
REMARK                         _______ _______ _______ _____ _____    ______ ____
ROOT
ATOM      1  N   UNL     1      -1.725  -1.018  -1.368  0.00  0.00    -0.256 N 
ATOM      2  C   UNL     1      -2.516  -0.114  -1.976  0.00  0.00    +0.265 A 
ATOM      3  O   UNL     1      -2.867   0.892  -1.388  0.00  0.00    -0.267 OA
ATOM      4  C   UNL     1      -2.951  -0.360  -3.367  0.00  0.00    +0.074 A 
ATOM      5  C   UNL     1      -3.806   0.485  -4.215  0.00  0.00    -0.023 A 
ATOM      6  C   UNL     1      -4.032  -0.002  -5.446  0.00  0.00    -0.004 A 
ATOM      7  S   UNL     1      -3.139  -1.536  -5.492  0.00  0.00    -0.075 S 
ATOM      8  C   UNL     1      -2.496  -1.537  -3.952  0.00  0.00    +0.097 A 
ATOM      9  N   UNL     1      -1.691  -2.406  -3.260  0.00  0.00    -0.283 N 
ATOM     10  C   UNL     1      -1.318  -2.134  -1.995  0.00  0.00    +0.333 A 
ATOM     11  O   UNL     1      -0.600  -2.918  -1.405  0.00  0.00    -0.246 OA
ATOM     12  C   UNL     1      -4.915   0.907  -6.257  0.00  0.00    +0.043 C 
ATOM     13  C   UNL     1      -5.572   1.842  -5.216  0.00  0.00    +0.010 C 
ATOM     14  C   UNL     1      -4.535   1.819  -4.075  0.00  0.00    +0.037 C 
ENDROOT
BRANCH   1  15
ATOM     15  C   UNL     1      -1.293  -0.775   0.010  0.00  0.00    +0.165 C 
BRANCH  15  21
ATOM     16  C   UNL     1      -0.017   1.378   0.010  0.00  0.00    +0.007 A 
ATOM     17  C   UNL     1       1.171   2.086   0.002  0.00  0.00    +0.033 A 
ATOM     18  C   UNL     1       2.377   1.411  -0.013  0.00  0.00    +0.126 A 
ATOM     19  C   UNL     1       2.396   0.029  -0.020  0.00  0.00    +0.033 A 
ATOM     20  C   UNL     1       1.208  -0.679  -0.012  0.00  0.00    +0.007 A 
ATOM     21  C   UNL     1       0.002  -0.004   0.002  0.00  0.00    -0.027 A 
BRANCH  18  22
ATOM     22  N   UNL     1       3.649   2.168  -0.022  0.00  0.00    +0.056 N 
ATOM     23  O   UNL     1       3.633   3.377  -0.016  0.00  0.00    -0.126 OA
ATOM     24  O   UNL     1       4.704   1.578  -0.035  0.00  0.00    -0.126 OA
ENDBRANCH  18  22
ENDBRANCH  15  21
ENDBRANCH   1  15
BRANCH   9  25
ATOM     25  C   UNL     1      -1.230  -3.638  -3.904  0.00  0.00    +0.162 C 
BRANCH  25  26
ATOM     26  C   UNL     1       0.078  -3.378  -4.606  0.00  0.00    -0.027 A 
ATOM     27  C   UNL     1       0.084  -2.955  -5.922  0.00  0.00    +0.008 A 
ATOM     28  C   UNL     1       1.283  -2.716  -6.566  0.00  0.00    +0.038 A 
ATOM     29  C   UNL     1       2.479  -2.901  -5.894  0.00  0.00    +0.123 A 
ATOM     30  C   UNL     1       2.472  -3.324  -4.575  0.00  0.00    +0.038 A 
ATOM     31  C   UNL     1       1.272  -3.558  -3.931  0.00  0.00    +0.008 A 
ATOM     32  F   UNL     1       3.651  -2.668  -6.523  0.00  0.00    -0.205 F 
ENDBRANCH  25  26
ENDBRANCH   9  25
TORSDOF 5
