REMARK  Name = ZINC24474103
REMARK  6 active torsions:
REMARK  status: ('A' for Active; 'I' for Inactive)
REMARK    1  A    between atoms: C_1  and  C_2
REMARK    2  A    between atoms: C_7  and  C_16
REMARK    3  A    between atoms: N_11  and  S_12
REMARK    4  A    between atoms: S_12  and  C_15
REMARK    5  A    between atoms: N_18  and  N_19
REMARK    6  A    between atoms: C_20  and  C_22
REMARK                            x       y       z     vdW  Elec       q    Type
REMARK                         _______ _______ _______ _____ _____    ______ ____
ROOT
ATOM      1  C   UNL     1       2.428   3.925  -0.001  0.00  0.00    +0.260 C 
ATOM      2  O   UNL     1       2.413   5.140   0.005  0.00  0.00    -0.269 OA
ATOM      3  N   UNL     1       3.603   3.265  -0.016  0.00  0.00    -0.230 N 
ATOM      4  H   UNL     1       3.616   2.165  -0.021  0.00  0.00    +0.173 HD
ENDROOT
BRANCH   1  10
ATOM      5  C   UNL     1      -4.388   2.255  -1.220  0.00  0.00    +0.030 C 
ATOM      6  C   UNL     1      -3.510   2.322   0.031  0.00  0.00    +0.099 C 
ATOM      7  C   UNL     1      -2.680   3.617   0.047  0.00  0.00    +0.061 C 
ATOM      8  C   UNL     1      -1.244   3.144   0.030  0.00  0.00    -0.022 A 
ATOM      9  C   UNL     1      -0.062   3.851   0.022  0.00  0.00    +0.018 A 
ATOM     10  C   UNL     1       1.159   3.172   0.008  0.00  0.00    +0.039 A 
ATOM     11  C   UNL     1       1.170   1.774   0.000  0.00  0.00    +0.015 A 
ATOM     12  C   UNL     1      -0.013   1.076   0.008  0.00  0.00    +0.026 A 
ATOM     13  C   UNL     1      -1.238   1.754   0.018  0.00  0.00    +0.054 A 
ATOM     14  N   UNL     1      -2.527   1.236   0.021  0.00  0.00    -0.204 N 
BRANCH  14  15
ATOM     15  S   UNL     1      -2.899  -0.378   0.015  0.00  0.00    +0.043 S 
ATOM     16  O   UNL     1      -4.186  -0.451  -0.582  0.00  0.00    -0.155 OA
ATOM     17  O   UNL     1      -1.780  -1.006  -0.596  0.00  0.00    -0.155 OA
ATOM     18  C   UNL     1      -2.995  -0.840   1.766  0.00  0.00    +0.218 C 
ENDBRANCH  14  15
ENDBRANCH   1  10
BRANCH   3  19
ATOM     19  N   UNL     1       4.808   3.980  -0.024  0.00  0.00    -0.230 N 
ATOM     20  C   UNL     1       5.983   3.320  -0.039  0.00  0.00    +0.267 C 
ATOM     21  O   UNL     1       5.997   2.103  -0.045  0.00  0.00    -0.268 OA
ATOM     22  H   UNL     1       4.794   5.080  -0.018  0.00  0.00    +0.173 HD
BRANCH  20  23
ATOM     23  C   UNL     1       7.243   4.068  -0.047  0.00  0.00    +0.076 A 
ATOM     24  C   UNL     1       8.541   3.591  -0.057  0.00  0.00    +0.024 A 
ATOM     25  C   UNL     1       9.580   4.516  -0.063  0.00  0.00    -0.036 A 
ATOM     26  C   UNL     1       9.225   5.821  -0.070  0.00  0.00    -0.006 A 
ATOM     27  S   UNL     1       7.505   5.835  -0.040  0.00  0.00    -0.088 S 
ATOM     28  C   UNL     1      10.161   7.007  -0.135  0.00  0.00    +0.043 C 
ATOM     29  C   UNL     1      10.940   7.045   1.190  0.00  0.00    +0.005 C 
ATOM     30  C   UNL     1      12.061   6.033   1.171  0.00  0.00    +0.001 C 
ATOM     31  C   UNL     1      11.658   4.583   1.266  0.00  0.00    +0.005 C 
ATOM     32  C   UNL     1      11.047   4.072  -0.039  0.00  0.00    +0.036 C 
ENDBRANCH  20  23
ENDBRANCH   3  19
TORSDOF 4
