REMARK  Name = ZINC06149215
REMARK  12 active torsions:
REMARK  status: ('A' for Active; 'I' for Inactive)
REMARK    1  A    between atoms: C_1  and  C_2
REMARK    2  A    between atoms: C_2  and  C_3
REMARK    3  A    between atoms: C_3  and  C_4
REMARK    4  A    between atoms: C_3  and  C_5
REMARK    5  A    between atoms: C_3  and  N_6
REMARK    6  A    between atoms: C_7  and  C_11
REMARK    7  A    between atoms: C_11  and  C_13
REMARK    8  A    between atoms: C_11  and  N_71
REMARK    9  A    between atoms: C_17  and  O_25
REMARK   10  A    between atoms: O_25  and  C_26
REMARK   11  A    between atoms: C_26  and  C_27
REMARK   12  A    between atoms: C_33  and  C_35
REMARK                            x       y       z     vdW  Elec       q    Type
REMARK                         _______ _______ _______ _____ _____    ______ ____
ROOT
ATOM      1  C   UNL     1       3.205  -0.392   2.001  0.00  0.00    +0.039 C 
ENDROOT
BRANCH   1   2
ATOM      2  C   UNL     1       2.422  -0.144   3.264  0.00  0.00    +0.011 A 
ATOM      3  C   UNL     1       2.339  -1.113   4.209  0.00  0.00    +0.017 A 
ATOM      4  C   UNL     1       1.574  -0.839   5.427  0.00  0.00    +0.002 A 
ATOM      5  C   UNL     1       1.459  -1.799   6.438  0.00  0.00    +0.055 A 
ATOM      6  C   UNL     1       0.726  -1.510   7.571  0.00  0.00    +0.121 A 
ATOM      7  C   UNL     1       0.104  -0.271   7.710  0.00  0.00    +0.047 A 
ATOM      8  C   UNL     1       0.210   0.682   6.721  0.00  0.00    +0.030 A 
ATOM      9  C   UNL     1       0.945   0.411   5.571  0.00  0.00    +0.049 A 
ATOM     10  N   UNL     1       1.063   1.353   4.569  0.00  0.00    -0.322 N 
ATOM     11  H   UNL     1       0.615   2.241   4.673  0.00  0.00    +0.169 HD
ATOM     12  C   UNL     1       1.772   1.094   3.457  0.00  0.00    +0.251 A 
ATOM     13  O   UNL     1       1.855   1.950   2.593  0.00  0.00    -0.268 OA
BRANCH   6  14
ATOM     14  O   UNL     1       0.610  -2.439   8.557  0.00  0.00    -0.492 OA
BRANCH  14  15
ATOM     15  C   UNL     1      -0.162  -2.076   9.703  0.00  0.00    +0.225 C 
ATOM     16  C   UNL     1      -0.179  -3.240  10.696  0.00  0.00    +0.048 C 
ENDBRANCH  14  15
ENDBRANCH   6  14
ENDBRANCH   1   2
BRANCH   1  24
ATOM     17  C   UNL     1       3.047  -0.473  -0.414  0.00  0.00    -0.058 C 
ATOM     18  C   UNL     1       2.185  -0.043  -1.606  0.00  0.00    +0.089 C 
ATOM     19  N   UNL     1       0.857  -0.659  -1.467  0.00  0.00    -0.299 N 
ATOM     20  C   UNL     1       0.146  -0.499  -0.190  0.00  0.00    +0.089 C 
ATOM     21  C   UNL     1       1.088  -0.910   0.947  0.00  0.00    -0.058 C 
ATOM     22  C   UNL     1       0.303  -1.346  -2.486  0.00  0.00    +0.282 C 
ATOM     23  O   UNL     1       0.868  -1.400  -3.562  0.00  0.00    -0.267 OA
ATOM     24  N   UNL     1       2.337  -0.125   0.836  0.00  0.00    +0.391 N 
ATOM     25  H   UNL     1       2.101   0.874   0.818  0.00  0.00    -0.080 HD
BRANCH  22  26
ATOM     26  C   UNL     1      -0.981  -2.030  -2.297  0.00  0.00    +0.189 A 
ATOM     27  C   UNL     1      -1.592  -2.853  -3.199  0.00  0.00    +0.054 A 
ATOM     28  C   UNL     1      -2.790  -3.282  -2.606  0.00  0.00    +0.042 A 
ATOM     29  C   UNL     1      -2.857  -2.708  -1.385  0.00  0.00    +0.196 A 
ATOM     30  O   UNL     1      -1.763  -1.959  -1.200  0.00  0.00    -0.458 OA
ENDBRANCH  22  26
ENDBRANCH   1  24
BRANCH   1  32
ATOM     31  N   UNL     1       5.682   0.209   2.092  0.00  0.00    -0.225 N 
ATOM     32  C   UNL     1       4.386   0.543   1.950  0.00  0.00    +0.143 A 
ATOM     33  N   UNL     1       4.350   1.841   1.766  0.00  0.00    -0.115 NA
ATOM     34  N   UNL     1       5.561   2.280   1.788  0.00  0.00    -0.023 NA
ATOM     35  N   UNL     1       6.369   1.296   1.981  0.00  0.00    -0.043 NA
BRANCH  31  36
ATOM     36  C   UNL     1       6.214  -1.136   2.324  0.00  0.00    +0.061 C 
ATOM     37  C   UNL     1       5.581  -1.723   3.587  0.00  0.00    +0.036 C 
ATOM     38  C   UNL     1       5.884  -2.029   1.126  0.00  0.00    +0.036 C 
BRANCH  36  40
ATOM     39  C   UNL     1       8.287  -2.466   2.743  0.00  0.00    +0.006 C 
ATOM     40  C   UNL     1       7.732  -1.061   2.501  0.00  0.00    +0.026 C 
ENDBRANCH  36  40
ENDBRANCH  31  36
ENDBRANCH   1  32
TORSDOF 8
