REMARK  Name = ZINC20117988
REMARK  6 active torsions:
REMARK  status: ('A' for Active; 'I' for Inactive)
REMARK    1  A    between atoms: C_1  and  C_2
REMARK    2  A    between atoms: C_3  and  C_12
REMARK    3  A    between atoms: C_14  and  C_17
REMARK    4  A    between atoms: C_18  and  C_28
REMARK    5  A    between atoms: N_19  and  C_27
REMARK    6  A    between atoms: C_23  and  O_26
REMARK                            x       y       z     vdW  Elec       q    Type
REMARK                         _______ _______ _______ _____ _____    ______ ____
ROOT
ATOM      1  C   UNL     1       2.759  -5.164  -0.050  0.00  0.00    +0.204 A 
ATOM      2  N   UNL     1       1.572  -4.524  -0.034  0.00  0.00    -0.187 NA
ATOM      3  C   UNL     1       1.866  -3.234  -0.032  0.00  0.00    +0.261 A 
ATOM      4  O   UNL     1       3.206  -3.142  -0.051  0.00  0.00    -0.332 OA
ATOM      5  N   UNL     1       3.696  -4.251  -0.056  0.00  0.00    -0.056 NA
ENDROOT
BRANCH   1   8
ATOM      6  C   UNL     1       0.475  -6.944  -0.020  0.00  0.00    +0.066 C 
ATOM      7  C   UNL     1       1.875  -7.501  -0.044  0.00  0.00    +0.049 A 
ATOM      8  C   UNL     1       2.964  -6.634  -0.058  0.00  0.00    +0.047 A 
ATOM      9  C   UNL     1       4.255  -7.171  -0.074  0.00  0.00    -0.034 A 
ATOM     10  C   UNL     1       4.400  -8.542  -0.081  0.00  0.00    -0.043 A 
ATOM     11  C   UNL     1       3.264  -9.338  -0.074  0.00  0.00    +0.113 A 
ATOM     12  N   UNL     1       2.059  -8.806  -0.058  0.00  0.00    -0.259 NA
ATOM     13  C   UNL     1       5.754  -9.197  -0.093  0.00  0.00    -0.045 C 
ATOM     14  N   UNL     1       6.782  -8.237  -0.510  0.00  0.00    +0.382 N 
ATOM     15  C   UNL     1       6.704  -7.015   0.306  0.00  0.00    -0.077 C 
ATOM     16  C   UNL     1       5.441  -6.246  -0.088  0.00  0.00    +0.017 C 
ATOM     17  H   UNL     1       7.777  -8.688  -0.386  0.00  0.00    -0.085 HD
ATOM     18  H   UNL     1       6.629  -7.973  -1.567  0.00  0.00    -0.085 HD
ENDBRANCH   1   8
BRANCH   3  19
ATOM     19  C   UNL     1       0.909  -2.116  -0.017  0.00  0.00    +0.068 A 
ATOM     20  C   UNL     1      -0.449  -2.207  -0.004  0.00  0.00    +0.029 A 
ATOM     21  N   UNL     1      -0.993  -0.962   0.007  0.00  0.00    -0.346 N 
ATOM     22  C   UNL     1       0.002  -0.004   0.002  0.00  0.00    +0.050 A 
ATOM     23  C   UNL     1       1.234  -0.678  -0.013  0.00  0.00    +0.016 A 
ATOM     24  C   UNL     1       2.426   0.043  -0.021  0.00  0.00    +0.056 A 
ATOM     25  C   UNL     1       2.388   1.425  -0.014  0.00  0.00    +0.118 A 
ATOM     26  C   UNL     1       1.167   2.092   0.002  0.00  0.00    +0.047 A 
ATOM     27  C   UNL     1      -0.017   1.387   0.010  0.00  0.00    +0.030 A 
ATOM     28  C   UNL     1      -2.430  -0.676   0.022  0.00  0.00    +0.149 C 
ATOM     29  C   UNL     1      -1.232  -3.494  -0.002  0.00  0.00    +0.064 C 
BRANCH  25  30
ATOM     30  O   UNL     1       3.548   2.135  -0.021  0.00  0.00    -0.507 OA
ATOM     31  H   UNL     1       3.520   3.234  -0.015  0.00  0.00    +0.292 HD
ENDBRANCH  25  30
ENDBRANCH   3  19
TORSDOF 3
