REMARK  Name = ZINC19241053
REMARK  11 active torsions:
REMARK  status: ('A' for Active; 'I' for Inactive)
REMARK    1  A    between atoms: C_1  and  C_2
REMARK    2  A    between atoms: C_4  and  C_13
REMARK    3  A    between atoms: C_6  and  S_9
REMARK    4  A    between atoms: C_7  and  C_8
REMARK    5  A    between atoms: S_9  and  N_12
REMARK    6  A    between atoms: C_13  and  O_15
REMARK    7  A    between atoms: O_15  and  C_16
REMARK    8  A    between atoms: C_16  and  C_17
REMARK    9  A    between atoms: N_19  and  C_20
REMARK   10  A    between atoms: N_19  and  C_28
REMARK   11  A    between atoms: C_20  and  C_21
REMARK                            x       y       z     vdW  Elec       q    Type
REMARK                         _______ _______ _______ _____ _____    ______ ____
ROOT
ATOM      1  C   UNL     1       0.072  -0.304  -6.211  0.00  0.00    +0.328 C 
ENDROOT
BRANCH   1   2
ATOM      2  C   UNL     1      -0.009  -1.808  -6.155  0.00  0.00    +0.254 C 
ATOM      3  O   UNL     1       0.085  -2.381  -5.091  0.00  0.00    -0.272 OA
ATOM      4  N   UNL     1      -0.186  -2.515  -7.289  0.00  0.00    -0.291 N 
BRANCH   4   5
ATOM      5  C   UNL     1      -0.383  -3.966  -7.224  0.00  0.00    +0.077 C 
ATOM      6  C   UNL     1      -1.567  -4.279  -6.308  0.00  0.00    +0.022 C 
ATOM      7  C   UNL     1      -1.773  -5.794  -6.240  0.00  0.00    +0.002 C 
ATOM      8  C   UNL     1      -0.510  -6.455  -5.685  0.00  0.00    +0.000 C 
ATOM      9  C   UNL     1       0.675  -6.142  -6.601  0.00  0.00    +0.002 C 
ATOM     10  C   UNL     1       0.880  -4.627  -6.668  0.00  0.00    +0.022 C 
ENDBRANCH   4   5
BRANCH   4  11
ATOM     11  C   UNL     1      -0.181  -1.834  -8.586  0.00  0.00    +0.143 C 
BRANCH  11  12
ATOM     12  C   UNL     1       1.190  -1.935  -9.201  0.00  0.00    -0.030 A 
ATOM     13  C   UNL     1       2.165  -1.011  -8.873  0.00  0.00    +0.008 A 
ATOM     14  C   UNL     1       3.423  -1.104  -9.437  0.00  0.00    +0.038 A 
ATOM     15  C   UNL     1       3.708  -2.122 -10.331  0.00  0.00    +0.123 A 
ATOM     16  C   UNL     1       2.731  -3.047 -10.659  0.00  0.00    +0.038 A 
ATOM     17  C   UNL     1       1.475  -2.956 -10.090  0.00  0.00    +0.008 A 
ATOM     18  F   UNL     1       4.938  -2.213 -10.883  0.00  0.00    -0.205 F 
ENDBRANCH  11  12
ENDBRANCH   4  11
ENDBRANCH   1   2
BRANCH   1  19
ATOM     19  O   UNL     1       0.135   0.219  -4.882  0.00  0.00    -0.452 OA
BRANCH  19  20
ATOM     20  C   UNL     1       0.211   1.558  -4.755  0.00  0.00    +0.340 C 
ATOM     21  O   UNL     1       0.225   2.262  -5.744  0.00  0.00    -0.245 OA
BRANCH  20  25
ATOM     22  C   UNL     1       0.314   1.071   0.210  0.00  0.00    +0.044 C 
ATOM     23  C   UNL     1       0.330   1.940  -1.021  0.00  0.00    -0.045 A 
ATOM     24  C   UNL     1       0.265   1.363  -2.273  0.00  0.00    +0.018 A 
ATOM     25  C   UNL     1       0.280   2.169  -3.412  0.00  0.00    +0.061 A 
ATOM     26  C   UNL     1       0.360   3.557  -3.276  0.00  0.00    +0.043 A 
ATOM     27  C   UNL     1       0.424   4.121  -2.019  0.00  0.00    +0.109 A 
ATOM     28  C   UNL     1       0.403   3.316  -0.894  0.00  0.00    -0.021 A 
ATOM     29  C   UNL     1       0.467   3.940   0.476  0.00  0.00    +0.046 C 
BRANCH  27  30
ATOM     30  S   UNL     1       0.525   5.872  -1.846  0.00  0.00    +0.056 S 
ATOM     31  O   UNL     1       1.590   6.129  -0.942  0.00  0.00    -0.153 OA
ATOM     32  O   UNL     1       0.493   6.412  -3.160  0.00  0.00    -0.153 OA
BRANCH  30  33
ATOM     33  N   UNL     1      -0.865   6.370  -1.095  0.00  0.00    -0.204 NA
ATOM     34  H   UNL     1      -1.540   5.721  -0.844  0.00  0.00    +0.144 HD
ATOM     35  H   UNL     1      -1.003   7.312  -0.907  0.00  0.00    +0.144 HD
ENDBRANCH  30  33
ENDBRANCH  27  30
ENDBRANCH  20  25
ENDBRANCH  19  20
ENDBRANCH   1  19
TORSDOF 9
