REMARK  Name = ZINC32964245
REMARK  5 active torsions:
REMARK  status: ('A' for Active; 'I' for Inactive)
REMARK    1  A    between atoms: C_4  and  O_7
REMARK    2  A    between atoms: O_7  and  C_8
REMARK    3  A    between atoms: C_8  and  C_9
REMARK    4  A    between atoms: C_15  and  C_16
REMARK    5  A    between atoms: N_20  and  C_21
REMARK                            x       y       z     vdW  Elec       q    Type
REMARK                         _______ _______ _______ _____ _____    ______ ____
ROOT
ATOM      1  C   UNL     1       5.527  -1.357   1.963  0.00  0.00    +0.137 C 
ATOM      2  N   UNL     1       6.695  -0.965   1.541  0.00  0.00    -0.166 NA
ATOM      3  N   UNL     1       7.682  -1.873   1.221  0.00  0.00    -0.152 N 
ATOM      4  C   UNL     1       9.004  -1.557   0.842  0.00  0.00    +0.153 C 
ATOM      5  N   UNL     1       9.585  -0.424   1.140  0.00  0.00    -0.283 NA
ATOM      6  C   UNL     1       9.671  -2.639   0.069  0.00  0.00    +0.082 C 
ATOM      7  C   UNL     1      10.596  -2.362  -0.924  0.00  0.00    +0.042 C 
ATOM      8  C   UNL     1       9.295  -4.028   0.419  0.00  0.00    +0.273 C 
ATOM      9  O   UNL     1      10.058  -4.958   0.207  0.00  0.00    -0.268 OA
ATOM     10  N   UNL     1       8.086  -4.237   0.977  0.00  0.00    -0.152 NA
ATOM     11  C   UNL     1       7.348  -3.208   1.308  0.00  0.00    +0.181 C 
ATOM     12  S   UNL     1       5.698  -3.136   1.954  0.00  0.00    -0.035 S 
ATOM     13  H   UNL     1       9.133   0.218   1.709  0.00  0.00    +0.188 HD
ENDROOT
BRANCH   7  14
ATOM     14  C   UNL     1      10.830  -1.031  -1.317  0.00  0.00    +0.047 A 
ATOM     15  C   UNL     1      12.034  -0.346  -1.226  0.00  0.00    +0.027 A 
ATOM     16  C   UNL     1      11.813   0.938  -1.726  0.00  0.00    +0.020 A 
ATOM     17  C   UNL     1      10.513   1.023  -2.107  0.00  0.00    +0.092 A 
ATOM     18  N   UNL     1       9.905  -0.168  -1.870  0.00  0.00    -0.316 N 
BRANCH  18  19
ATOM     19  C   UNL     1       8.563  -0.468  -2.137  0.00  0.00    +0.047 A 
ATOM     20  C   UNL     1       8.240  -1.558  -2.934  0.00  0.00    +0.027 A 
ATOM     21  C   UNL     1       6.916  -1.853  -3.196  0.00  0.00    +0.017 A 
ATOM     22  C   UNL     1       5.912  -1.062  -2.666  0.00  0.00    +0.018 A 
ATOM     23  C   UNL     1       6.231   0.026  -1.872  0.00  0.00    +0.017 A 
ATOM     24  C   UNL     1       7.553   0.321  -1.602  0.00  0.00    +0.027 A 
ATOM     25 BR   UNL     1       4.101  -1.467  -3.027  0.00  0.00    -0.050 Br
ENDBRANCH  18  19
ENDBRANCH   7  14
BRANCH   1  26
ATOM     26  C   UNL     1       4.338  -0.523   2.364  0.00  0.00    +0.293 C 
BRANCH  26  27
ATOM     27  O   UNL     1       4.692   0.861   2.325  0.00  0.00    -0.485 OA
BRANCH  27  31
ATOM     28  C   UNL     1       1.756   3.575   3.345  0.00  0.00    +0.000 A 
ATOM     29  C   UNL     1       3.015   4.021   2.987  0.00  0.00    +0.004 A 
ATOM     30  C   UNL     1       4.000   3.115   2.645  0.00  0.00    +0.045 A 
ATOM     31  C   UNL     1       3.725   1.755   2.661  0.00  0.00    +0.121 A 
ATOM     32  C   UNL     1       2.461   1.309   3.021  0.00  0.00    +0.045 A 
ATOM     33  C   UNL     1       1.480   2.220   3.361  0.00  0.00    +0.004 A 
ENDBRANCH  27  31
ENDBRANCH  26  27
ENDBRANCH   1  26
TORSDOF 5
