REMARK  Name = ZINC40980307
REMARK  9 active torsions:
REMARK  status: ('A' for Active; 'I' for Inactive)
REMARK    1  A    between atoms: C_1  and  C_2
REMARK    2  A    between atoms: C_2  and  O_3
REMARK    3  A    between atoms: O_3  and  C_4
REMARK    4  A    between atoms: C_4  and  C_6
REMARK    5  A    between atoms: C_7  and  C_23
REMARK    6  A    between atoms: C_14  and  C_16
REMARK    7  A    between atoms: C_23  and  S_24
REMARK    8  A    between atoms: S_24  and  C_25
REMARK    9  A    between atoms: C_28  and  C_30
REMARK                            x       y       z     vdW  Elec       q    Type
REMARK                         _______ _______ _______ _____ _____    ______ ____
ROOT
ATOM      1  C   UNL     1      -2.792  -2.408   0.113  0.00  0.00    +0.083 C 
ATOM      2  C   UNL     1      -2.919  -3.729  -0.087  0.00  0.00    +0.033 C 
ATOM      3  N   UNL     1      -4.144  -4.343  -0.175  0.00  0.00    -0.285 N 
ATOM      4  C   UNL     1      -5.256  -3.605   0.204  0.00  0.00    +0.240 A 
ATOM      5  N   UNL     1      -6.486  -3.970   0.429  0.00  0.00    -0.092 NA
ATOM      6  N   UNL     1      -7.199  -2.951   0.769  0.00  0.00    -0.021 NA
ATOM      7  N   UNL     1      -6.476  -1.878   0.781  0.00  0.00    -0.042 NA
ATOM      8  N   UNL     1      -5.189  -2.264   0.411  0.00  0.00    -0.201 N 
ATOM      9  C   UNL     1      -3.970  -1.481   0.254  0.00  0.00    +0.182 C 
ATOM     10  H   UNL     1      -4.229  -5.256  -0.490  0.00  0.00    +0.155 HD
ENDROOT
BRANCH   9  11
ATOM     11  C   UNL     1      -4.086  -0.623  -0.980  0.00  0.00    +0.000 A 
ATOM     12  C   UNL     1      -4.277  -1.212  -2.216  0.00  0.00    +0.007 A 
ATOM     13  C   UNL     1      -4.383  -0.426  -3.348  0.00  0.00    +0.000 A 
ATOM     14  C   UNL     1      -4.297   0.950  -3.244  0.00  0.00    +0.001 A 
ATOM     15  C   UNL     1      -4.106   1.540  -2.010  0.00  0.00    +0.020 A 
ATOM     16  C   UNL     1      -4.006   0.754  -0.875  0.00  0.00    +0.046 A 
ATOM     17 CL   UNL     1      -3.772   1.495   0.677  0.00  0.00    -0.083 Cl
ENDBRANCH   9  11
BRANCH   1  18
ATOM     18  C   UNL     1      -1.492  -1.863   0.202  0.00  0.00    +0.339 C 
ATOM     19  O   UNL     1      -1.010  -1.614   1.292  0.00  0.00    -0.245 OA
BRANCH  18  20
ATOM     20  O   UNL     1      -0.785  -1.618  -0.921  0.00  0.00    -0.462 OA
BRANCH  20  22
ATOM     21  C   UNL     1       1.165  -0.859  -2.129  0.00  0.00    +0.048 C 
ATOM     22  C   UNL     1       0.523  -1.066  -0.756  0.00  0.00    +0.229 C 
ENDBRANCH  20  22
ENDBRANCH  18  20
ENDBRANCH   1  18
BRANCH   2  23
ATOM     23  C   UNL     1      -1.674  -4.567  -0.222  0.00  0.00    +0.127 C 
BRANCH  23  24
ATOM     24  S   UNL     1      -1.419  -5.519   1.301  0.00  0.00    -0.091 S 
BRANCH  24  25
ATOM     25  C   UNL     1       0.054  -6.434   0.990  0.00  0.00    +0.159 A 
ATOM     26  N   UNL     1       0.836  -6.455  -0.085  0.00  0.00    -0.134 NA
ATOM     27  N   UNL     1       1.868  -7.177  -0.143  0.00  0.00    -0.140 NA
ATOM     28  C   UNL     1       2.234  -7.960   0.864  0.00  0.00    +0.133 A 
ATOM     29  S   UNL     1       0.929  -7.596   2.034  0.00  0.00    -0.039 S 
BRANCH  28  30
ATOM     30  C   UNL     1       3.393  -8.869   0.986  0.00  0.00    +0.009 A 
ATOM     31  C   UNL     1       3.582  -9.611   2.153  0.00  0.00    +0.010 A 
ATOM     32  C   UNL     1       4.665 -10.458   2.261  0.00  0.00    +0.001 A 
ATOM     33  C   UNL     1       5.565 -10.572   1.216  0.00  0.00    +0.000 A 
ATOM     34  C   UNL     1       5.385  -9.838   0.057  0.00  0.00    +0.001 A 
ATOM     35  C   UNL     1       4.302  -8.992  -0.067  0.00  0.00    +0.010 A 
ENDBRANCH  28  30
ENDBRANCH  24  25
ENDBRANCH  23  24
ENDBRANCH   2  23
TORSDOF 8
