REMARK  Name = ZINC09325322
REMARK  8 active torsions:
REMARK  status: ('A' for Active; 'I' for Inactive)
REMARK    1  A    between atoms: C_1  and  C_2
REMARK    2  A    between atoms: N_7  and  S_9
REMARK    3  A    between atoms: S_9  and  C_12
REMARK    4  A    between atoms: C_15  and  C_18
REMARK    5  A    between atoms: N_20  and  C_21
REMARK    6  A    between atoms: C_22  and  C_34
REMARK    7  A    between atoms: C_30  and  O_32
REMARK    8  A    between atoms: O_32  and  C_33
REMARK                            x       y       z     vdW  Elec       q    Type
REMARK                         _______ _______ _______ _____ _____    ______ ____
ROOT
ATOM      1  C   UNL     1       0.081  -1.811   5.733  0.00  0.00    +0.249 C 
ATOM      2  O   UNL     1      -0.964  -2.008   6.322  0.00  0.00    -0.270 OA
ATOM      3  N   UNL     1       1.257  -1.998   6.364  0.00  0.00    -0.275 N 
ATOM      4  H   UNL     1       2.090  -1.841   5.894  0.00  0.00    +0.156 HD
ENDROOT
BRANCH   3   5
ATOM      5  C   UNL     1       1.275  -2.414   7.686  0.00  0.00    +0.085 A 
ATOM      6  C   UNL     1       2.374  -2.664   8.496  0.00  0.00    +0.068 A 
ATOM      7  C   UNL     1       2.119  -3.092   9.862  0.00  0.00    -0.020 A 
ATOM      8  C   UNL     1       0.814  -3.209  10.191  0.00  0.00    +0.013 A 
ATOM      9  S   UNL     1      -0.068  -2.756   8.725  0.00  0.00    -0.076 S 
ATOM     10  C   UNL     1       0.256  -3.628  11.517  0.00  0.00    +0.153 C 
ATOM     11  N   UNL     1       1.387  -4.115  12.331  0.00  0.00    -0.262 N 
ATOM     12  C   UNL     1       2.639  -3.345  12.283  0.00  0.00    +0.116 C 
ATOM     13  C   UNL     1       3.220  -3.401  10.868  0.00  0.00    +0.056 C 
ATOM     14  C   UNL     1       1.277  -5.223  13.090  0.00  0.00    +0.403 C 
ATOM     15  O   UNL     1       2.223  -5.604  13.752  0.00  0.00    -0.226 OA
BRANCH   6  16
ATOM     16  C   UNL     1       3.741  -2.498   7.994  0.00  0.00    +0.244 C 
ATOM     17  O   UNL     1       4.304  -1.424   8.104  0.00  0.00    -0.270 OA
ATOM     18  N   UNL     1       4.376  -3.535   7.412  0.00  0.00    -0.325 N 
ATOM     19  H   UNL     1       3.928  -4.391   7.324  0.00  0.00    +0.145 HD
ATOM     20  H   UNL     1       5.280  -3.425   7.080  0.00  0.00    +0.145 HD
ENDBRANCH   6  16
BRANCH  14  21
ATOM     21  O   UNL     1       0.119  -5.909  13.116  0.00  0.00    -0.454 OA
ATOM     22  C   UNL     1       0.072  -7.093  13.955  0.00  0.00    +0.282 C 
ENDBRANCH  14  21
ENDBRANCH   3   5
BRANCH   1  26
ATOM     23  C   UNL     1       0.025  -0.534   1.682  0.00  0.00    +0.106 A 
ATOM     24  C   UNL     1       1.234  -0.730   2.326  0.00  0.00    +0.029 A 
ATOM     25  C   UNL     1       1.259  -1.140   3.643  0.00  0.00    +0.015 A 
ATOM     26  C   UNL     1       0.062  -1.367   4.323  0.00  0.00    +0.037 A 
ATOM     27  C   UNL     1      -1.155  -1.173   3.666  0.00  0.00    +0.015 A 
ATOM     28  C   UNL     1      -1.166  -0.757   2.350  0.00  0.00    +0.029 A 
BRANCH  23  29
ATOM     29  S   UNL     1       0.002  -0.004   0.002  0.00  0.00    +0.061 S 
ATOM     30  O   UNL     1      -1.243  -0.424  -0.539  0.00  0.00    -0.153 OA
ATOM     31  O   UNL     1       1.248  -0.390  -0.563  0.00  0.00    -0.153 OA
BRANCH  29  37
ATOM     32  C   UNL     1       2.453   4.301   1.106  0.00  0.00    +0.009 C 
ATOM     33  C   UNL     1       1.217   3.403   1.176  0.00  0.00    +0.002 C 
ATOM     34  C   UNL     1      -0.046   4.264   1.096  0.00  0.00    +0.006 C 
ATOM     35  C   UNL     1      -1.283   3.369   1.199  0.00  0.00    +0.017 C 
ATOM     36  C   UNL     1      -1.295   2.383   0.021  0.00  0.00    +0.109 C 
ATOM     37  N   UNL     1      -0.020   1.652   0.011  0.00  0.00    -0.176 NA
ATOM     38  C   UNL     1       1.234   2.417   0.003  0.00  0.00    +0.112 C 
ENDBRANCH  29  37
ENDBRANCH  23  29
ENDBRANCH   1  26
TORSDOF 6
