REMARK  Name = ZINC25555950
REMARK  6 active torsions:
REMARK  status: ('A' for Active; 'I' for Inactive)
REMARK    1  A    between atoms: C_1  and  C_2
REMARK    2  A    between atoms: C_2  and  C_4
REMARK    3  A    between atoms: C_2  and  N_14
REMARK    4  A    between atoms: N_6  and  C_7
REMARK    5  A    between atoms: N_17  and  C_20
REMARK    6  A    between atoms: C_23  and  N_26
REMARK                            x       y       z     vdW  Elec       q    Type
REMARK                         _______ _______ _______ _____ _____    ______ ____
ROOT
ATOM      1  N   UNL     1      -2.005  -4.234   0.053  0.00  0.00    +0.389 N 
ATOM      2  C   UNL     1      -1.173  -4.590  -1.104  0.00  0.00    -0.059 C 
ATOM      3  C   UNL     1      -0.847  -6.085  -1.053  0.00  0.00    +0.086 C 
ATOM      4  N   UNL     1      -2.097  -6.856  -1.050  0.00  0.00    -0.333 N 
ATOM      5  C   UNL     1      -2.929  -6.500   0.107  0.00  0.00    +0.086 C 
ATOM      6  C   UNL     1      -3.256  -5.005   0.057  0.00  0.00    -0.059 C 
ATOM      7  H   UNL     1      -1.446  -4.489   0.966  0.00  0.00    -0.081 HD
ENDROOT
BRANCH   4   8
ATOM      8  C   UNL     1      -1.839  -8.229  -1.077  0.00  0.00    +0.030 A 
ATOM      9  C   UNL     1      -2.349  -9.053  -0.082  0.00  0.00    +0.025 A 
ATOM     10  C   UNL     1      -2.096 -10.410  -0.115  0.00  0.00    +0.034 A 
ATOM     11  C   UNL     1      -1.327 -10.948  -1.130  0.00  0.00    +0.126 A 
ATOM     12  C   UNL     1      -0.812 -10.129  -2.119  0.00  0.00    +0.034 A 
ATOM     13  C   UNL     1      -1.066  -8.772  -2.095  0.00  0.00    +0.025 A 
BRANCH  11  14
ATOM     14  N   UNL     1      -1.053 -12.402  -1.159  0.00  0.00    +0.056 N 
ATOM     15  O   UNL     1      -0.376 -12.877  -2.053  0.00  0.00    -0.126 OA
ATOM     16  O   UNL     1      -1.505 -13.124  -0.288  0.00  0.00    -0.126 OA
ENDBRANCH  11  14
ENDBRANCH   4   8
BRANCH   1  18
ATOM     17  C   UNL     1      -3.330  -2.449  -0.974  0.00  0.00    -0.004 C 
ATOM     18  C   UNL     1      -2.277  -2.790   0.082  0.00  0.00    +0.017 C 
BRANCH  18  19
ATOM     19  C   UNL     1      -2.788  -2.402   1.445  0.00  0.00    +0.203 C 
ATOM     20  O   UNL     1      -3.154  -3.258   2.222  0.00  0.00    -0.277 OA
ATOM     21  N   UNL     1      -2.837  -1.103   1.801  0.00  0.00    -0.286 N 
ATOM     22  H   UNL     1      -2.571  -0.323   1.073  0.00  0.00    +0.155 HD
BRANCH  21  23
ATOM     23  C   UNL     1      -3.227  -0.747   3.098  0.00  0.00    +0.047 A 
ATOM     24  C   UNL     1      -4.091  -1.566   3.814  0.00  0.00    +0.024 A 
ATOM     25  C   UNL     1      -4.474  -1.212   5.093  0.00  0.00    +0.002 A 
ATOM     26  C   UNL     1      -3.998  -0.045   5.661  0.00  0.00    +0.001 A 
ATOM     27  C   UNL     1      -3.138   0.773   4.951  0.00  0.00    +0.017 A 
ATOM     28  C   UNL     1      -2.751   0.425   3.671  0.00  0.00    +0.039 A 
ATOM     29 BR   UNL     1      -1.569   1.539   2.704  0.00  0.00    -0.048 Br
ENDBRANCH  21  23
ENDBRANCH  18  19
ENDBRANCH   1  18
TORSDOF 5
