REMARK  Name = ZINC39147107
REMARK  10 active torsions:
REMARK  status: ('A' for Active; 'I' for Inactive)
REMARK    1  A    between atoms: C_1  and  C_2
REMARK    2  A    between atoms: C_8  and  C_11
REMARK    3  A    between atoms: C_11  and  C_12
REMARK    4  A    between atoms: C_12  and  N_13
REMARK    5  A    between atoms: C_15  and  C_20
REMARK    6  A    between atoms: N_22  and  C_23
REMARK    7  A    between atoms: C_27  and  C_30
REMARK    8  A    between atoms: C_30  and  C_31
REMARK    9  A    between atoms: C_31  and  C_32
REMARK   10  A    between atoms: C_31  and  C_33
REMARK                            x       y       z     vdW  Elec       q    Type
REMARK                         _______ _______ _______ _____ _____    ______ ____
ROOT
ATOM      1  N   UNL     1       2.348   0.978  -7.161  0.00  0.00    -0.300 N 
ATOM      2  C   UNL     1       2.802   1.342  -8.508  0.00  0.00    +0.121 C 
ATOM      3  C   UNL     1       4.207   0.717  -8.653  0.00  0.00    +0.101 C 
ATOM      4  C   UNL     1       4.665   0.628  -7.178  0.00  0.00    +0.110 C 
ATOM      5  C   UNL     1       3.375   0.584  -6.389  0.00  0.00    +0.216 C 
ATOM      6  O   UNL     1       3.281   0.241  -5.230  0.00  0.00    -0.276 OA
ENDROOT
BRANCH   3   7
ATOM      7  C   UNL     1       5.118   1.616  -9.448  0.00  0.00    +0.220 C 
ATOM      8  O   UNL     1       4.705   2.673  -9.876  0.00  0.00    -0.275 OA
ATOM      9  N   UNL     1       6.392   1.245  -9.684  0.00  0.00    -0.290 N 
ATOM     10  H   UNL     1       6.723   0.400  -9.342  0.00  0.00    +0.151 HD
BRANCH   9  11
ATOM     11  C   UNL     1       7.278   2.119 -10.457  0.00  0.00    +0.216 C 
ATOM     12  N   UNL     1       7.837   3.219  -9.609  0.00  0.00    -0.227 NA
ATOM     13  N   UNL     1       9.057   3.743 -10.213  0.00  0.00    -0.241 NA
ATOM     14  C   UNL     1      10.005   2.654 -10.578  0.00  0.00    +0.130 C 
ATOM     15  S   UNL     1       8.847   1.258 -10.910  0.00  0.00    -0.102 S 
ATOM     16  H   UNL     1       7.157   3.952  -9.473  0.00  0.00    +0.143 HD
ATOM     17  H   UNL     1       8.845   4.321 -11.012  0.00  0.00    +0.142 HD
BRANCH  14  18
ATOM     18  C   UNL     1      10.802   3.017 -11.833  0.00  0.00    +0.034 C 
BRANCH  18  19
ATOM     19  C   UNL     1      11.851   1.936 -12.101  0.00  0.00    -0.015 C 
ATOM     20  C   UNL     1      12.548   2.221 -13.433  0.00  0.00    +0.007 C 
ATOM     21  C   UNL     1      12.886   1.937 -10.974  0.00  0.00    +0.007 C 
ENDBRANCH  18  19
ENDBRANCH  14  18
ENDBRANCH   9  11
ENDBRANCH   3   7
BRANCH   1  22
ATOM     22  C   UNL     1       0.954   1.042  -6.713  0.00  0.00    +0.112 C 
BRANCH  22  23
ATOM     23  C   UNL     1       0.670   2.427  -6.128  0.00  0.00    +0.056 C 
BRANCH  23  31
ATOM     24  C   UNL     1      -0.856   0.559  -0.932  0.00  0.00    +0.044 C 
ATOM     25  C   UNL     1      -1.483   1.175  -2.156  0.00  0.00    -0.050 A 
ATOM     26  C   UNL     1      -2.848   1.428  -2.178  0.00  0.00    +0.005 A 
ATOM     27  C   UNL     1      -3.441   1.990  -3.287  0.00  0.00    +0.026 A 
ATOM     28  C   UNL     1      -2.666   2.309  -4.398  0.00  0.00    +0.047 A 
ATOM     29  N   UNL     1      -2.951   2.865  -5.625  0.00  0.00    -0.360 N 
ATOM     30  C   UNL     1      -1.806   2.966  -6.367  0.00  0.00    +0.087 A 
ATOM     31  C   UNL     1      -0.763   2.493  -5.667  0.00  0.00    -0.021 A 
ATOM     32  C   UNL     1      -1.283   2.052  -4.370  0.00  0.00    +0.003 A 
ATOM     33  C   UNL     1      -0.702   1.486  -3.234  0.00  0.00    +0.013 A 
ATOM     34  H   UNL     1      -3.833   3.142  -5.919  0.00  0.00    +0.165 HD
ENDBRANCH  23  31
ENDBRANCH  22  23
ENDBRANCH   1  22
TORSDOF 7
