REMARK  Name = ZINC36549036
REMARK  12 active torsions:
REMARK  status: ('A' for Active; 'I' for Inactive)
REMARK    1  A    between atoms: C_1  and  C_2
REMARK    2  A    between atoms: C_5  and  S_8
REMARK    3  A    between atoms: S_8  and  C_11
REMARK    4  A    between atoms: C_11  and  N_12
REMARK    5  A    between atoms: C_13  and  C_15
REMARK    6  A    between atoms: C_15  and  C_17
REMARK    7  A    between atoms: C_15  and  N_24
REMARK    8  A    between atoms: C_20  and  O_23
REMARK    9  A    between atoms: N_24  and  C_25
REMARK   10  A    between atoms: C_32  and  C_34
REMARK   11  A    between atoms: C_34  and  O_35
REMARK   12  A    between atoms: O_35  and  C_36
REMARK                            x       y       z     vdW  Elec       q    Type
REMARK                         _______ _______ _______ _____ _____    ______ ____
ROOT
ATOM      1  C   UNL     1       2.976  -4.881   3.587  0.00  0.00    +0.197 C 
ENDROOT
BRANCH   1   2
ATOM      2  C   UNL     1       4.350  -4.393   3.208  0.00  0.00    -0.018 A 
ATOM      3  C   UNL     1       5.340  -5.302   2.881  0.00  0.00    +0.009 A 
ATOM      4  C   UNL     1       6.601  -4.857   2.533  0.00  0.00    +0.046 A 
ATOM      5  C   UNL     1       6.874  -3.497   2.513  0.00  0.00    +0.117 A 
ATOM      6  C   UNL     1       5.879  -2.587   2.841  0.00  0.00    +0.046 A 
ATOM      7  C   UNL     1       4.619  -3.037   3.183  0.00  0.00    +0.009 A 
BRANCH   5   8
ATOM      8  O   UNL     1       8.114  -3.057   2.172  0.00  0.00    -0.507 OA
ATOM      9  H   UNL     1       8.226  -2.893   1.225  0.00  0.00    +0.292 HD
ENDBRANCH   5   8
ENDBRANCH   1   2
BRANCH   1  11
ATOM     10  N   UNL     1       1.398  -4.528   1.715  0.00  0.00    -0.294 N 
ATOM     11  C   UNL     1       2.252  -5.353   2.352  0.00  0.00    +0.240 C 
ATOM     12  O   UNL     1       2.439  -6.475   1.932  0.00  0.00    -0.273 OA
ATOM     13  H   UNL     1       1.249  -3.630   2.052  0.00  0.00    +0.150 HD
BRANCH  10  14
ATOM     14  C   UNL     1       0.694  -4.986   0.515  0.00  0.00    +0.278 C 
BRANCH  14  15
ATOM     15  S   UNL     1      -0.942  -5.619   0.978  0.00  0.00    +0.013 S 
ATOM     16  O   UNL     1      -0.831  -6.496   2.090  0.00  0.00    -0.168 OA
ATOM     17  O   UNL     1      -1.662  -6.010  -0.184  0.00  0.00    -0.168 OA
BRANCH  15  22
ATOM     18  C   UNL     1      -3.922  -0.818   3.093  0.00  0.00    +0.044 C 
ATOM     19  C   UNL     1      -3.178  -2.017   2.564  0.00  0.00    -0.050 A 
ATOM     20  C   UNL     1      -3.239  -2.331   1.220  0.00  0.00    +0.005 A 
ATOM     21  C   UNL     1      -2.555  -3.431   0.735  0.00  0.00    +0.027 A 
ATOM     22  C   UNL     1      -1.811  -4.216   1.595  0.00  0.00    +0.090 A 
ATOM     23  C   UNL     1      -1.750  -3.902   2.940  0.00  0.00    +0.027 A 
ATOM     24  C   UNL     1      -2.430  -2.800   3.424  0.00  0.00    +0.005 A 
ENDBRANCH  15  22
ENDBRANCH  14  15
ENDBRANCH  10  14
ENDBRANCH   1  11
BRANCH   1  25
ATOM     25  N   UNL     1       3.096  -5.990   4.536  0.00  0.00    -0.252 N 
ATOM     26  C   UNL     1       3.640  -5.781   5.752  0.00  0.00    +0.247 C 
ATOM     27  O   UNL     1       4.030  -4.674   6.059  0.00  0.00    -0.273 OA
BRANCH  25  28
ATOM     28  C   UNL     1       2.646  -7.267   4.181  0.00  0.00    +0.056 A 
ATOM     29  C   UNL     1       3.540  -8.206   3.684  0.00  0.00    +0.025 A 
ATOM     30  C   UNL     1       3.093  -9.465   3.334  0.00  0.00    +0.002 A 
ATOM     31  C   UNL     1       1.757  -9.792   3.479  0.00  0.00    +0.002 A 
ATOM     32  C   UNL     1       0.864  -8.860   3.974  0.00  0.00    +0.022 A 
ATOM     33  C   UNL     1       1.306  -7.600   4.332  0.00  0.00    +0.062 A 
ATOM     34 CL   UNL     1       0.185  -6.432   4.960  0.00  0.00    -0.082 Cl
ENDBRANCH  25  28
BRANCH  26  35
ATOM     35  C   UNL     1       3.764  -6.922   6.728  0.00  0.00    +0.255 C 
BRANCH  35  36
ATOM     36  O   UNL     1       4.367  -6.452   7.936  0.00  0.00    -0.374 OA
ATOM     37  C   UNL     1       4.531  -7.461   8.934  0.00  0.00    +0.194 C 
ENDBRANCH  35  36
ENDBRANCH  26  35
ENDBRANCH   1  25
TORSDOF 10
