REMARK  Name = ZINC40061551
REMARK  10 active torsions:
REMARK  status: ('A' for Active; 'I' for Inactive)
REMARK    1  A    between atoms: C_1  and  C_2
REMARK    2  A    between atoms: C_10  and  C_14
REMARK    3  A    between atoms: C_14  and  S_15
REMARK    4  A    between atoms: S_15  and  C_16
REMARK    5  A    between atoms: N_26  and  C_27
REMARK    6  A    between atoms: C_27  and  C_28
REMARK    7  A    between atoms: C_28  and  C_29
REMARK    8  A    between atoms: C_29  and  N_30
REMARK    9  A    between atoms: N_30  and  C_31
REMARK   10  A    between atoms: N_30  and  C_32
REMARK                            x       y       z     vdW  Elec       q    Type
REMARK                         _______ _______ _______ _____ _____    ______ ____
ROOT
ATOM      1  C   UNL     1      -3.732  -7.841   6.265  0.00  0.00    +0.173 A 
ATOM      2  N   UNL     1      -2.789  -7.916   7.172  0.00  0.00    -0.223 NA
ATOM      3  C   UNL     1      -2.914  -8.704   8.258  0.00  0.00    +0.079 A 
ATOM      4  C   UNL     1      -1.908  -8.784   9.226  0.00  0.00    +0.028 A 
ATOM      5  C   UNL     1      -2.077  -9.596  10.312  0.00  0.00    +0.002 A 
ATOM      6  C   UNL     1      -3.235 -10.346  10.470  0.00  0.00    +0.001 A 
ATOM      7  C   UNL     1      -4.237 -10.290   9.541  0.00  0.00    +0.015 A 
ATOM      8  C   UNL     1      -4.092  -9.469   8.423  0.00  0.00    +0.065 A 
ATOM      9  C   UNL     1      -5.135  -9.368   7.394  0.00  0.00    +0.262 A 
ATOM     10  O   UNL     1      -6.171 -10.002   7.480  0.00  0.00    -0.267 OA
ATOM     11  N   UNL     1      -4.903  -8.540   6.348  0.00  0.00    -0.287 N 
ENDROOT
BRANCH   1  12
ATOM     12  S   UNL     1      -3.482  -6.784   4.878  0.00  0.00    -0.080 S 
BRANCH  12  13
ATOM     13  C   UNL     1      -1.840  -6.069   5.162  0.00  0.00    +0.150 C 
BRANCH  13  22
ATOM     14  C   UNL     1      -0.019   1.526   0.010  0.00  0.00    +0.007 C 
ATOM     15  C   UNL     1       0.002  -0.004   0.002  0.00  0.00    -0.012 C 
ATOM     16  C   UNL     1      -1.433  -0.525  -0.005  0.00  0.00    +0.008 C 
ATOM     17  C   UNL     1      -1.445  -2.057  -0.096  0.00  0.00    +0.033 C 
ATOM     18  C   UNL     1      -0.553  -2.568   1.033  0.00  0.00    -0.042 C 
ATOM     19  C   UNL     1      -0.928  -3.448   1.962  0.00  0.00    +0.071 C 
ATOM     20  C   UNL     1      -0.010  -3.701   3.104  0.00  0.00    +0.111 C 
ATOM     21  N   UNL     1      -0.317  -4.516   4.085  0.00  0.00    -0.227 NA
ATOM     22  C   UNL     1      -1.498  -5.132   4.032  0.00  0.00    +0.134 C 
ATOM     23  N   UNL     1      -2.385  -4.990   3.081  0.00  0.00    -0.160 NA
ATOM     24  C   UNL     1      -2.232  -4.190   2.010  0.00  0.00    +0.271 C 
ATOM     25  O   UNL     1      -3.086  -4.076   1.147  0.00  0.00    -0.268 OA
ATOM     26  S   UNL     1       1.412  -2.712   2.765  0.00  0.00    -0.097 S 
ATOM     27  C   UNL     1       0.874  -2.028   1.151  0.00  0.00    +0.080 C 
ATOM     28  C   UNL     1       0.760  -0.504   1.236  0.00  0.00    +0.022 C 
ENDBRANCH  13  22
ENDBRANCH  12  13
ENDBRANCH   1  12
BRANCH  11  29
ATOM     29  C   UNL     1      -5.912  -8.397   5.296  0.00  0.00    +0.125 C 
BRANCH  29  30
ATOM     30  C   UNL     1      -5.662  -9.440   4.205  0.00  0.00    +0.003 C 
BRANCH  30  31
ATOM     31  C   UNL     1      -6.716  -9.291   3.105  0.00  0.00    -0.078 C 
BRANCH  31  32
ATOM     32  N   UNL     1      -6.476 -10.292   2.058  0.00  0.00    +0.376 N 
ATOM     33  C   UNL     1      -6.679 -11.638   2.611  0.00  0.00    -0.097 C 
ATOM     34  C   UNL     1      -7.412 -10.073   0.947  0.00  0.00    -0.097 C 
ATOM     35  H   UNL     1      -5.528 -10.206   1.721  0.00  0.00    -0.083 HD
ENDBRANCH  31  32
ENDBRANCH  30  31
ENDBRANCH  29  30
ENDBRANCH  11  29
TORSDOF 7
