REMARK  Name = ZINC40311680
REMARK  3 active torsions:
REMARK  status: ('A' for Active; 'I' for Inactive)
REMARK    1  A    between atoms: C_4  and  C_7
REMARK    2  A    between atoms: N_17  and  S_18
REMARK    3  A    between atoms: S_18  and  C_21
REMARK                            x       y       z     vdW  Elec       q    Type
REMARK                         _______ _______ _______ _____ _____    ______ ____
ROOT
ATOM      1  C   UNL     1       4.000  -0.578   0.234  0.00  0.00    +0.140 C 
ATOM      2  C   UNL     1       4.126  -0.850  -1.244  0.00  0.00    -0.021 A 
ATOM      3  C   UNL     1       4.191   0.241  -2.100  0.00  0.00    +0.006 A 
ATOM      4  C   UNL     1       4.316   0.057  -3.461  0.00  0.00    +0.000 A 
ATOM      5  C   UNL     1       4.381  -1.225  -3.976  0.00  0.00    +0.000 A 
ATOM      6  C   UNL     1       4.313  -2.309  -3.127  0.00  0.00    +0.004 A 
ATOM      7  C   UNL     1       4.180  -2.127  -1.756  0.00  0.00    -0.041 A 
ATOM      8  C   UNL     1       4.085  -3.357  -0.894  0.00  0.00    +0.052 C 
ATOM      9  C   UNL     1       4.423  -3.031   0.560  0.00  0.00    +0.115 C 
ATOM     10  N   UNL     1       3.673  -1.822   0.938  0.00  0.00    -0.165 NA
ENDROOT
BRANCH   1  14
ATOM     11  C   UNL     1       0.899   2.286   0.891  0.00  0.00    +0.000 A 
ATOM     12  C   UNL     1       2.073   2.360   1.617  0.00  0.00    +0.000 A 
ATOM     13  C   UNL     1       3.076   1.433   1.404  0.00  0.00    +0.005 A 
ATOM     14  C   UNL     1       2.905   0.432   0.466  0.00  0.00    -0.024 A 
ATOM     15  C   UNL     1       1.731   0.358  -0.259  0.00  0.00    +0.005 A 
ATOM     16  C   UNL     1       0.728   1.286  -0.048  0.00  0.00    +0.000 A 
ENDBRANCH   1  14
BRANCH  10  17
ATOM     17  S   UNL     1       2.506  -1.866   2.113  0.00  0.00    +0.062 S 
ATOM     18  O   UNL     1       1.712  -0.701   1.940  0.00  0.00    -0.153 OA
ATOM     19  O   UNL     1       1.955  -3.176   2.089  0.00  0.00    -0.153 OA
BRANCH  17  20
ATOM     20  C   UNL     1       3.323  -1.693   3.665  0.00  0.00    +0.106 A 
ATOM     21  C   UNL     1       3.870  -2.800   4.285  0.00  0.00    +0.030 A 
ATOM     22  C   UNL     1       4.511  -2.665   5.502  0.00  0.00    +0.022 A 
ATOM     23  C   UNL     1       4.605  -1.420   6.099  0.00  0.00    +0.041 A 
ATOM     24  C   UNL     1       4.058  -0.312   5.478  0.00  0.00    +0.022 A 
ATOM     25  C   UNL     1       3.422  -0.448   4.258  0.00  0.00    +0.030 A 
ATOM     26 CL   UNL     1       5.410  -1.249   7.628  0.00  0.00    -0.084 Cl
ENDBRANCH  17  20
ENDBRANCH  10  17
TORSDOF 3
