REMARK  Name = ZINC40923989
REMARK  12 active torsions:
REMARK  status: ('A' for Active; 'I' for Inactive)
REMARK    1  A    between atoms: C_1  and  C_2
REMARK    2  A    between atoms: C_3  and  C_31
REMARK    3  A    between atoms: C_4  and  C_12
REMARK    4  A    between atoms: C_17  and  O_18
REMARK    5  A    between atoms: O_18  and  C_19
REMARK    6  A    between atoms: C_19  and  C_20
REMARK    7  A    between atoms: C_23  and  C_26
REMARK    8  A    between atoms: C_26  and  C_27
REMARK    9  A    between atoms: C_26  and  C_28
REMARK   10  A    between atoms: C_26  and  C_29
REMARK   11  A    between atoms: C_31  and  O_33
REMARK   12  A    between atoms: O_33  and  C_34
REMARK                            x       y       z     vdW  Elec       q    Type
REMARK                         _______ _______ _______ _____ _____    ______ ____
ROOT
ATOM      1  C   UNL     1      -1.723  -2.643   1.360  0.00  0.00    +0.024 A 
ATOM      2  C   UNL     1      -0.985  -2.346   2.490  0.00  0.00    +0.025 A 
ATOM      3  C   UNL     1      -1.414  -2.779   3.731  0.00  0.00    +0.018 A 
ATOM      4  C   UNL     1      -2.583  -3.510   3.845  0.00  0.00    +0.019 A 
ATOM      5  C   UNL     1      -3.325  -3.808   2.719  0.00  0.00    +0.047 A 
ATOM      6  C   UNL     1      -2.899  -3.371   1.473  0.00  0.00    +0.127 A 
ATOM      7 BR   UNL     1      -0.401  -2.372   5.275  0.00  0.00    -0.050 Br
ENDROOT
BRANCH   1  11
ATOM      8  C   UNL     1      -0.018   1.503   0.010  0.00  0.00    +0.061 C 
ATOM      9  C   UNL     1       0.002  -0.004   0.002  0.00  0.00    +0.020 C 
ATOM     10  C   UNL     1      -1.165  -0.668   0.004  0.00  0.00    +0.082 C 
ATOM     11  C   UNL     1      -1.255  -2.171   0.008  0.00  0.00    +0.184 C 
ATOM     12  N   UNL     1       0.058  -2.736  -0.277  0.00  0.00    -0.201 N 
ATOM     13  C   UNL     1       1.208  -2.011  -0.275  0.00  0.00    +0.240 A 
ATOM     14  N   UNL     1       2.180  -2.829  -0.561  0.00  0.00    -0.092 NA
ATOM     15  N   UNL     1       1.723  -4.020  -0.747  0.00  0.00    -0.021 NA
ATOM     16  N   UNL     1       0.438  -4.039  -0.592  0.00  0.00    -0.042 NA
ATOM     17  N   UNL     1       1.213  -0.650  -0.013  0.00  0.00    -0.286 N 
ATOM     18  H   UNL     1       2.041  -0.174   0.157  0.00  0.00    +0.155 HD
BRANCH  10  19
ATOM     19  C   UNL     1      -2.364   0.079   0.003  0.00  0.00    +0.339 C 
ATOM     20  O   UNL     1      -2.323   1.295   0.001  0.00  0.00    -0.245 OA
BRANCH  19  21
ATOM     21  O   UNL     1      -3.554  -0.556   0.005  0.00  0.00    -0.465 OA
ATOM     22  C   UNL     1      -4.726   0.262   0.004  0.00  0.00    +0.280 C 
ENDBRANCH  19  21
ENDBRANCH  10  19
ENDBRANCH   1  11
BRANCH   6  23
ATOM     23  O   UNL     1      -3.630  -3.659   0.364  0.00  0.00    -0.487 OA
BRANCH  23  24
ATOM     24  C   UNL     1      -4.829  -4.412   0.555  0.00  0.00    +0.264 C 
BRANCH  24  25
ATOM     25  C   UNL     1      -5.500  -4.634  -0.776  0.00  0.00    -0.010 A 
ATOM     26  C   UNL     1      -6.420  -3.716  -1.248  0.00  0.00    +0.007 A 
ATOM     27  C   UNL     1      -7.035  -3.919  -2.469  0.00  0.00    +0.004 A 
ATOM     28  C   UNL     1      -6.731  -5.040  -3.218  0.00  0.00    -0.042 A 
ATOM     29  C   UNL     1      -5.811  -5.958  -2.747  0.00  0.00    +0.004 A 
ATOM     30  C   UNL     1      -5.192  -5.752  -1.528  0.00  0.00    +0.007 A 
BRANCH  28  31
ATOM     31  C   UNL     1      -7.403  -5.263  -4.549  0.00  0.00    -0.013 C 
ATOM     32  C   UNL     1      -7.082  -4.095  -5.484  0.00  0.00    +0.015 C 
ATOM     33  C   UNL     1      -6.893  -6.566  -5.167  0.00  0.00    +0.015 C 
ATOM     34  C   UNL     1      -8.917  -5.353  -4.347  0.00  0.00    +0.015 C 
ENDBRANCH  28  31
ENDBRANCH  24  25
ENDBRANCH  23  24
ENDBRANCH   6  23
TORSDOF 7
