REMARK  Name = ZINC39672956
REMARK  8 active torsions:
REMARK  status: ('A' for Active; 'I' for Inactive)
REMARK    1  A    between atoms: C_1  and  C_2
REMARK    2  A    between atoms: C_2  and  O_3
REMARK    3  A    between atoms: O_3  and  C_4
REMARK    4  A    between atoms: C_8  and  C_10
REMARK    5  A    between atoms: C_14  and  C_23
REMARK    6  A    between atoms: N_25  and  C_26
REMARK    7  A    between atoms: C_26  and  C_27
REMARK    8  A    between atoms: C_27  and  N_33
REMARK                            x       y       z     vdW  Elec       q    Type
REMARK                         _______ _______ _______ _____ _____    ______ ____
ROOT
ATOM      1  C   UNL     1       2.432  -4.337  -4.244  0.00  0.00    +0.247 C 
ATOM      2  O   UNL     1       2.883  -3.664  -5.150  0.00  0.00    -0.270 OA
ATOM      3  N   UNL     1       2.596  -5.675  -4.252  0.00  0.00    -0.296 N 
ATOM      4  C   UNL     1       2.025  -6.666  -3.309  0.00  0.00    +0.121 C 
ATOM      5  C   UNL     1       1.637  -7.870  -4.196  0.00  0.00    +0.100 C 
ATOM      6  C   UNL     1       2.536  -7.749  -5.438  0.00  0.00    -0.004 C 
ATOM      7  C   UNL     1       3.383  -6.488  -5.210  0.00  0.00    +0.115 C 
ATOM      8  C   UNL     1       1.684  -7.584  -6.693  0.00  0.00    -0.010 C 
ATOM      9  C   UNL     1       2.598  -7.523  -7.920  0.00  0.00    -0.082 C 
ATOM     10  N   UNL     1       3.393  -8.754  -8.002  0.00  0.00    +0.379 N 
ATOM     11  C   UNL     1       4.278  -8.858  -6.835  0.00  0.00    -0.082 C 
ATOM     12  C   UNL     1       3.435  -8.975  -5.562  0.00  0.00    -0.010 C 
ATOM     13  H   UNL     1       2.775  -9.551  -8.026  0.00  0.00    -0.086 HD
ATOM     14  H   UNL     1       3.949  -8.738  -8.844  0.00  0.00    -0.086 HD
ENDROOT
BRANCH   1  19
ATOM     15  C   UNL     1       0.919  -3.710  -0.860  0.00  0.00    +0.121 A 
ATOM     16  C   UNL     1       0.332  -2.467  -1.056  0.00  0.00    +0.046 A 
ATOM     17  C   UNL     1       0.429  -1.836  -2.282  0.00  0.00    +0.004 A 
ATOM     18  C   UNL     1       1.109  -2.439  -3.321  0.00  0.00    +0.013 A 
ATOM     19  C   UNL     1       1.702  -3.688  -3.134  0.00  0.00    +0.040 A 
ATOM     20  C   UNL     1       1.609  -4.321  -1.894  0.00  0.00    +0.058 A 
BRANCH  15  21
ATOM     21  O   UNL     1       0.820  -4.325   0.347  0.00  0.00    -0.492 OA
BRANCH  21  23
ATOM     22  C   UNL     1       0.091  -4.479   2.646  0.00  0.00    +0.048 C 
ATOM     23  C   UNL     1       0.094  -3.638   1.368  0.00  0.00    +0.225 C 
ENDBRANCH  21  23
ENDBRANCH  15  21
ENDBRANCH   1  19
BRANCH   5  24
ATOM     24  C   UNL     1       1.909  -9.164  -3.473  0.00  0.00    +0.218 C 
ATOM     25  O   UNL     1       2.752  -9.205  -2.601  0.00  0.00    -0.275 OA
ATOM     26  N   UNL     1       1.217 -10.274  -3.795  0.00  0.00    -0.313 N 
ATOM     27  H   UNL     1       0.544 -10.241  -4.492  0.00  0.00    +0.149 HD
BRANCH  26  28
ATOM     28  C   UNL     1       1.482 -11.532  -3.091  0.00  0.00    +0.126 C 
BRANCH  28  29
ATOM     29  C   UNL     1       0.485 -12.596  -3.556  0.00  0.00    +0.038 C 
ATOM     30  C   UNL     1       0.677 -13.870  -2.731  0.00  0.00    +0.024 C 
ATOM     31  C   UNL     1       2.104 -14.390  -2.920  0.00  0.00    +0.002 C 
ATOM     32  C   UNL     1       2.341 -14.700  -4.399  0.00  0.00    +0.000 C 
ATOM     33  C   UNL     1       2.149 -13.426  -5.225  0.00  0.00    +0.002 C 
ATOM     34  C   UNL     1       0.723 -12.906  -5.035  0.00  0.00    +0.024 C 
BRANCH  29  35
ATOM     35  N   UNL     1      -0.884 -12.096  -3.374  0.00  0.00    -0.291 NA
ATOM     36  C   UNL     1      -1.090 -11.611  -2.002  0.00  0.00    +0.113 C 
ATOM     37  C   UNL     1      -2.507 -11.046  -1.873  0.00  0.00    +0.175 C 
ATOM     38  O   UNL     1      -3.452 -12.056  -2.238  0.00  0.00    -0.377 OA
ATOM     39  C   UNL     1      -3.281 -12.551  -3.569  0.00  0.00    +0.175 C 
ATOM     40  C   UNL     1      -1.872 -13.131  -3.715  0.00  0.00    +0.113 C 
ENDBRANCH  29  35
ENDBRANCH  28  29
ENDBRANCH  26  28
ENDBRANCH   5  24
TORSDOF 7
