REMARK  Name = ZINC18166959
REMARK  6 active torsions:
REMARK  status: ('A' for Active; 'I' for Inactive)
REMARK    1  A    between atoms: C_1  and  C_2
REMARK    2  A    between atoms: C_2  and  C_4
REMARK    3  A    between atoms: C_7  and  N_10
REMARK    4  A    between atoms: C_26  and  C_32
REMARK    5  A    between atoms: C_32  and  C_34
REMARK    6  A    between atoms: C_37  and  N_40
REMARK                            x       y       z     vdW  Elec       q    Type
REMARK                         _______ _______ _______ _____ _____    ______ ____
ROOT
ATOM      1  N   UNL     1      -0.008  -2.796  -4.896  0.00  0.00    -0.210 N 
ATOM      2  C   UNL     1       0.097  -4.132  -4.973  0.00  0.00    +0.232 C 
ATOM      3  O   UNL     1       0.326  -4.879  -4.047  0.00  0.00    -0.274 OA
ATOM      4  C   UNL     1      -0.120  -4.550  -6.414  0.00  0.00    +0.115 C 
ATOM      5  C   UNL     1       1.013  -5.473  -6.866  0.00  0.00    +0.117 C 
ATOM      6  C   UNL     1       0.489  -6.599  -7.721  0.00  0.00    -0.019 A 
ATOM      7  C   UNL     1      -0.737  -7.168  -7.468  0.00  0.00    +0.006 A 
ATOM      8  C   UNL     1      -1.200  -8.198  -8.270  0.00  0.00    +0.000 A 
ATOM      9  C   UNL     1      -0.433  -8.657  -9.327  0.00  0.00    +0.001 A 
ATOM     10  C   UNL     1       0.799  -8.096  -9.589  0.00  0.00    +0.008 A 
ATOM     11  C   UNL     1       1.275  -7.059  -8.784  0.00  0.00    -0.019 A 
ATOM     12  C   UNL     1       2.599  -6.460  -9.049  0.00  0.00    +0.023 C 
ATOM     13  C   UNL     1       2.902  -5.263  -8.509  0.00  0.00    +0.072 C 
ATOM     14  N   UNL     1       1.942  -4.677  -7.689  0.00  0.00    -0.317 N 
ATOM     15  C   UNL     1       1.608  -3.263  -7.550  0.00  0.00    +0.157 C 
ATOM     16  C   UNL     1       0.093  -3.211  -7.179  0.00  0.00    +0.118 C 
ATOM     17  C   UNL     1      -0.121  -2.184  -6.083  0.00  0.00    +0.232 C 
ATOM     18  O   UNL     1      -0.354  -1.006  -6.253  0.00  0.00    -0.274 OA
ENDROOT
BRANCH   1  22
ATOM     19  C   UNL     1       0.001  -0.733  -1.274  0.00  0.00    +0.017 A 
ATOM     20  C   UNL     1      -1.156  -0.762  -2.062  0.00  0.00    +0.013 A 
ATOM     21  C   UNL     1      -1.153  -1.444  -3.257  0.00  0.00    +0.024 A 
ATOM     22  C   UNL     1      -0.005  -2.104  -3.682  0.00  0.00    +0.044 A 
ATOM     23  C   UNL     1       1.147  -2.078  -2.902  0.00  0.00    +0.024 A 
ATOM     24  C   UNL     1       1.156  -1.394  -1.708  0.00  0.00    +0.013 A 
BRANCH  19  26
ATOM     25  C   UNL     1      -1.241   0.704   0.469  0.00  0.00    +0.091 C 
ATOM     26  C   UNL     1       0.004  -0.006   0.003  0.00  0.00    +0.160 C 
ATOM     27  O   UNL     1       1.008   0.022   0.683  0.00  0.00    -0.292 OA
ENDBRANCH  19  26
ENDBRANCH   1  22
BRANCH  15  28
ATOM     28  C   UNL     1       2.435  -2.640  -6.454  0.00  0.00    +0.184 C 
ATOM     29  O   UNL     1       3.047  -3.345  -5.681  0.00  0.00    -0.290 OA
BRANCH  28  30
ATOM     30  C   UNL     1       2.498  -1.175  -6.322  0.00  0.00    +0.019 A 
ATOM     31  C   UNL     1       1.789  -0.358  -7.209  0.00  0.00    +0.013 A 
ATOM     32  C   UNL     1       1.854   1.013  -7.079  0.00  0.00    +0.033 A 
ATOM     33  C   UNL     1       2.619   1.581  -6.075  0.00  0.00    +0.126 A 
ATOM     34  C   UNL     1       3.324   0.779  -5.194  0.00  0.00    +0.033 A 
ATOM     35  C   UNL     1       3.264  -0.594  -5.307  0.00  0.00    +0.013 A 
BRANCH  33  36
ATOM     36  N   UNL     1       2.684   3.054  -5.943  0.00  0.00    +0.056 N 
ATOM     37  O   UNL     1       2.070   3.757  -6.711  0.00  0.00    -0.126 OA
ATOM     38  O   UNL     1       3.351   3.554  -5.068  0.00  0.00    -0.126 OA
ENDBRANCH  33  36
ENDBRANCH  28  30
ENDBRANCH  15  28
TORSDOF 5
