REMARK  Name = ZINC64721035
REMARK  4 active torsions:
REMARK  status: ('A' for Active; 'I' for Inactive)
REMARK    1  A    between atoms: C_7  and  C_10
REMARK    2  A    between atoms: C_10  and  C_11
REMARK    3  A    between atoms: C_11  and  C_12
REMARK    4  A    between atoms: C_22  and  C_24
REMARK                            x       y       z     vdW  Elec       q    Type
REMARK                         _______ _______ _______ _____ _____    ______ ____
ROOT
ATOM      1  C   UNL     1      -0.484  -4.830  -1.460  0.00  0.00    +0.217 C 
ATOM      2  O   UNL     1      -0.925  -5.254  -0.412  0.00  0.00    -0.276 OA
ATOM      3  N   UNL     1      -0.837  -5.413  -2.623  0.00  0.00    -0.290 N 
ATOM      4  C   UNL     1      -0.305  -4.912  -3.899  0.00  0.00    +0.114 C 
ATOM      5  C   UNL     1      -1.475  -4.359  -4.726  0.00  0.00    +0.062 C 
ATOM      6  C   UNL     1      -2.626  -5.306  -4.622  0.00  0.00    -0.003 A 
ATOM      7  C   UNL     1      -2.811  -6.300  -3.711  0.00  0.00    -0.012 A 
ATOM      8  C   UNL     1      -3.983  -7.044  -3.826  0.00  0.00    +0.013 A 
ATOM      9  C   UNL     1      -4.867  -6.767  -4.812  0.00  0.00    +0.046 A 
ATOM     10  S   UNL     1      -4.069  -5.405  -5.648  0.00  0.00    -0.101 S 
ATOM     11  C   UNL     1      -1.754  -6.561  -2.634  0.00  0.00    +0.144 C 
ENDROOT
BRANCH  11  12
ATOM     12  C   UNL     1      -0.991  -7.820  -2.956  0.00  0.00    +0.015 A 
ATOM     13  C   UNL     1      -1.128  -9.061  -2.427  0.00  0.00    +0.013 A 
ATOM     14  C   UNL     1      -0.310 -10.078  -2.881  0.00  0.00    +0.008 A 
ATOM     15  C   UNL     1       0.606  -9.805  -3.842  0.00  0.00    +0.045 A 
ATOM     16  S   UNL     1       0.323  -8.067  -4.139  0.00  0.00    -0.099 S 
ENDBRANCH  11  12
BRANCH   1  17
ATOM     17  C   UNL     1       0.457  -3.653  -1.462  0.00  0.00    +0.100 C 
BRANCH  17  18
ATOM     18  C   UNL     1       0.691  -3.186  -0.024  0.00  0.00    +0.042 C 
BRANCH  18  25
ATOM     19  C   UNL     1      -0.016   1.348   0.009  0.00  0.00    +0.001 A 
ATOM     20  C   UNL     1       1.166   2.101   0.002  0.00  0.00    +0.002 A 
ATOM     21  C   UNL     1       2.391   1.535  -0.013  0.00  0.00    +0.026 A 
ATOM     22  C   UNL     1       2.529   0.120  -0.022  0.00  0.00    +0.043 A 
ATOM     23  N   UNL     1       3.587  -0.654  -0.037  0.00  0.00    -0.380 N 
ATOM     24  C   UNL     1       3.143  -2.053  -0.041  0.00  0.00    +0.144 C 
ATOM     25  C   UNL     1       1.631  -2.008  -0.025  0.00  0.00    -0.041 C 
ATOM     26  C   UNL     1       1.295  -0.698  -0.014  0.00  0.00    -0.001 A 
ATOM     27  C   UNL     1       0.002  -0.004   0.002  0.00  0.00    +0.010 A 
ATOM     28  H   UNL     1       4.509  -0.353  -0.045  0.00  0.00    +0.160 HD
ENDBRANCH  18  25
ENDBRANCH  17  18
ENDBRANCH   1  17
TORSDOF 4
