REMARK  Name = ZINC39631248
REMARK  11 active torsions:
REMARK  status: ('A' for Active; 'I' for Inactive)
REMARK    1  A    between atoms: C_1  and  C_2
REMARK    2  A    between atoms: C_2  and  C_4
REMARK    3  A    between atoms: C_2  and  N_11
REMARK    4  A    between atoms: C_4  and  C_5
REMARK    5  A    between atoms: C_5  and  C_6
REMARK    6  A    between atoms: C_6  and  C_7
REMARK    7  A    between atoms: C_7  and  C_8
REMARK    8  A    between atoms: C_7  and  C_9
REMARK    9  A    between atoms: C_7  and  O_10
REMARK   10  A    between atoms: C_12  and  C_14
REMARK   11  A    between atoms: C_25  and  C_27
REMARK                            x       y       z     vdW  Elec       q    Type
REMARK                         _______ _______ _______ _____ _____    ______ ____
ROOT
ATOM      1  C   UNL     1       2.431  -1.714   3.676  0.00  0.00    +0.100 C 
ATOM      2  C   UNL     1       2.096  -3.200   3.940  0.00  0.00    +0.121 C 
ATOM      3  N   UNL     1       3.314  -3.937   3.527  0.00  0.00    -0.296 N 
ATOM      4  C   UNL     1       4.435  -3.085   3.991  0.00  0.00    +0.115 C 
ATOM      5  C   UNL     1       3.966  -1.643   3.714  0.00  0.00    -0.004 C 
ATOM      6  C   UNL     1       4.425  -0.714   4.835  0.00  0.00    -0.010 C 
ATOM      7  C   UNL     1       5.952  -0.613   4.815  0.00  0.00    -0.082 C 
ATOM      8  N   UNL     1       6.394  -0.097   3.514  0.00  0.00    +0.379 N 
ATOM      9  C   UNL     1       6.031  -1.043   2.451  0.00  0.00    -0.082 C 
ATOM     10  C   UNL     1       4.506  -1.162   2.371  0.00  0.00    -0.010 C 
ATOM     11  C   UNL     1       3.385  -5.115   2.878  0.00  0.00    +0.249 C 
ATOM     12  O   UNL     1       4.465  -5.642   2.692  0.00  0.00    -0.270 OA
ATOM     13  H   UNL     1       5.950   0.792   3.337  0.00  0.00    -0.086 HD
ATOM     14  H   UNL     1       7.395   0.026   3.525  0.00  0.00    -0.086 HD
ENDROOT
BRANCH  11  15
ATOM     15  C   UNL     1       2.152  -5.767   2.392  0.00  0.00    +0.073 A 
ATOM     16  C   UNL     1       1.747  -5.601   1.065  0.00  0.00    +0.054 A 
ATOM     17  C   UNL     1       0.593  -6.214   0.617  0.00  0.00    +0.021 A 
ATOM     18  C   UNL     1      -0.161  -6.989   1.479  0.00  0.00    +0.003 A 
ATOM     19  C   UNL     1       0.234  -7.158   2.794  0.00  0.00    +0.021 A 
ATOM     20  C   UNL     1       1.388  -6.557   3.255  0.00  0.00    +0.054 A 
ATOM     21 CL   UNL     1       1.886  -6.776   4.903  0.00  0.00    -0.083 Cl
ATOM     22 CL   UNL     1       2.691  -4.627  -0.019  0.00  0.00    -0.083 Cl
ENDBRANCH  11  15
BRANCH   1  24
ATOM     23  N   UNL     1       1.697   0.009   2.061  0.00  0.00    -0.312 N 
ATOM     24  C   UNL     1       1.919  -1.294   2.323  0.00  0.00    +0.218 C 
ATOM     25  O   UNL     1       1.707  -2.128   1.469  0.00  0.00    -0.275 OA
ATOM     26  H   UNL     1       1.935   0.683   2.717  0.00  0.00    +0.149 HD
BRANCH  23  28
ATOM     27  C   UNL     1       2.180   0.465  -0.293  0.00  0.00    +0.028 C 
ATOM     28  C   UNL     1       1.097   0.409   0.786  0.00  0.00    +0.070 C 
BRANCH  28  29
ATOM     29  C   UNL     1       0.454   1.789   0.935  0.00  0.00    +0.022 C 
BRANCH  29  30
ATOM     30  C   UNL     1      -0.694   1.711   1.944  0.00  0.00    +0.005 C 
BRANCH  30  31
ATOM     31  C   UNL     1      -1.416   3.059   2.001  0.00  0.00    +0.034 C 
BRANCH  31  32
ATOM     32  C   UNL     1      -2.641   2.943   2.910  0.00  0.00    +0.061 C 
ATOM     33  C   UNL     1      -2.196   2.548   4.319  0.00  0.00    +0.041 C 
ATOM     34  C   UNL     1      -3.366   4.290   2.963  0.00  0.00    +0.041 C 
BRANCH  32  35
ATOM     35  O   UNL     1      -3.525   1.947   2.393  0.00  0.00    -0.389 OA
ATOM     36  H   UNL     1      -3.848   2.132   1.500  0.00  0.00    +0.210 HD
ENDBRANCH  32  35
ENDBRANCH  31  32
ENDBRANCH  30  31
ENDBRANCH  29  30
ENDBRANCH  28  29
ENDBRANCH  23  28
ENDBRANCH   1  24
TORSDOF 8
