REMARK  Name = ZINC24877552
REMARK  13 active torsions:
REMARK  status: ('A' for Active; 'I' for Inactive)
REMARK    1  A    between atoms: C_1  and  C_2
REMARK    2  A    between atoms: C_5  and  C_36
REMARK    3  A    between atoms: C_6  and  N_8
REMARK    4  A    between atoms: C_21  and  S_22
REMARK    5  A    between atoms: S_22  and  C_23
REMARK    6  A    between atoms: C_23  and  C_25
REMARK    7  A    between atoms: C_23  and  C_26
REMARK    8  A    between atoms: N_28  and  C_29
REMARK    9  A    between atoms: C_29  and  C_30
REMARK   10  A    between atoms: C_29  and  C_31
REMARK   11  A    between atoms: C_29  and  C_33
REMARK   12  A    between atoms: C_33  and  C_34
REMARK   13  A    between atoms: C_33  and  C_35
REMARK                            x       y       z     vdW  Elec       q    Type
REMARK                         _______ _______ _______ _____ _____    ______ ____
ROOT
ATOM      1  N   UNL     1       9.693   2.029  -2.537  0.00  0.00    -0.245 N 
ATOM      2  C   UNL     1       9.995   1.076  -3.444  0.00  0.00    +0.268 A 
ATOM      3  O   UNL     1      11.141   0.926  -3.823  0.00  0.00    -0.267 OA
ATOM      4  C   UNL     1       8.915   0.221  -3.968  0.00  0.00    +0.064 A 
ATOM      5  C   UNL     1       9.173  -0.777  -4.906  0.00  0.00    +0.015 A 
ATOM      6  C   UNL     1       8.137  -1.557  -5.374  0.00  0.00    +0.001 A 
ATOM      7  C   UNL     1       6.845  -1.354  -4.916  0.00  0.00    +0.002 A 
ATOM      8  C   UNL     1       6.576  -0.368  -3.987  0.00  0.00    +0.027 A 
ATOM      9  C   UNL     1       7.605   0.426  -3.505  0.00  0.00    +0.064 A 
ATOM     10  N   UNL     1       7.367   1.425  -2.569  0.00  0.00    -0.255 N 
ATOM     11  C   UNL     1       8.390   2.207  -2.098  0.00  0.00    +0.245 A 
ATOM     12  N   UNL     1       7.862   3.048  -1.241  0.00  0.00    -0.109 NA
ATOM     13  N   UNL     1       6.595   2.850  -1.151  0.00  0.00    -0.120 NA
ATOM     14  C   UNL     1       6.235   1.865  -1.937  0.00  0.00    +0.198 A 
ENDROOT
BRANCH   1  20
ATOM     15  C   UNL     1      13.165   2.868   0.842  0.00  0.00    +0.044 C 
ATOM     16  C   UNL     1      12.408   3.279  -0.395  0.00  0.00    -0.048 A 
ATOM     17  C   UNL     1      12.719   4.466  -1.033  0.00  0.00    +0.004 A 
ATOM     18  C   UNL     1      12.027   4.846  -2.168  0.00  0.00    +0.005 A 
ATOM     19  C   UNL     1      11.027   4.038  -2.672  0.00  0.00    -0.026 A 
ATOM     20  C   UNL     1      10.709   2.848  -2.031  0.00  0.00    +0.056 A 
ATOM     21  C   UNL     1      11.406   2.469  -0.891  0.00  0.00    +0.030 A 
ATOM     22  C   UNL     1      10.277   4.450  -3.913  0.00  0.00    +0.046 C 
ENDBRANCH   1  20
BRANCH  14  23
ATOM     23  S   UNL     1       4.604   1.232  -2.146  0.00  0.00    -0.073 S 
BRANCH  23  24
ATOM     24  C   UNL     1       3.594   2.246  -1.031  0.00  0.00    +0.137 C 
ATOM     25  C   UNL     1       3.599   3.696  -1.517  0.00  0.00    +0.029 C 
BRANCH  24  26
ATOM     26  C   UNL     1       2.180   1.724  -1.020  0.00  0.00    +0.227 C 
ATOM     27  O   UNL     1       1.784   1.026  -1.930  0.00  0.00    -0.275 OA
ATOM     28  N   UNL     1       1.356   2.033   0.000  0.00  0.00    -0.296 N 
ATOM     29  H   UNL     1       1.715   2.666   0.825  0.00  0.00    +0.150 HD
BRANCH  28  30
ATOM     30  C   UNL     1      -0.019   1.526   0.010  0.00  0.00    +0.121 C 
ATOM     31  C   UNL     1       0.002  -0.004   0.002  0.00  0.00    +0.048 C 
BRANCH  30  32
ATOM     32  C   UNL     1      -0.735   2.019   1.269  0.00  0.00    +0.020 C 
ATOM     33  C   UNL     1      -0.866   3.543   1.217  0.00  0.00    +0.010 C 
ATOM     34  C   UNL     1      -2.127   1.390   1.344  0.00  0.00    +0.010 C 
ENDBRANCH  30  32
BRANCH  30  35
ATOM     35  C   UNL     1      -0.731   2.013  -1.182  0.00  0.00    +0.088 C 
ATOM     36  N   UNL     1      -1.280   2.390  -2.102  0.00  0.00    -0.194 NA
ENDBRANCH  30  35
ENDBRANCH  28  30
ENDBRANCH  24  26
ENDBRANCH  23  24
ENDBRANCH  14  23
TORSDOF 7
