REMARK  Name = ZINC01177553
REMARK  8 active torsions:
REMARK  status: ('A' for Active; 'I' for Inactive)
REMARK    1  A    between atoms: C_1  and  C_2
REMARK    2  A    between atoms: C_2  and  O_3
REMARK    3  A    between atoms: O_3  and  C_4
REMARK    4  A    between atoms: C_6  and  C_11
REMARK    5  A    between atoms: C_9  and  O_10
REMARK    6  A    between atoms: C_14  and  C_25
REMARK    7  A    between atoms: C_20  and  N_24
REMARK    8  A    between atoms: C_21  and  C_22
REMARK                            x       y       z     vdW  Elec       q    Type
REMARK                         _______ _______ _______ _____ _____    ______ ____
ROOT
ATOM      1  C   UNL     1       0.654  -4.954  -0.018  0.00  0.00    +0.102 C 
ATOM      2  C   UNL     1       0.635  -5.842   1.199  0.00  0.00    +0.054 A 
ATOM      3  C   UNL     1       0.878  -5.516   2.536  0.00  0.00    +0.100 A 
ATOM      4  N   UNL     1       0.748  -6.616   3.253  0.00  0.00    -0.171 NA
ATOM      5  N   UNL     1       0.420  -7.671   2.387  0.00  0.00    -0.246 N 
ATOM      6  H   UNL     1       0.266  -8.593   2.645  0.00  0.00    +0.192 HD
ATOM      7  C   UNL     1       0.356  -7.177   1.134  0.00  0.00    +0.223 A 
ATOM      8  O   UNL     1       0.077  -7.811  -0.033  0.00  0.00    -0.423 OA
ATOM      9  C   UNL     1       0.346  -7.154  -1.180  0.00  0.00    +0.200 C 
ATOM     10  C   UNL     1       0.623  -5.832  -1.244  0.00  0.00    +0.098 C 
ENDROOT
BRANCH   3  11
ATOM     11  C   UNL     1       1.221  -4.169   3.058  0.00  0.00    +0.004 A 
ATOM     12  C   UNL     1       2.003  -3.303   2.297  0.00  0.00    +0.011 A 
ATOM     13  C   UNL     1       2.320  -2.052   2.786  0.00  0.00    +0.022 A 
ATOM     14  C   UNL     1       1.861  -1.656   4.030  0.00  0.00    +0.059 A 
ATOM     15  C   UNL     1       1.083  -2.513   4.791  0.00  0.00    +0.060 A 
ATOM     16  C   UNL     1       0.756  -3.765   4.307  0.00  0.00    +0.031 A 
ATOM     17 CL   UNL     1       0.511  -2.010   6.351  0.00  0.00    -0.082 Cl
ATOM     18 CL   UNL     1       2.264  -0.081   4.640  0.00  0.00    -0.082 Cl
ENDBRANCH   3  11
BRANCH   1  21
ATOM     19  C   UNL     1      -1.498  -1.849   0.006  0.00  0.00    +0.162 A 
ATOM     20  C   UNL     1      -0.389  -2.680  -0.003  0.00  0.00    +0.054 A 
ATOM     21  C   UNL     1      -0.553  -4.052  -0.008  0.00  0.00    -0.031 A 
ATOM     22  C   UNL     1      -1.823  -4.600  -0.005  0.00  0.00    +0.008 A 
ATOM     23  C   UNL     1      -2.934  -3.777   0.004  0.00  0.00    +0.049 A 
ATOM     24  C   UNL     1      -2.776  -2.400   0.016  0.00  0.00    +0.158 A 
BRANCH  24  25
ATOM     25  O   UNL     1      -3.868  -1.589   0.030  0.00  0.00    -0.503 OA
ATOM     26  H   UNL     1      -4.192  -1.350  -0.849  0.00  0.00    +0.292 HD
ENDBRANCH  24  25
BRANCH  19  27
ATOM     27  O   UNL     1      -1.339  -0.499   0.012  0.00  0.00    -0.489 OA
BRANCH  27  29
ATOM     28  C   UNL     1      -0.019   1.526   0.010  0.00  0.00    +0.048 C 
ATOM     29  C   UNL     1       0.002  -0.004   0.002  0.00  0.00    +0.226 C 
ENDBRANCH  27  29
ENDBRANCH  19  27
ENDBRANCH   1  21
BRANCH   9  30
ATOM     30  N   UNL     1       0.337  -7.870  -2.351  0.00  0.00    -0.328 N 
ATOM     31  H   UNL     1       0.141  -8.820  -2.338  0.00  0.00    +0.145 HD
ATOM     32  H   UNL     1       0.526  -7.426  -3.193  0.00  0.00    +0.145 HD
ENDBRANCH   9  30
BRANCH  10  33
ATOM     33  C   UNL     1       0.898  -5.245  -2.521  0.00  0.00    +0.101 C 
ATOM     34  N   UNL     1       1.115  -4.779  -3.534  0.00  0.00    -0.191 NA
ENDBRANCH  10  33
TORSDOF 7
