REMARK  Name = ZINC09441388
REMARK  8 active torsions:
REMARK  status: ('A' for Active; 'I' for Inactive)
REMARK    1  A    between atoms: C_1  and  C_2
REMARK    2  A    between atoms: C_2  and  O_3
REMARK    3  A    between atoms: O_3  and  C_4
REMARK    4  A    between atoms: C_4  and  C_6
REMARK    5  A    between atoms: N_9  and  C_12
REMARK    6  A    between atoms: C_10  and  N_11
REMARK    7  A    between atoms: C_21  and  C_32
REMARK    8  A    between atoms: C_23  and  C_25
REMARK                            x       y       z     vdW  Elec       q    Type
REMARK                         _______ _______ _______ _____ _____    ______ ____
ROOT
ATOM      1  C   UNL     1       1.448  -2.344  -2.514  0.00  0.00    +0.106 A 
ATOM      2  C   UNL     1       2.869  -2.667  -2.651  0.00  0.00    +0.040 A 
ATOM      3  C   UNL     1       3.050  -3.139  -3.903  0.00  0.00    +0.214 A 
ATOM      4  N   UNL     1       1.848  -3.138  -4.559  0.00  0.00    -0.268 N 
ATOM      5  C   UNL     1       0.866  -2.666  -3.738  0.00  0.00    +0.118 A 
ATOM      6  O   UNL     1       4.268  -3.535  -4.378  0.00  0.00    -0.424 OA
ATOM      7  C   UNL     1       5.240  -3.639  -3.430  0.00  0.00    +0.209 C 
ATOM      8  N   UNL     1       6.076  -4.623  -3.441  0.00  0.00    -0.269 NA
ATOM      9  C   UNL     1       5.312  -2.566  -2.365  0.00  0.00    +0.188 C 
ATOM     10  C   UNL     1       3.964  -2.523  -1.625  0.00  0.00    +0.081 C 
ATOM     11  H   UNL     1       6.763  -4.683  -2.759  0.00  0.00    +0.190 HD
ENDROOT
BRANCH  10  12
ATOM     12  C   UNL     1       3.889  -3.659  -0.637  0.00  0.00    -0.038 A 
ATOM     13  C   UNL     1       4.021  -4.964  -1.073  0.00  0.00    +0.005 A 
ATOM     14  C   UNL     1       3.953  -6.005  -0.167  0.00  0.00    +0.015 A 
ATOM     15  C   UNL     1       3.752  -5.742   1.176  0.00  0.00    +0.018 A 
ATOM     16  C   UNL     1       3.621  -4.435   1.612  0.00  0.00    +0.015 A 
ATOM     17  C   UNL     1       3.695  -3.394   0.706  0.00  0.00    +0.005 A 
ATOM     18 BR   UNL     1       3.658  -7.166   2.416  0.00  0.00    -0.050 Br
ENDBRANCH  10  12
BRANCH   4  19
ATOM     19  C   UNL     1       1.654  -3.564  -5.881  0.00  0.00    +0.051 A 
ATOM     20  C   UNL     1       2.252  -2.877  -6.928  0.00  0.00    +0.026 A 
ATOM     21  C   UNL     1       2.059  -3.300  -8.229  0.00  0.00    +0.002 A 
ATOM     22  C   UNL     1       1.272  -4.406  -8.488  0.00  0.00    +0.000 A 
ATOM     23  C   UNL     1       0.675  -5.093  -7.447  0.00  0.00    +0.002 A 
ATOM     24  C   UNL     1       0.868  -4.678  -6.144  0.00  0.00    +0.026 A 
ENDBRANCH   4  19
BRANCH   5  25
ATOM     25  N   UNL     1      -0.469  -2.530  -4.064  0.00  0.00    -0.343 N 
ATOM     26  H   UNL     1      -1.095  -2.181  -3.410  0.00  0.00    +0.144 HD
ATOM     27  H   UNL     1      -0.781  -2.784  -4.947  0.00  0.00    +0.144 HD
ENDBRANCH   5  25
BRANCH   1  28
ATOM     28  C   UNL     1       0.776  -1.800  -1.335  0.00  0.00    +0.343 C 
ATOM     29  O   UNL     1       0.312  -2.553  -0.499  0.00  0.00    -0.245 OA
BRANCH  28  30
ATOM     30  O   UNL     1       0.671  -0.465  -1.174  0.00  0.00    -0.461 OA
BRANCH  30  32
ATOM     31  C   UNL     1      -0.019   1.526   0.010  0.00  0.00    +0.048 C 
ATOM     32  C   UNL     1       0.002  -0.004   0.002  0.00  0.00    +0.229 C 
ENDBRANCH  30  32
ENDBRANCH  28  30
ENDBRANCH   1  28
BRANCH   9  33
ATOM     33  C   UNL     1       5.575  -1.260  -2.993  0.00  0.00    +0.076 C 
ATOM     34  N   UNL     1       5.777  -0.253  -3.477  0.00  0.00    -0.196 NA
ENDBRANCH   9  33
TORSDOF 7
