REMARK  Name = ZINC41586513
REMARK  14 active torsions:
REMARK  status: ('A' for Active; 'I' for Inactive)
REMARK    1  A    between atoms: C_1  and  C_2
REMARK    2  A    between atoms: C_2  and  O_3
REMARK    3  A    between atoms: O_3  and  C_4
REMARK    4  A    between atoms: C_4  and  C_6
REMARK    5  A    between atoms: N_11  and  C_13
REMARK    6  A    between atoms: C_13  and  C_14
REMARK    7  A    between atoms: C_15  and  O_37
REMARK    8  A    between atoms: C_22  and  C_23
REMARK    9  A    between atoms: C_26  and  O_33
REMARK   10  A    between atoms: C_27  and  O_31
REMARK   11  A    between atoms: C_28  and  O_29
REMARK   12  A    between atoms: O_29  and  C_30
REMARK   13  A    between atoms: O_31  and  C_32
REMARK   14  A    between atoms: O_33  and  C_34
REMARK                            x       y       z     vdW  Elec       q    Type
REMARK                         _______ _______ _______ _____ _____    ______ ____
ROOT
ATOM      1  C   UNL     1      -5.879  -5.780  -0.225  0.00  0.00    +0.020 A 
ATOM      2  C   UNL     1      -6.685  -5.962   0.888  0.00  0.00    +0.122 A 
ATOM      3  C   UNL     1      -7.930  -6.574   0.768  0.00  0.00    +0.046 A 
ATOM      4  C   UNL     1      -8.370  -7.002  -0.453  0.00  0.00    +0.019 A 
ATOM      5  C   UNL     1      -7.569  -6.825  -1.582  0.00  0.00    +0.068 A 
ATOM      6  C   UNL     1      -6.314  -6.204  -1.474  0.00  0.00    +0.144 A 
ATOM      7  O   UNL     1      -5.733  -6.140  -2.692  0.00  0.00    -0.451 OA
ATOM      8  C   UNL     1      -6.518  -6.681  -3.653  0.00  0.00    +0.176 C 
ATOM      9  C   UNL     1      -6.221  -6.770  -4.977  0.00  0.00    +0.062 C 
ATOM     10  C   UNL     1      -7.744  -7.164  -3.006  0.00  0.00    +0.231 C 
ATOM     11  O   UNL     1      -8.698  -7.712  -3.530  0.00  0.00    -0.283 OA
ENDROOT
BRANCH   9  12
ATOM     12  C   UNL     1      -5.021  -6.113  -5.504  0.00  0.00    +0.024 A 
ATOM     13  C   UNL     1      -4.002  -5.703  -4.633  0.00  0.00    +0.015 A 
ATOM     14  C   UNL     1      -2.878  -5.087  -5.131  0.00  0.00    +0.050 A 
ATOM     15  C   UNL     1      -2.746  -4.867  -6.498  0.00  0.00    +0.165 A 
ATOM     16  C   UNL     1      -3.749  -5.268  -7.374  0.00  0.00    +0.204 A 
ATOM     17  C   UNL     1      -4.885  -5.896  -6.886  0.00  0.00    +0.172 A 
BRANCH  17  18
ATOM     18  O   UNL     1      -5.864  -6.294  -7.739  0.00  0.00    -0.491 OA
ATOM     19  C   UNL     1      -6.899  -5.350  -8.024  0.00  0.00    +0.277 C 
ENDBRANCH  17  18
BRANCH  16  20
ATOM     20  O   UNL     1      -3.614  -5.049  -8.710  0.00  0.00    -0.488 OA
ATOM     21  C   UNL     1      -2.984  -6.078  -9.476  0.00  0.00    +0.277 C 
ENDBRANCH  16  20
BRANCH  15  22
ATOM     22  O   UNL     1      -1.632  -4.257  -6.980  0.00  0.00    -0.491 OA
ATOM     23  C   UNL     1      -0.640  -3.870  -6.027  0.00  0.00    +0.277 C 
ENDBRANCH  15  22
ENDBRANCH   9  12
BRANCH   2  24
ATOM     24  O   UNL     1      -6.257  -5.541   2.105  0.00  0.00    -0.506 OA
ATOM     25  H   UNL     1      -6.507  -4.631   2.316  0.00  0.00    +0.292 HD
ENDBRANCH   2  24
BRANCH   1  26
ATOM     26  C   UNL     1      -4.534  -5.115  -0.080  0.00  0.00    -0.036 C 
BRANCH  26  31
ATOM     27  C   UNL     1      -3.504  -1.530  -0.491  0.00  0.00    +0.081 C 
ATOM     28  C   UNL     1      -4.377  -0.913   0.605  0.00  0.00    +0.011 C 
ATOM     29  C   UNL     1      -5.730  -1.630   0.632  0.00  0.00    -0.018 C 
ATOM     30  C   UNL     1      -5.503  -3.128   0.846  0.00  0.00    -0.078 C 
ATOM     31  N   UNL     1      -4.684  -3.664  -0.248  0.00  0.00    +0.383 N 
ATOM     32  C   UNL     1      -3.360  -3.032  -0.236  0.00  0.00    -0.064 C 
ATOM     33  H   UNL     1      -5.138  -3.475  -1.130  0.00  0.00    -0.081 HD
BRANCH  27  34
ATOM     34  C   UNL     1      -2.143  -0.884  -0.475  0.00  0.00    +0.308 C 
ATOM     35  O   UNL     1      -1.157  -1.555  -0.281  0.00  0.00    -0.251 OA
BRANCH  34  36
ATOM     36  O   UNL     1      -2.026   0.438  -0.676  0.00  0.00    -0.465 OA
BRANCH  36  38
ATOM     37  C   UNL     1      -0.771   2.493  -0.894  0.00  0.00    +0.048 C 
ATOM     38  C   UNL     1      -0.705   0.984  -0.647  0.00  0.00    +0.229 C 
ENDBRANCH  36  38
ENDBRANCH  34  36
ENDBRANCH  27  34
ENDBRANCH  26  31
ENDBRANCH   1  26
TORSDOF 10
