REMARK  Name = ZINC01752679
REMARK  9 active torsions:
REMARK  status: ('A' for Active; 'I' for Inactive)
REMARK    1  A    between atoms: C_1  and  C_2
REMARK    2  A    between atoms: C_10  and  C_11
REMARK    3  A    between atoms: C_14  and  O_19
REMARK    4  A    between atoms: C_15  and  O_17
REMARK    5  A    between atoms: O_17  and  C_18
REMARK    6  A    between atoms: O_19  and  C_20
REMARK    7  A    between atoms: C_20  and  C_21
REMARK    8  A    between atoms: C_21  and  O_22
REMARK    9  A    between atoms: O_22  and  C_23
REMARK                            x       y       z     vdW  Elec       q    Type
REMARK                         _______ _______ _______ _____ _____    ______ ____
ROOT
ATOM      1  C   UNL     1       2.857  -2.313  -7.598  0.00  0.00    -0.021 A 
ATOM      2  C   UNL     1       2.756  -3.679  -7.299  0.00  0.00    +0.012 A 
ATOM      3  C   UNL     1       2.868  -4.613  -8.303  0.00  0.00    +0.050 A 
ATOM      4  C   UNL     1       3.080  -4.207  -9.615  0.00  0.00    +0.162 A 
ATOM      5  C   UNL     1       3.183  -2.849  -9.922  0.00  0.00    +0.162 A 
ATOM      6  C   UNL     1       3.066  -1.904  -8.924  0.00  0.00    +0.057 A 
ENDROOT
BRANCH   1  16
ATOM      7  C   UNL     1       1.087  -0.138   0.832  0.00  0.00    +0.038 C 
ATOM      8  C   UNL     1       1.955  -1.353   0.629  0.00  0.00    +0.004 C 
ATOM      9  C   UNL     1       2.448  -1.625  -0.576  0.00  0.00    +0.092 A 
ATOM     10  N   UNL     1       2.289  -0.918  -1.770  0.00  0.00    -0.283 N 
ATOM     11  H   UNL     1       1.725  -0.130  -1.808  0.00  0.00    +0.188 HD
ATOM     12  N   UNL     1       2.952  -1.365  -2.895  0.00  0.00    -0.212 N 
ATOM     13  C   UNL     1       3.014  -0.676  -4.124  0.00  0.00    +0.160 A 
ATOM     14  N   UNL     1       2.862   0.617  -4.231  0.00  0.00    -0.281 NA
ATOM     15  C   UNL     1       3.271  -1.571  -5.289  0.00  0.00    +0.085 A 
ATOM     16  C   UNL     1       2.739  -1.316  -6.532  0.00  0.00    +0.025 C 
ATOM     17  C   UNL     1       4.132  -2.752  -5.034  0.00  0.00    +0.283 A 
ATOM     18  O   UNL     1       4.755  -3.280  -5.939  0.00  0.00    -0.265 OA
ATOM     19  N   UNL     1       4.207  -3.225  -3.771  0.00  0.00    -0.182 NA
ATOM     20  C   UNL     1       3.623  -2.569  -2.803  0.00  0.00    +0.199 A 
ATOM     21  S   UNL     1       3.491  -2.984  -1.084  0.00  0.00    -0.031 S 
ATOM     22  H   UNL     1       2.914   1.041  -5.102  0.00  0.00    +0.188 HD
ENDBRANCH   1  16
BRANCH   5  23
ATOM     23  O   UNL     1       3.392  -2.457 -11.208  0.00  0.00    -0.491 OA
ATOM     24  C   UNL     1       3.486  -1.052 -11.450  0.00  0.00    +0.277 C 
ENDBRANCH   5  23
BRANCH   4  25
ATOM     25  O   UNL     1       3.190  -5.133 -10.601  0.00  0.00    -0.485 OA
BRANCH  25  26
ATOM     26  C   UNL     1       3.076  -6.505 -10.217  0.00  0.00    +0.270 C 
BRANCH  26  27
ATOM     27  C   UNL     1       3.224  -7.394 -11.454  0.00  0.00    +0.270 C 
BRANCH  27  28
ATOM     28  O   UNL     1       4.545  -7.258 -11.983  0.00  0.00    -0.489 OA
BRANCH  28  29
ATOM     29  C   UNL     1       4.844  -7.987 -13.090  0.00  0.00    +0.121 A 
ATOM     30  C   UNL     1       3.884  -8.811 -13.659  0.00  0.00    +0.047 A 
ATOM     31  C   UNL     1       4.191  -9.551 -14.785  0.00  0.00    +0.019 A 
ATOM     32  C   UNL     1       5.453  -9.470 -15.345  0.00  0.00    +0.018 A 
ATOM     33  C   UNL     1       6.412  -8.649 -14.779  0.00  0.00    +0.019 A 
ATOM     34  C   UNL     1       6.108  -7.903 -13.657  0.00  0.00    +0.047 A 
ATOM     35 BR   UNL     1       5.869 -10.484 -16.886  0.00  0.00    -0.050 Br
ENDBRANCH  28  29
ENDBRANCH  27  28
ENDBRANCH  26  27
ENDBRANCH  25  26
ENDBRANCH   4  25
TORSDOF 7
