REMARK  Name = ZINC01374888
REMARK  11 active torsions:
REMARK  status: ('A' for Active; 'I' for Inactive)
REMARK    1  A    between atoms: C_1  and  C_2
REMARK    2  A    between atoms: C_2  and  C_3
REMARK    3  A    between atoms: C_3  and  C_5
REMARK    4  A    between atoms: C_3  and  N_18
REMARK    5  A    between atoms: N_9  and  C_10
REMARK    6  A    between atoms: C_10  and  C_11
REMARK    7  A    between atoms: C_11  and  C_12
REMARK    8  A    between atoms: N_18  and  C_19
REMARK    9  A    between atoms: N_18  and  C_29
REMARK   10  A    between atoms: C_19  and  C_20
REMARK   11  A    between atoms: C_29  and  C_30
REMARK                            x       y       z     vdW  Elec       q    Type
REMARK                         _______ _______ _______ _____ _____    ______ ____
ROOT
ATOM      1  N   UNL     1      -2.233  -0.407   1.638  0.00  0.00    -0.284 NA
ENDROOT
BRANCH   1   2
ATOM      2  C   UNL     1      -1.807  -1.306   0.557  0.00  0.00    +0.127 C 
BRANCH   2   3
ATOM      3  C   UNL     1      -2.078  -2.734   0.956  0.00  0.00    +0.168 A 
ATOM      4  N   UNL     1      -1.822  -3.284   2.118  0.00  0.00    -0.112 NA
ATOM      5  N   UNL     1      -2.198  -4.516   2.067  0.00  0.00    -0.023 NA
ATOM      6  N   UNL     1      -2.686  -4.766   0.902  0.00  0.00    -0.044 NA
ATOM      7  N   UNL     1      -2.635  -3.691   0.190  0.00  0.00    -0.227 N 
BRANCH   7   8
ATOM      8  C   UNL     1      -3.094  -3.540  -1.193  0.00  0.00    +0.152 C 
BRANCH   8   9
ATOM      9  C   UNL     1      -1.946  -3.869  -2.150  0.00  0.00    +0.058 C 
BRANCH   9  10
ATOM     10  C   UNL     1      -2.418  -3.715  -3.572  0.00  0.00    -0.046 A 
ATOM     11  C   UNL     1      -2.978  -4.790  -4.235  0.00  0.00    +0.004 A 
ATOM     12  C   UNL     1      -3.411  -4.648  -5.541  0.00  0.00    +0.000 A 
ATOM     13  C   UNL     1      -3.284  -3.431  -6.183  0.00  0.00    +0.000 A 
ATOM     14  C   UNL     1      -2.724  -2.355  -5.519  0.00  0.00    +0.000 A 
ATOM     15  C   UNL     1      -2.295  -2.496  -4.213  0.00  0.00    +0.004 A 
ENDBRANCH   9  10
ENDBRANCH   8   9
ENDBRANCH   7   8
ENDBRANCH   2   3
BRANCH   2  17
ATOM     16  C   UNL     1      -0.042   0.310  -0.159  0.00  0.00    +0.006 C 
ATOM     17  C   UNL     1      -0.310  -1.124   0.302  0.00  0.00    +0.023 C 
ENDBRANCH   2  17
ENDBRANCH   1   2
BRANCH   1  18
ATOM     18  C   UNL     1      -1.226  -0.355   2.707  0.00  0.00    +0.120 C 
BRANCH  18  19
ATOM     19  C   UNL     1      -1.847   0.219   3.954  0.00  0.00    -0.030 A 
ATOM     20  C   UNL     1      -1.706   1.565   4.238  0.00  0.00    +0.009 A 
ATOM     21  C   UNL     1      -2.273   2.097   5.380  0.00  0.00    +0.050 A 
ATOM     22  C   UNL     1      -2.986   1.282   6.245  0.00  0.00    +0.166 A 
ATOM     23  C   UNL     1      -3.128  -0.074   5.959  0.00  0.00    +0.167 A 
ATOM     24  C   UNL     1      -2.561  -0.599   4.809  0.00  0.00    +0.054 A 
ATOM     25  O   UNL     1      -3.864  -0.654   6.952  0.00  0.00    -0.453 OA
ATOM     26  C   UNL     1      -3.823   0.273   8.053  0.00  0.00    +0.466 C 
ATOM     27  O   UNL     1      -3.632   1.551   7.417  0.00  0.00    -0.453 OA
ENDBRANCH  18  19
ENDBRANCH   1  18
BRANCH   1  28
ATOM     28  C   UNL     1      -2.521   0.937   1.121  0.00  0.00    +0.126 C 
BRANCH  28  29
ATOM     29  C   UNL     1      -3.864   0.936   0.439  0.00  0.00    +0.031 A 
ATOM     30  C   UNL     1      -4.979   1.269   1.138  0.00  0.00    +0.020 A 
ATOM     31  C   UNL     1      -6.268   1.259   0.447  0.00  0.00    +0.003 A 
ATOM     32  C   UNL     1      -7.450   1.593   1.118  0.00  0.00    +0.059 A 
ATOM     33  C   UNL     1      -8.651   1.575   0.440  0.00  0.00    +0.163 A 
ATOM     34  C   UNL     1      -8.690   1.226  -0.913  0.00  0.00    +0.164 A 
ATOM     35  C   UNL     1      -7.526   0.892  -1.584  0.00  0.00    +0.075 A 
ATOM     36  C   UNL     1      -6.309   0.905  -0.916  0.00  0.00    +0.053 A 
ATOM     37  N   UNL     1      -5.138   0.575  -1.569  0.00  0.00    -0.322 N 
ATOM     38  H   UNL     1      -5.167   0.331  -2.507  0.00  0.00    +0.169 HD
ATOM     39  C   UNL     1      -3.958   0.593  -0.925  0.00  0.00    +0.254 A 
ATOM     40  O   UNL     1      -2.944   0.301  -1.536  0.00  0.00    -0.268 OA
ATOM     41  O   UNL     1      -9.869   1.214  -1.591  0.00  0.00    -0.485 OA
ATOM     42  C   UNL     1     -11.065   1.190  -0.805  0.00  0.00    +0.270 C 
ATOM     43  C   UNL     1     -10.931   2.238   0.308  0.00  0.00    +0.270 C 
ATOM     44  O   UNL     1      -9.793   1.900   1.108  0.00  0.00    -0.485 OA
ENDBRANCH  28  29
ENDBRANCH   1  28
TORSDOF 10
