REMARK  Name = ZINC20298780
REMARK  5 active torsions:
REMARK  status: ('A' for Active; 'I' for Inactive)
REMARK    1  A    between atoms: C_1  and  C_2
REMARK    2  A    between atoms: C_5  and  C_21
REMARK    3  A    between atoms: N_8  and  C_10
REMARK    4  A    between atoms: C_13  and  N_18
REMARK    5  A    between atoms: C_15  and  C_16
REMARK                            x       y       z     vdW  Elec       q    Type
REMARK                         _______ _______ _______ _____ _____    ______ ____
ROOT
ATOM      1  C   UNL     1      -2.803   1.434  -2.380  0.00  0.00    +0.040 A 
ATOM      2  C   UNL     1      -3.030   2.767  -2.701  0.00  0.00    +0.026 A 
ATOM      3  C   UNL     1      -3.690   3.095  -3.866  0.00  0.00    +0.034 A 
ATOM      4  C   UNL     1      -4.133   2.102  -4.728  0.00  0.00    +0.127 A 
ATOM      5  C   UNL     1      -3.918   0.775  -4.431  0.00  0.00    +0.045 A 
ATOM      6  C   UNL     1      -3.245   0.424  -3.254  0.00  0.00    +0.037 A 
ENDROOT
BRANCH   1  12
ATOM      7  C   UNL     1      -2.924   1.635   2.465  0.00  0.00    +0.009 C 
ATOM      8  C   UNL     1      -2.183   1.095   1.240  0.00  0.00    +0.003 C 
ATOM      9  C   UNL     1      -0.731   1.580   1.267  0.00  0.00    +0.009 C 
ATOM     10  C   UNL     1      -0.013   1.086   0.008  0.00  0.00    +0.003 C 
ATOM     11  C   UNL     1      -0.754   1.594  -1.231  0.00  0.00    +0.108 C 
ATOM     12  N   UNL     1      -2.139   1.101  -1.209  0.00  0.00    -0.329 N 
ATOM     13  C   UNL     1      -2.862   1.602  -0.033  0.00  0.00    +0.108 C 
ATOM     14  C   UNL     1       1.422   1.616  -0.003  0.00  0.00    +0.009 C 
ENDBRANCH   1  12
BRANCH   4  15
ATOM     15  N   UNL     1      -4.840   2.471  -5.975  0.00  0.00    +0.056 N 
ATOM     16  O   UNL     1      -5.031   3.644  -6.242  0.00  0.00    -0.126 OA
ATOM     17  O   UNL     1      -5.229   1.602  -6.734  0.00  0.00    -0.126 OA
ENDBRANCH   4  15
BRANCH   6  18
ATOM     18  C   UNL     1      -3.007  -0.987  -2.933  0.00  0.00    +0.260 C 
ATOM     19  O   UNL     1      -2.427  -1.287  -1.910  0.00  0.00    -0.296 OA
ENDBRANCH   6  18
TORSDOF 3
