REMARK  Name = ZINC63350074
REMARK  9 active torsions:
REMARK  status: ('A' for Active; 'I' for Inactive)
REMARK    1  A    between atoms: C_1  and  O_2
REMARK    2  A    between atoms: O_2  and  C_3
REMARK    3  A    between atoms: C_6  and  C_18
REMARK    4  A    between atoms: C_8  and  C_9
REMARK    5  A    between atoms: C_9  and  O_10
REMARK    6  A    between atoms: O_10  and  C_11
REMARK    7  A    between atoms: C_31  and  C_34
REMARK    8  A    between atoms: C_34  and  O_36
REMARK    9  A    between atoms: O_36  and  C_37
REMARK                            x       y       z     vdW  Elec       q    Type
REMARK                         _______ _______ _______ _____ _____    ______ ____
ROOT
ATOM      1  C   UNL     1       2.506  -2.503  -4.381  0.00  0.00    +0.111 C 
ATOM      2  C   UNL     1       1.518  -2.615  -5.545  0.00  0.00    +0.128 C 
ATOM      3  C   UNL     1       1.226  -1.188  -5.995  0.00  0.00    -0.035 C 
ATOM      4  C   UNL     1      -0.092  -1.048  -5.970  0.00  0.00    -0.001 A 
ATOM      5  C   UNL     1      -0.969   0.062  -6.374  0.00  0.00    +0.010 A 
ATOM      6  C   UNL     1      -2.303  -0.131  -6.195  0.00  0.00    +0.001 A 
ATOM      7  C   UNL     1      -2.845  -1.304  -5.661  0.00  0.00    +0.002 A 
ATOM      8  C   UNL     1      -2.114  -2.378  -5.268  0.00  0.00    +0.026 A 
ATOM      9  C   UNL     1      -0.698  -2.296  -5.413  0.00  0.00    +0.043 A 
ATOM     10  N   UNL     1       0.235  -3.188  -5.141  0.00  0.00    -0.376 N 
ATOM     11  C   UNL     1       2.336  -0.205  -6.280  0.00  0.00    +0.063 C 
ATOM     12  C   UNL     1       3.307  -0.295  -5.088  0.00  0.00    +0.168 C 
ATOM     13  N   UNL     1       3.653  -1.696  -4.823  0.00  0.00    -0.295 NA
ATOM     14  H   UNL     1       4.417  -1.762  -4.167  0.00  0.00    +0.123 HD
ATOM     15  H   UNL     1       0.104  -4.063  -4.742  0.00  0.00    +0.160 HD
ENDROOT
BRANCH   1  19
ATOM     16  C   UNL     1       0.606  -0.607  -1.056  0.00  0.00    +0.126 A 
ATOM     17  C   UNL     1       0.603   0.006  -2.300  0.00  0.00    +0.046 A 
ATOM     18  C   UNL     1       1.218  -0.609  -3.373  0.00  0.00    +0.009 A 
ATOM     19  C   UNL     1       1.836  -1.835  -3.208  0.00  0.00    -0.028 A 
ATOM     20  C   UNL     1       1.839  -2.448  -1.970  0.00  0.00    +0.015 A 
ATOM     21  C   UNL     1       1.231  -1.835  -0.892  0.00  0.00    +0.032 A 
BRANCH  16  23
ATOM     22  C   UNL     1      -0.622   1.259  -0.241  0.00  0.00    +0.277 C 
ATOM     23  O   UNL     1       0.002  -0.004   0.002  0.00  0.00    -0.495 OA
ENDBRANCH  16  23
BRANCH  21  24
ATOM     24  C   UNL     1       1.241  -2.501   0.460  0.00  0.00    +0.268 C 
BRANCH  24  25
ATOM     25  O   UNL     1       1.940  -3.744   0.373  0.00  0.00    -0.484 OA
BRANCH  25  26
ATOM     26  C   UNL     1       2.041  -4.477   1.514  0.00  0.00    +0.156 A 
ATOM     27  C   UNL     1       1.474  -4.012   2.691  0.00  0.00    +0.048 A 
ATOM     28  C   UNL     1       1.577  -4.758   3.849  0.00  0.00    +0.004 A 
ATOM     29  C   UNL     1       2.246  -5.968   3.837  0.00  0.00    +0.003 A 
ATOM     30  C   UNL     1       2.813  -6.435   2.666  0.00  0.00    +0.042 A 
ATOM     31  C   UNL     1       2.707  -5.696   1.502  0.00  0.00    +0.165 A 
ATOM     32  F   UNL     1       3.256  -6.155   0.356  0.00  0.00    -0.202 F 
ENDBRANCH  25  26
ENDBRANCH  24  25
ENDBRANCH  21  24
ENDBRANCH   1  19
BRANCH  12  33
ATOM     33  C   UNL     1       4.562   0.475  -5.407  0.00  0.00    +0.324 C 
ATOM     34  O   UNL     1       5.553  -0.110  -5.777  0.00  0.00    -0.249 OA
BRANCH  33  35
ATOM     35  O   UNL     1       4.581   1.811  -5.279  0.00  0.00    -0.467 OA
ATOM     36  C   UNL     1       5.804   2.476  -5.598  0.00  0.00    +0.280 C 
ENDBRANCH  33  35
ENDBRANCH  12  33
TORSDOF 7
