REMARK  Name = ZINC09283880
REMARK  6 active torsions:
REMARK  status: ('A' for Active; 'I' for Inactive)
REMARK    1  A    between atoms: C_7  and  C_11
REMARK    2  A    between atoms: C_11  and  C_13
REMARK    3  A    between atoms: C_11  and  C_29
REMARK    4  A    between atoms: C_13  and  N_14
REMARK    5  A    between atoms: C_15  and  C_17
REMARK    6  A    between atoms: C_17  and  N_18
REMARK                            x       y       z     vdW  Elec       q    Type
REMARK                         _______ _______ _______ _____ _____    ______ ____
ROOT
ATOM      1  C   UNL     1       2.452   3.936   0.000  0.00  0.00    +0.069 C 
ENDROOT
BRANCH   1   8
ATOM      2  C   UNL     1       4.104   6.436   3.605  0.00  0.00    +0.001 A 
ATOM      3  C   UNL     1       4.810   5.666   4.519  0.00  0.00    +0.002 A 
ATOM      4  C   UNL     1       4.968   4.312   4.322  0.00  0.00    +0.026 A 
ATOM      5  C   UNL     1       4.417   3.708   3.197  0.00  0.00    +0.047 A 
ATOM      6  C   UNL     1       3.703   4.493   2.274  0.00  0.00    +0.003 A 
ATOM      7  C   UNL     1       3.554   5.864   2.493  0.00  0.00    +0.010 A 
ATOM      8  C   UNL     1       3.258   3.576   1.222  0.00  0.00    -0.013 A 
ATOM      9  C   UNL     1       3.700   2.353   1.554  0.00  0.00    +0.088 A 
ATOM     10  N   UNL     1       4.400   2.413   2.729  0.00  0.00    -0.360 N 
ATOM     11  H   UNL     1       4.818   1.656   3.168  0.00  0.00    +0.165 HD
ENDBRANCH   1   8
BRANCH   1  12
ATOM     12  C   UNL     1       1.157   3.165   0.008  0.00  0.00    -0.020 A 
ATOM     13  C   UNL     1       1.175   1.783   0.000  0.00  0.00    +0.006 A 
ATOM     14  C   UNL     1      -0.013   1.076   0.008  0.00  0.00    +0.000 A 
ATOM     15  C   UNL     1      -1.219   1.750   0.017  0.00  0.00    +0.001 A 
ATOM     16  C   UNL     1      -1.239   3.132   0.031  0.00  0.00    +0.020 A 
ATOM     17  C   UNL     1      -0.050   3.841   0.023  0.00  0.00    +0.045 A 
ATOM     18 CL   UNL     1      -0.074   5.576   0.032  0.00  0.00    -0.083 Cl
ENDBRANCH   1  12
BRANCH   1  19
ATOM     19  C   UNL     1       3.248   3.584  -1.258  0.00  0.00    +0.117 C 
BRANCH  19  20
ATOM     20  N   UNL     1       2.517   4.042  -2.442  0.00  0.00    -0.313 N 
ATOM     21  C   UNL     1       3.030   3.839  -3.672  0.00  0.00    +0.231 C 
ATOM     22  O   UNL     1       4.097   3.276  -3.798  0.00  0.00    -0.274 OA
ATOM     23  H   UNL     1       1.663   4.492  -2.341  0.00  0.00    +0.149 HD
BRANCH  21  24
ATOM     24  C   UNL     1       2.278   4.310  -4.890  0.00  0.00    +0.213 C 
BRANCH  24  25
ATOM     25  N   UNL     1       3.040   3.973  -6.095  0.00  0.00    -0.215 N 
ATOM     26  C   UNL     1       2.910   2.814  -6.776  0.00  0.00    +0.247 C 
ATOM     27  O   UNL     1       2.170   1.889  -6.519  0.00  0.00    -0.273 OA
ATOM     28  C   UNL     1       3.881   2.916  -7.924  0.00  0.00    +0.113 C 
ATOM     29  C   UNL     1       3.154   2.817  -9.272  0.00  0.00    +0.035 C 
ATOM     30  C   UNL     1       4.153   2.057 -10.182  0.00  0.00    +0.003 C 
ATOM     31  C   UNL     1       4.786   1.026  -9.213  0.00  0.00    +0.003 C 
ATOM     32  C   UNL     1       4.917   1.791  -7.878  0.00  0.00    +0.035 C 
ATOM     33  N   UNL     1       4.509   4.229  -7.757  0.00  0.00    -0.285 N 
ATOM     34  C   UNL     1       3.949   4.778  -6.661  0.00  0.00    +0.310 C 
ATOM     35  O   UNL     1       4.237   5.878  -6.233  0.00  0.00    -0.252 OA
ATOM     36  H   UNL     1       5.189   4.625  -8.324  0.00  0.00    +0.151 HD
ENDBRANCH  24  25
ENDBRANCH  21  24
ENDBRANCH  19  20
ENDBRANCH   1  19
TORSDOF 6
