REMARK  Name = ZINC34734791
REMARK  10 active torsions:
REMARK  status: ('A' for Active; 'I' for Inactive)
REMARK    1  A    between atoms: C_1  and  C_2
REMARK    2  A    between atoms: C_5  and  C_35
REMARK    3  A    between atoms: C_6  and  C_8
REMARK    4  A    between atoms: C_8  and  N_9
REMARK    5  A    between atoms: N_22  and  C_25
REMARK    6  A    between atoms: C_25  and  C_26
REMARK    7  A    between atoms: C_26  and  C_27
REMARK    8  A    between atoms: C_26  and  C_28
REMARK    9  A    between atoms: C_31  and  C_33
REMARK   10  A    between atoms: C_31  and  C_34
REMARK                            x       y       z     vdW  Elec       q    Type
REMARK                         _______ _______ _______ _____ _____    ______ ____
ROOT
ATOM      1  N   UNL     1       1.792  -4.030   3.553  0.00  0.00    -0.276 N 
ATOM      2  C   UNL     1       2.279  -5.116   2.925  0.00  0.00    +0.264 A 
ATOM      3  O   UNL     1       1.529  -5.885   2.349  0.00  0.00    -0.267 OA
ATOM      4  C   UNL     1       3.690  -5.356   2.942  0.00  0.00    +0.076 A 
ATOM      5  C   UNL     1       4.432  -6.459   2.336  0.00  0.00    -0.018 A 
ATOM      6  C   UNL     1       5.774  -6.459   2.496  0.00  0.00    +0.021 A 
ATOM      7  S   UNL     1       6.122  -5.010   3.450  0.00  0.00    -0.071 S 
ATOM      8  C   UNL     1       4.463  -4.407   3.634  0.00  0.00    +0.118 A 
ATOM      9  N   UNL     1       3.918  -3.355   4.234  0.00  0.00    -0.208 NA
ATOM     10  C   UNL     1       2.616  -3.156   4.197  0.00  0.00    +0.202 A 
ATOM     11  N   UNL     1       2.082  -2.056   4.821  0.00  0.00    -0.304 N 
ATOM     12  C   UNL     1       2.501  -1.679   6.180  0.00  0.00    +0.089 C 
ATOM     13  C   UNL     1       2.876  -0.194   6.179  0.00  0.00    -0.060 C 
ATOM     14  N   UNL     1       1.754   0.593   5.651  0.00  0.00    +0.382 N 
ATOM     15  C   UNL     1       1.517   0.244   4.244  0.00  0.00    -0.060 C 
ATOM     16  C   UNL     1       1.079  -1.217   4.147  0.00  0.00    +0.089 C 
ATOM     17  C   UNL     1       6.729  -7.484   1.966  0.00  0.00    +0.203 C 
ATOM     18  O   UNL     1       5.964  -8.622   1.540  0.00  0.00    -0.368 OA
ATOM     19  C   UNL     1       4.848  -8.281   0.713  0.00  0.00    +0.068 C 
ATOM     20  C   UNL     1       3.768  -7.584   1.546  0.00  0.00    +0.071 C 
ATOM     21  C   UNL     1       5.311  -7.344  -0.404  0.00  0.00    +0.041 C 
ATOM     22  C   UNL     1       4.267  -9.555   0.094  0.00  0.00    +0.041 C 
ATOM     23  H   UNL     1       0.923   0.396   6.189  0.00  0.00    -0.082 HD
ENDROOT
BRANCH   1  24
ATOM     24  C   UNL     1       0.349  -3.780   3.539  0.00  0.00    +0.163 C 
BRANCH  24  30
ATOM     25  C   UNL     1      -2.322  -8.011   3.454  0.00  0.00    +0.044 C 
ATOM     26  C   UNL     1      -1.639  -6.914   4.229  0.00  0.00    -0.050 A 
ATOM     27  C   UNL     1      -1.664  -6.926   5.611  0.00  0.00    +0.003 A 
ATOM     28  C   UNL     1      -1.038  -5.920   6.323  0.00  0.00    +0.004 A 
ATOM     29  C   UNL     1      -0.387  -4.901   5.652  0.00  0.00    -0.046 A 
ATOM     30  C   UNL     1      -0.361  -4.890   4.270  0.00  0.00    -0.024 A 
ATOM     31  C   UNL     1      -0.984  -5.899   3.559  0.00  0.00    +0.009 A 
ATOM     32  C   UNL     1       0.295  -3.804   6.427  0.00  0.00    +0.044 C 
ENDBRANCH  24  30
ENDBRANCH   1  24
BRANCH  14  33
ATOM     33  C   UNL     1       2.070   2.023   5.751  0.00  0.00    -0.076 C 
BRANCH  33  34
ATOM     34  C   UNL     1       2.143   2.427   7.225  0.00  0.00    -0.034 C 
ATOM     35  C   UNL     1       2.598   3.884   7.333  0.00  0.00    +0.005 C 
ATOM     36  C   UNL     1       0.761   2.276   7.865  0.00  0.00    +0.005 C 
ENDBRANCH  33  34
ENDBRANCH  14  33
TORSDOF 4
