REMARK  Name = ZINC28535646
REMARK  7 active torsions:
REMARK  status: ('A' for Active; 'I' for Inactive)
REMARK    1  A    between atoms: C_1  and  C_2
REMARK    2  A    between atoms: C_4  and  C_26
REMARK    3  A    between atoms: C_6  and  N_8
REMARK    4  A    between atoms: N_12  and  N_25
REMARK    5  A    between atoms: C_13  and  S_16
REMARK    6  A    between atoms: S_16  and  C_17
REMARK    7  A    between atoms: C_17  and  C_18
REMARK                            x       y       z     vdW  Elec       q    Type
REMARK                         _______ _______ _______ _____ _____    ______ ____
ROOT
ATOM      1  N   UNL     1      -0.017   1.392   0.010  0.00  0.00    -0.294 N 
ATOM      2  C   UNL     1       1.262   1.950  -0.036  0.00  0.00    +0.212 A 
ATOM      3  C   UNL     1       1.437   3.355   0.073  0.00  0.00    +0.312 A 
ATOM      4  O   UNL     1       0.480   4.098   0.208  0.00  0.00    -0.262 OA
ATOM      5  N   UNL     1       2.698   3.844   0.023  0.00  0.00    -0.205 N 
ATOM      6  C   UNL     1       3.733   2.966  -0.129  0.00  0.00    +0.210 A 
ATOM      7  N   UNL     1       3.505   1.671  -0.225  0.00  0.00    -0.121 NA
ATOM      8  N   UNL     1       2.319   1.179  -0.176  0.00  0.00    -0.126 NA
ATOM      9  H   UNL     1      -0.888   2.031   0.221  0.00  0.00    +0.154 HD
ENDROOT
BRANCH   1  15
ATOM     10  C   UNL     1      -2.425  -2.779   0.989  0.00  0.00    +0.044 C 
ATOM     11  C   UNL     1      -1.351  -2.023   0.249  0.00  0.00    -0.048 A 
ATOM     12  C   UNL     1      -0.535  -2.686  -0.650  0.00  0.00    +0.006 A 
ATOM     13  C   UNL     1       0.452  -1.997  -1.331  0.00  0.00    -0.048 A 
ATOM     14  C   UNL     1       0.627  -0.644  -1.115  0.00  0.00    +0.026 A 
ATOM     15  C   UNL     1      -0.191   0.025  -0.212  0.00  0.00    +0.033 A 
ATOM     16  C   UNL     1      -1.178  -0.672   0.474  0.00  0.00    +0.026 A 
ATOM     17  C   UNL     1       1.338  -2.723  -2.310  0.00  0.00    +0.044 C 
ENDBRANCH   1  15
BRANCH   5  18
ATOM     18  N   UNL     1       2.931   5.186   0.123  0.00  0.00    -0.293 N 
ATOM     19  H   UNL     1       3.961   5.570   0.081  0.00  0.00    +0.163 HD
ATOM     20  H   UNL     1       2.088   5.882   0.246  0.00  0.00    +0.163 HD
ENDBRANCH   5  18
BRANCH   6  21
ATOM     21  S   UNL     1       5.387   3.569  -0.198  0.00  0.00    -0.080 S 
BRANCH  21  22
ATOM     22  C   UNL     1       6.282   2.009  -0.400  0.00  0.00    +0.114 C 
BRANCH  22  23
ATOM     23  C   UNL     1       7.761   2.286  -0.485  0.00  0.00    -0.019 A 
ATOM     24  C   UNL     1       8.353   2.511  -1.713  0.00  0.00    +0.006 A 
ATOM     25  C   UNL     1       9.709   2.769  -1.791  0.00  0.00    +0.000 A 
ATOM     26  C   UNL     1      10.475   2.793  -0.640  0.00  0.00    +0.001 A 
ATOM     27  C   UNL     1       9.885   2.563   0.588  0.00  0.00    +0.020 A 
ATOM     28  C   UNL     1       8.527   2.309   0.667  0.00  0.00    +0.045 A 
ATOM     29 CL   UNL     1       7.786   2.020   2.209  0.00  0.00    -0.083 Cl
ENDBRANCH  22  23
ENDBRANCH  21  22
ENDBRANCH   6  21
TORSDOF 5
