REMARK  Name = ZINC13065273
REMARK  13 active torsions:
REMARK  status: ('A' for Active; 'I' for Inactive)
REMARK    1  A    between atoms: C_1  and  C_2
REMARK    2  A    between atoms: C_2  and  C_3
REMARK    3  A    between atoms: C_3  and  C_5
REMARK    4  A    between atoms: C_3  and  N_72
REMARK    5  A    between atoms: N_9  and  C_10
REMARK    6  A    between atoms: C_10  and  C_11
REMARK    7  A    between atoms: C_18  and  C_19
REMARK    8  A    between atoms: C_18  and  N_72
REMARK    9  A    between atoms: C_19  and  C_20
REMARK   10  A    between atoms: C_26  and  C_27
REMARK   11  A    between atoms: C_26  and  N_72
REMARK   12  A    between atoms: C_30  and  C_40
REMARK   13  A    between atoms: C_33  and  C_39
REMARK                            x       y       z     vdW  Elec       q    Type
REMARK                         _______ _______ _______ _____ _____    ______ ____
ROOT
ATOM      1  N   UNL     1      -1.226  -0.697   0.025  0.00  0.00    +0.389 N 
ATOM      2  H   UNL     1      -1.798  -0.428  -0.784  0.00  0.00    -0.080 HD
ENDROOT
BRANCH   1   3
ATOM      3  C   UNL     1      -1.024  -2.161   0.004  0.00  0.00    +0.003 C 
BRANCH   3   4
ATOM      4  C   UNL     1      -0.159  -2.522  -1.176  0.00  0.00    +0.138 A 
ATOM      5  N   UNL     1      -0.269  -2.059  -2.398  0.00  0.00    -0.115 NA
ATOM      6  N   UNL     1       0.652  -2.605  -3.114  0.00  0.00    -0.023 NA
ATOM      7  N   UNL     1       1.342  -3.410  -2.383  0.00  0.00    -0.044 NA
ATOM      8  N   UNL     1       0.873  -3.386  -1.182  0.00  0.00    -0.226 N 
BRANCH   8   9
ATOM      9  C   UNL     1       1.369  -4.156  -0.038  0.00  0.00    +0.182 C 
BRANCH   9  10
ATOM     10  C   UNL     1       0.650  -5.479   0.026  0.00  0.00    -0.026 A 
ATOM     11  C   UNL     1      -0.518  -5.596   0.756  0.00  0.00    +0.008 A 
ATOM     12  C   UNL     1      -1.180  -6.808   0.812  0.00  0.00    +0.038 A 
ATOM     13  C   UNL     1      -0.668  -7.907   0.145  0.00  0.00    +0.123 A 
ATOM     14  C   UNL     1       0.504  -7.791  -0.582  0.00  0.00    +0.038 A 
ATOM     15  C   UNL     1       1.162  -6.577  -0.640  0.00  0.00    +0.008 A 
ATOM     16  F   UNL     1      -1.312  -9.094   0.203  0.00  0.00    -0.205 F 
ENDBRANCH   9  10
ENDBRANCH   8   9
ENDBRANCH   3   4
BRANCH   3  18
ATOM     17  C   UNL     1      -3.114  -2.289  -1.359  0.00  0.00    +0.002 C 
ATOM     18  C   UNL     1      -2.386  -2.845  -0.134  0.00  0.00    -0.011 C 
ENDBRANCH   3  18
ENDBRANCH   1   3
BRANCH   1  19
ATOM     19  C   UNL     1       0.078  -0.006  -0.058  0.00  0.00    -0.073 C 
BRANCH  19  20
ATOM     20  C   UNL     1      -0.167   1.472  -0.369  0.00  0.00    +0.016 C 
BRANCH  20  21
ATOM     21  C   UNL     1       1.150   2.155  -0.633  0.00  0.00    -0.049 A 
ATOM     22  C   UNL     1       1.912   2.618   0.424  0.00  0.00    +0.003 A 
ATOM     23  C   UNL     1       3.123   3.240   0.183  0.00  0.00    +0.000 A 
ATOM     24  C   UNL     1       3.566   3.409  -1.116  0.00  0.00    +0.000 A 
ATOM     25  C   UNL     1       2.801   2.951  -2.172  0.00  0.00    +0.000 A 
ATOM     26  C   UNL     1       1.593   2.324  -1.931  0.00  0.00    +0.003 A 
ENDBRANCH  20  21
ENDBRANCH  19  20
ENDBRANCH   1  19
BRANCH   1  27
ATOM     27  C   UNL     1      -1.929  -0.302   1.264  0.00  0.00    -0.037 C 
BRANCH  27  28
ATOM     28  C   UNL     1      -1.052  -0.537   2.466  0.00  0.00    +0.001 A 
ATOM     29  C   UNL     1      -0.317   0.482   2.976  0.00  0.00    +0.017 A 
ATOM     30  C   UNL     1       0.521   0.222   4.148  0.00  0.00    +0.002 A 
ATOM     31  C   UNL     1       1.297   1.235   4.722  0.00  0.00    -0.041 A 
ATOM     32  C   UNL     1       2.071   0.959   5.813  0.00  0.00    +0.004 A 
ATOM     33  C   UNL     1       2.095  -0.318   6.358  0.00  0.00    +0.005 A 
ATOM     34  C   UNL     1       1.339  -1.331   5.809  0.00  0.00    -0.026 A 
ATOM     35  C   UNL     1       0.542  -1.073   4.698  0.00  0.00    +0.052 A 
ATOM     36  N   UNL     1      -0.225  -2.067   4.129  0.00  0.00    -0.322 N 
ATOM     37  H   UNL     1      -0.209  -2.960   4.509  0.00  0.00    +0.169 HD
ATOM     38  C   UNL     1      -0.995  -1.818   3.055  0.00  0.00    +0.251 A 
ATOM     39  O   UNL     1      -1.660  -2.721   2.578  0.00  0.00    -0.268 OA
ATOM     40  C   UNL     1       1.374  -2.712   6.410  0.00  0.00    +0.046 C 
ATOM     41  C   UNL     1       1.278   2.625   4.139  0.00  0.00    +0.044 C 
ENDBRANCH  27  28
ENDBRANCH   1  27
TORSDOF 10
