REMARK  Name = ZINC11730809
REMARK  8 active torsions:
REMARK  status: ('A' for Active; 'I' for Inactive)
REMARK    1  A    between atoms: C_1  and  C_2
REMARK    2  A    between atoms: C_2  and  C_3
REMARK    3  A    between atoms: C_2  and  C_4
REMARK    4  A    between atoms: C_7  and  S_10
REMARK    5  A    between atoms: S_10  and  C_13
REMARK    6  A    between atoms: C_14  and  C_25
REMARK    7  A    between atoms: N_15  and  C_18
REMARK    8  A    between atoms: C_21  and  N_24
REMARK                            x       y       z     vdW  Elec       q    Type
REMARK                         _______ _______ _______ _____ _____    ______ ____
ROOT
ATOM      1  C   UNL     1       4.006   3.188  -0.859  0.00  0.00    +0.231 A 
ATOM      2  C   UNL     1       3.849   1.963  -0.272  0.00  0.00    +0.120 A 
ATOM      3  N   UNL     1       4.843   1.870   0.664  0.00  0.00    -0.210 N 
ATOM      4  N   UNL     1       5.525   2.961   0.628  0.00  0.00    -0.058 NA
ATOM      5  N   UNL     1       5.052   3.761  -0.260  0.00  0.00    -0.109 NA
ENDROOT
BRANCH   3   6
ATOM      6  C   UNL     1       5.077   0.778   1.512  0.00  0.00    +0.068 A 
ATOM      7  C   UNL     1       4.009   0.043   2.009  0.00  0.00    +0.029 A 
ATOM      8  C   UNL     1       4.240  -1.035   2.840  0.00  0.00    +0.025 A 
ATOM      9  C   UNL     1       5.540  -1.378   3.188  0.00  0.00    +0.025 A 
ATOM     10  C   UNL     1       6.608  -0.639   2.695  0.00  0.00    +0.025 A 
ATOM     11  C   UNL     1       6.377   0.435   1.859  0.00  0.00    +0.029 A 
BRANCH   9  12
ATOM     12  N   UNL     1       5.774  -2.465   4.034  0.00  0.00    -0.358 N 
ATOM     13  H   UNL     1       6.682  -2.704   4.277  0.00  0.00    +0.142 HD
ATOM     14  H   UNL     1       5.028  -2.981   4.378  0.00  0.00    +0.142 HD
ENDBRANCH   9  12
ENDBRANCH   3   6
BRANCH   2  15
ATOM     15  C   UNL     1       2.821   0.946  -0.588  0.00  0.00    +0.004 A 
ATOM     16  C   UNL     1       1.466   1.268  -0.497  0.00  0.00    +0.010 A 
ATOM     17  C   UNL     1       0.513   0.315  -0.793  0.00  0.00    +0.001 A 
ATOM     18  C   UNL     1       0.898  -0.956  -1.180  0.00  0.00    +0.000 A 
ATOM     19  C   UNL     1       2.239  -1.281  -1.272  0.00  0.00    +0.001 A 
ATOM     20  C   UNL     1       3.202  -0.338  -0.979  0.00  0.00    +0.010 A 
ENDBRANCH   2  15
BRANCH   1  21
ATOM     21  S   UNL     1       3.021   3.875  -2.148  0.00  0.00    +0.046 S 
ATOM     22  O   UNL     1       1.805   3.140  -2.167  0.00  0.00    -0.163 OA
ATOM     23  O   UNL     1       3.056   5.285  -1.978  0.00  0.00    -0.163 OA
BRANCH  21  27
ATOM     24  C   UNL     1       5.125   2.992  -6.058  0.00  0.00    -0.045 A 
ATOM     25  C   UNL     1       4.128   2.149  -5.604  0.00  0.00    +0.006 A 
ATOM     26  C   UNL     1       3.485   2.419  -4.410  0.00  0.00    +0.028 A 
ATOM     27  C   UNL     1       3.840   3.531  -3.670  0.00  0.00    +0.095 A 
ATOM     28  C   UNL     1       4.834   4.377  -4.126  0.00  0.00    +0.028 A 
ATOM     29  C   UNL     1       5.480   4.105  -5.318  0.00  0.00    +0.006 A 
BRANCH  24  31
ATOM     30  C   UNL     1       5.620   3.865  -8.325  0.00  0.00    +0.012 C 
ATOM     31  C   UNL     1       5.827   2.697  -7.358  0.00  0.00    +0.013 C 
ATOM     32  C   UNL     1       7.323   2.509  -7.100  0.00  0.00    +0.012 C 
ENDBRANCH  24  31
ENDBRANCH  21  27
ENDBRANCH   1  21
TORSDOF 6
