REMARK  Name = ZINC39489684
REMARK  7 active torsions:
REMARK  status: ('A' for Active; 'I' for Inactive)
REMARK    1  A    between atoms: C_1  and  C_2
REMARK    2  A    between atoms: C_4  and  C_8
REMARK    3  A    between atoms: C_8  and  N_9
REMARK    4  A    between atoms: N_9  and  C_10
REMARK    5  A    between atoms: N_9  and  C_11
REMARK    6  A    between atoms: C_11  and  C_12
REMARK    7  A    between atoms: C_14  and  C_24
REMARK                            x       y       z     vdW  Elec       q    Type
REMARK                         _______ _______ _______ _____ _____    ______ ____
ROOT
ATOM      1  C   UNL     1      -0.517  -6.578  -2.867  0.00  0.00    +0.097 C 
ATOM      2  C   UNL     1      -0.817  -6.973  -4.324  0.00  0.00    +0.212 C 
ATOM      3  N   UNL     1      -1.487  -8.272  -4.211  0.00  0.00    -0.254 NA
ATOM      4  C   UNL     1      -1.589  -8.626  -2.947  0.00  0.00    +0.121 C 
ATOM      5  N   UNL     1      -1.051  -7.704  -2.083  0.00  0.00    -0.287 N 
ATOM      6  C   UNL     1      -1.069  -7.910  -0.733  0.00  0.00    +0.097 C 
ATOM      7  C   UNL     1      -1.615  -9.027  -0.210  0.00  0.00    +0.055 C 
ATOM      8  C   UNL     1      -2.177  -9.999  -1.057  0.00  0.00    +0.024 C 
ATOM      9  C   UNL     1      -2.171  -9.808  -2.407  0.00  0.00    +0.045 C 
ATOM     10 CL   UNL     1      -1.625  -9.265   1.510  0.00  0.00    -0.082 Cl
ENDROOT
BRANCH   2  11
ATOM     11  C   UNL     1      -1.728  -5.960  -4.969  0.00  0.00    +0.242 C 
ATOM     12  O   UNL     1      -2.927  -6.027  -4.796  0.00  0.00    -0.273 OA
ATOM     13  N   UNL     1      -1.211  -4.981  -5.737  0.00  0.00    -0.300 N 
ATOM     14  C   UNL     1       0.228  -4.951  -6.034  0.00  0.00    +0.108 C 
ATOM     15  C   UNL     1       0.574  -6.128  -6.938  0.00  0.00    +0.019 C 
ATOM     16  C   UNL     1       0.028  -5.856  -8.350  0.00  0.00    +0.002 C 
ATOM     17  C   UNL     1      -1.472  -6.125  -8.375  0.00  0.00    +0.000 C 
ATOM     18  C   UNL     1      -2.256  -4.821  -8.614  0.00  0.00    +0.002 C 
ATOM     19  C   UNL     1      -1.677  -3.705  -7.745  0.00  0.00    +0.019 C 
ATOM     20  C   UNL     1      -2.072  -3.946  -6.286  0.00  0.00    +0.108 C 
ENDBRANCH   2  11
BRANCH   1  21
ATOM     21  C   UNL     1      -1.237  -5.278  -2.502  0.00  0.00    -0.053 C 
BRANCH  21  22
ATOM     22  N   UNL     1      -0.504  -4.137  -3.066  0.00  0.00    +0.381 N 
ATOM     23  C   UNL     1       0.809  -4.029  -2.416  0.00  0.00    -0.096 C 
ATOM     24  H   UNL     1      -0.379  -4.274  -4.057  0.00  0.00    -0.082 HD
BRANCH  22  25
ATOM     25  C   UNL     1      -1.267  -2.903  -2.835  0.00  0.00    -0.046 C 
BRANCH  25  29
ATOM     26  C   UNL     1      -2.407   1.139  -4.984  0.00  0.00    +0.067 C 
ATOM     27  C   UNL     1      -1.619  -0.085  -4.597  0.00  0.00    +0.058 C 
ATOM     28  C   UNL     1      -1.350  -0.448  -3.341  0.00  0.00    +0.024 C 
ATOM     29  C   UNL     1      -0.544  -1.726  -3.494  0.00  0.00    +0.136 C 
ATOM     30  N   UNL     1      -0.478  -1.903  -4.955  0.00  0.00    -0.182 NA
ATOM     31  N   UNL     1      -1.093  -0.969  -5.475  0.00  0.00    -0.159 NA
ENDBRANCH  25  29
ENDBRANCH  22  25
ENDBRANCH  21  22
ENDBRANCH   1  21
TORSDOF 5
