REMARK  Name = ZINC36548181
REMARK  9 active torsions:
REMARK  status: ('A' for Active; 'I' for Inactive)
REMARK    1  A    between atoms: C_1  and  C_2
REMARK    2  A    between atoms: C_7  and  C_8
REMARK    3  A    between atoms: C_8  and  C_10
REMARK    4  A    between atoms: C_8  and  N_19
REMARK    5  A    between atoms: N_12  and  C_13
REMARK    6  A    between atoms: N_19  and  C_20
REMARK    7  A    between atoms: C_27  and  C_29
REMARK    8  A    between atoms: C_29  and  N_30
REMARK    9  A    between atoms: C_31  and  C_33
REMARK                            x       y       z     vdW  Elec       q    Type
REMARK                         _______ _______ _______ _____ _____    ______ ____
ROOT
ATOM      1  N   UNL     1       1.158  -0.426   3.637  0.00  0.00    -0.253 N 
ATOM      2  C   UNL     1       1.272   0.457   4.648  0.00  0.00    +0.238 C 
ATOM      3  O   UNL     1       0.814   1.574   4.532  0.00  0.00    -0.274 OA
ENDROOT
BRANCH   1   4
ATOM      4  C   UNL     1       1.687  -1.716   3.770  0.00  0.00    +0.056 A 
ATOM      5  C   UNL     1       2.922  -2.022   3.216  0.00  0.00    +0.025 A 
ATOM      6  C   UNL     1       3.441  -3.295   3.349  0.00  0.00    +0.002 A 
ATOM      7  C   UNL     1       2.732  -4.265   4.035  0.00  0.00    +0.002 A 
ATOM      8  C   UNL     1       1.501  -3.964   4.588  0.00  0.00    +0.022 A 
ATOM      9  C   UNL     1       0.979  -2.690   4.463  0.00  0.00    +0.062 A 
ATOM     10 CL   UNL     1      -0.563  -2.310   5.165  0.00  0.00    -0.082 Cl
ENDBRANCH   1   4
BRANCH   1  11
ATOM     11  C   UNL     1       0.481  -0.037   2.397  0.00  0.00    +0.197 C 
BRANCH  11  18
ATOM     12  C   UNL     1       2.027   0.321  -0.017  0.00  0.00    +0.044 C 
ATOM     13  C   UNL     1       1.324  -0.987   0.240  0.00  0.00    -0.045 A 
ATOM     14  C   UNL     1       1.424  -2.017  -0.676  0.00  0.00    +0.004 A 
ATOM     15  C   UNL     1       0.779  -3.217  -0.441  0.00  0.00    +0.000 A 
ATOM     16  C   UNL     1       0.035  -3.386   0.712  0.00  0.00    +0.000 A 
ATOM     17  C   UNL     1      -0.064  -2.357   1.629  0.00  0.00    +0.006 A 
ATOM     18  C   UNL     1       0.585  -1.158   1.395  0.00  0.00    -0.015 A 
ENDBRANCH  11  18
BRANCH  11  19
ATOM     19  C   UNL     1      -0.971   0.246   2.685  0.00  0.00    +0.239 C 
ATOM     20  O   UNL     1      -1.472  -0.146   3.718  0.00  0.00    -0.273 OA
ATOM     21  N   UNL     1      -1.712   0.936   1.796  0.00  0.00    -0.311 N 
ATOM     22  H   UNL     1      -1.332   1.188   0.940  0.00  0.00    +0.149 HD
BRANCH  21  23
ATOM     23  C   UNL     1      -3.091   1.306   2.123  0.00  0.00    +0.073 C 
ATOM     24  C   UNL     1      -4.026   0.144   1.779  0.00  0.00    +0.022 C 
ATOM     25  C   UNL     1      -5.466   0.530   2.120  0.00  0.00    +0.002 C 
ATOM     26  C   UNL     1      -5.869   1.764   1.311  0.00  0.00    +0.000 C 
ATOM     27  C   UNL     1      -4.935   2.926   1.655  0.00  0.00    +0.002 C 
ATOM     28  C   UNL     1      -3.494   2.540   1.314  0.00  0.00    +0.022 C 
ENDBRANCH  21  23
ENDBRANCH  11  19
ENDBRANCH   1  11
BRANCH   2  29
ATOM     29  C   UNL     1       1.969   0.057   5.923  0.00  0.00    +0.201 C 
BRANCH  29  30
ATOM     30  N   UNL     1       1.961   1.184   6.858  0.00  0.00    -0.303 N 
ATOM     31  C   UNL     1       2.532   1.057   8.073  0.00  0.00    +0.244 C 
ATOM     32  O   UNL     1       3.053   0.006   8.392  0.00  0.00    -0.270 OA
ATOM     33  H   UNL     1       1.545   2.023   6.604  0.00  0.00    +0.150 HD
BRANCH  31  34
ATOM     34  C   UNL     1       2.524   2.194   9.017  0.00  0.00    +0.037 A 
ATOM     35  C   UNL     1       1.921   3.400   8.656  0.00  0.00    +0.013 A 
ATOM     36  C   UNL     1       1.916   4.458   9.541  0.00  0.00    +0.001 A 
ATOM     37  C   UNL     1       2.508   4.325  10.785  0.00  0.00    +0.000 A 
ATOM     38  C   UNL     1       3.108   3.133  11.149  0.00  0.00    +0.001 A 
ATOM     39  C   UNL     1       3.114   2.066  10.275  0.00  0.00    +0.013 A 
ENDBRANCH  31  34
ENDBRANCH  29  30
ENDBRANCH   2  29
TORSDOF 8
