REMARK  Name = ZINC12373815
REMARK  9 active torsions:
REMARK  status: ('A' for Active; 'I' for Inactive)
REMARK    1  A    between atoms: C_1  and  N_2
REMARK    2  A    between atoms: C_6  and  N_27
REMARK    3  A    between atoms: N_11  and  C_12
REMARK    4  A    between atoms: C_12  and  C_14
REMARK    5  A    between atoms: C_14  and  C_15
REMARK    6  A    between atoms: C_15  and  C_16
REMARK    7  A    between atoms: C_16  and  S_17
REMARK    8  A    between atoms: S_17  and  C_20
REMARK    9  A    between atoms: C_20  and  C_21
REMARK                            x       y       z     vdW  Elec       q    Type
REMARK                         _______ _______ _______ _____ _____    ______ ____
ROOT
ATOM      1  C   UNL     1       4.355  -4.160  -0.062  0.00  0.00    +0.238 C 
ATOM      2  O   UNL     1       5.190  -3.276  -0.065  0.00  0.00    -0.274 OA
ENDROOT
BRANCH   1  13
ATOM      3  C   UNL     1       0.270  -2.982  -0.016  0.00  0.00    +0.151 C 
ATOM      4  N   UNL     1       1.420  -2.073  -0.022  0.00  0.00    -0.324 N 
ATOM      5  C   UNL     1       1.218  -0.705  -0.013  0.00  0.00    +0.057 A 
ATOM      6  C   UNL     1       0.002  -0.004   0.002  0.00  0.00    +0.029 A 
ATOM      7  C   UNL     1      -0.017   1.370   0.010  0.00  0.00    +0.035 A 
ATOM      8  C   UNL     1       1.158   2.104   0.002  0.00  0.00    +0.127 A 
ATOM      9  C   UNL     1       2.371   1.439  -0.013  0.00  0.00    +0.050 A 
ATOM     10  C   UNL     1       2.390   0.064  -0.020  0.00  0.00    +0.041 A 
ATOM     11  S   UNL     1       3.679  -1.157  -0.039  0.00  0.00    -0.052 S 
ATOM     12  C   UNL     1       2.682  -2.576  -0.037  0.00  0.00    +0.166 A 
ATOM     13  N   UNL     1       3.062  -3.852  -0.048  0.00  0.00    -0.156 NA
BRANCH   8  14
ATOM     14  N   UNL     1       1.116   3.584   0.011  0.00  0.00    +0.056 N 
ATOM     15  O   UNL     1       0.044   4.163   0.024  0.00  0.00    -0.126 OA
ATOM     16  O   UNL     1       2.153   4.223   0.004  0.00  0.00    -0.126 OA
ENDBRANCH   8  14
ENDBRANCH   1  13
BRANCH   1  17
ATOM     17  C   UNL     1       4.785  -5.604  -0.075  0.00  0.00    +0.099 C 
BRANCH  17  18
ATOM     18  C   UNL     1       6.313  -5.681  -0.089  0.00  0.00    +0.032 C 
BRANCH  18  19
ATOM     19  C   UNL     1       6.750  -7.147  -0.102  0.00  0.00    +0.167 C 
BRANCH  19  20
ATOM     20  S   UNL     1       8.562  -7.238  -0.120  0.00  0.00    -0.027 S 
ATOM     21  O   UNL     1       9.027  -6.691  -1.346  0.00  0.00    -0.174 OA
ATOM     22  O   UNL     1       9.050  -6.706   1.104  0.00  0.00    -0.174 OA
BRANCH  20  23
ATOM     23  C   UNL     1       8.873  -9.025  -0.133  0.00  0.00    +0.201 C 
BRANCH  23  24
ATOM     24  C   UNL     1      10.359  -9.276  -0.148  0.00  0.00    -0.027 A 
ATOM     25  C   UNL     1      11.028  -9.389  -1.353  0.00  0.00    +0.005 A 
ATOM     26  C   UNL     1      12.392  -9.615  -1.367  0.00  0.00    +0.000 A 
ATOM     27  C   UNL     1      13.085  -9.737  -0.177  0.00  0.00    +0.000 A 
ATOM     28  C   UNL     1      12.415  -9.629   1.027  0.00  0.00    +0.000 A 
ATOM     29  C   UNL     1      11.052  -9.398   1.042  0.00  0.00    +0.005 A 
ENDBRANCH  23  24
ENDBRANCH  20  23
ENDBRANCH  19  20
ENDBRANCH  18  19
ENDBRANCH  17  18
ENDBRANCH   1  17
TORSDOF 8
