REMARK  Name = ZINC36544296
REMARK  6 active torsions:
REMARK  status: ('A' for Active; 'I' for Inactive)
REMARK    1  A    between atoms: C_5  and  N_7
REMARK    2  A    between atoms: N_7  and  C_8
REMARK    3  A    between atoms: C_8  and  C_10
REMARK    4  A    between atoms: C_8  and  C_19
REMARK    5  A    between atoms: N_21  and  C_22
REMARK    6  A    between atoms: C_28  and  C_30
REMARK                            x       y       z     vdW  Elec       q    Type
REMARK                         _______ _______ _______ _____ _____    ______ ____
ROOT
ATOM      1  C   UNL     1       1.402  -2.721  -1.100  0.00  0.00    +0.198 C 
ENDROOT
BRANCH   1   2
ATOM      2  C   UNL     1       0.111  -1.944  -1.066  0.00  0.00    -0.014 A 
ATOM      3  C   UNL     1       0.106  -0.634  -0.626  0.00  0.00    +0.010 A 
ATOM      4  C   UNL     1      -1.076   0.083  -0.594  0.00  0.00    +0.050 A 
ATOM      5  C   UNL     1      -2.259  -0.512  -1.002  0.00  0.00    +0.166 A 
ATOM      6  C   UNL     1      -2.253  -1.832  -1.445  0.00  0.00    +0.167 A 
ATOM      7  C   UNL     1      -1.064  -2.542  -1.480  0.00  0.00    +0.055 A 
ATOM      8  O   UNL     1      -3.528  -2.183  -1.788  0.00  0.00    -0.453 OA
ATOM      9  C   UNL     1      -4.377  -1.200  -1.166  0.00  0.00    +0.466 C 
ATOM     10  O   UNL     1      -3.536  -0.035  -1.067  0.00  0.00    -0.453 OA
ENDBRANCH   1   2
BRANCH   1  11
ATOM     11  C   UNL     1       2.347  -2.082  -2.085  0.00  0.00    +0.239 C 
ATOM     12  O   UNL     1       3.220  -1.338  -1.692  0.00  0.00    -0.273 OA
ATOM     13  N   UNL     1       2.221  -2.338  -3.402  0.00  0.00    -0.311 N 
ATOM     14  H   UNL     1       1.522  -2.933  -3.716  0.00  0.00    +0.149 HD
BRANCH  13  15
ATOM     15  C   UNL     1       3.139  -1.717  -4.360  0.00  0.00    +0.073 C 
ATOM     16  C   UNL     1       2.625  -0.325  -4.731  0.00  0.00    +0.022 C 
ATOM     17  C   UNL     1       3.584   0.324  -5.731  0.00  0.00    +0.002 C 
ATOM     18  C   UNL     1       3.669  -0.540  -6.990  0.00  0.00    +0.000 C 
ATOM     19  C   UNL     1       4.183  -1.933  -6.620  0.00  0.00    +0.002 C 
ATOM     20  C   UNL     1       3.224  -2.581  -5.620  0.00  0.00    +0.022 C 
ENDBRANCH  13  15
ENDBRANCH   1  11
BRANCH   1  21
ATOM     21  N   UNL     1       2.010  -2.716   0.233  0.00  0.00    -0.250 N 
ATOM     22  C   UNL     1       3.135  -3.421   0.463  0.00  0.00    +0.252 C 
ATOM     23  O   UNL     1       3.696  -3.987  -0.455  0.00  0.00    -0.270 OA
BRANCH  21  28
ATOM     24  C   UNL     1      -0.315  -1.712   2.899  0.00  0.00    +0.002 A 
ATOM     25  C   UNL     1       0.258  -0.523   3.312  0.00  0.00    +0.002 A 
ATOM     26  C   UNL     1       1.411  -0.060   2.707  0.00  0.00    +0.022 A 
ATOM     27  C   UNL     1       1.995  -0.785   1.685  0.00  0.00    +0.062 A 
ATOM     28  C   UNL     1       1.422  -1.980   1.267  0.00  0.00    +0.056 A 
ATOM     29  C   UNL     1       0.264  -2.441   1.879  0.00  0.00    +0.025 A 
ATOM     30 CL   UNL     1       3.443  -0.203   0.924  0.00  0.00    -0.082 Cl
ENDBRANCH  21  28
BRANCH  22  31
ATOM     31  C   UNL     1       3.688  -3.504   1.832  0.00  0.00    +0.039 A 
ATOM     32  C   UNL     1       2.834  -3.670   2.924  0.00  0.00    +0.013 A 
ATOM     33  C   UNL     1       3.356  -3.748   4.198  0.00  0.00    +0.002 A 
ATOM     34  C   UNL     1       4.723  -3.662   4.396  0.00  0.00    +0.020 A 
ATOM     35  C   UNL     1       5.576  -3.496   3.318  0.00  0.00    +0.042 A 
ATOM     36  C   UNL     1       5.066  -3.424   2.037  0.00  0.00    +0.033 A 
ATOM     37 CL   UNL     1       7.289  -3.389   3.577  0.00  0.00    -0.084 Cl
ENDBRANCH  22  31
ENDBRANCH   1  21
TORSDOF 6
