REMARK  Name = ZINC08131725
REMARK  3 active torsions:
REMARK  status: ('A' for Active; 'I' for Inactive)
REMARK    1  A    between atoms: C_6  and  N_7
REMARK    2  A    between atoms: N_7  and  S_8
REMARK    3  A    between atoms: S_8  and  C_11
REMARK                            x       y       z     vdW  Elec       q    Type
REMARK                         _______ _______ _______ _____ _____    ______ ____
ROOT
ATOM      1  C   UNL     1      -0.852  -0.704  -0.849  0.00  0.00    +0.026 A 
ATOM      2  C   UNL     1      -0.842  -2.082  -0.867  0.00  0.00    +0.030 A 
ATOM      3  C   UNL     1       0.023  -2.779  -0.034  0.00  0.00    +0.069 A 
ATOM      4  C   UNL     1       0.885  -2.081   0.828  0.00  0.00    +0.091 A 
ATOM      5  C   UNL     1       0.871  -0.684   0.834  0.00  0.00    +0.054 A 
ATOM      6  C   UNL     1       0.002  -0.004   0.002  0.00  0.00    +0.050 A 
ATOM      7  N   UNL     1       1.598  -3.012   1.512  0.00  0.00    -0.232 NA
ATOM      8  C   UNL     1       1.240  -4.208   1.136  0.00  0.00    +0.111 A 
ATOM      9  N   UNL     1       0.278  -4.120   0.178  0.00  0.00    -0.328 N 
ATOM     10  C   UNL     1      -0.365  -5.242  -0.512  0.00  0.00    +0.123 C 
ATOM     11  C   UNL     1      -0.363  -6.473   0.397  0.00  0.00    +0.022 C 
ATOM     12  C   UNL     1       0.916  -7.276   0.171  0.00  0.00    +0.002 C 
ATOM     13  C   UNL     1       2.140  -6.436   0.523  0.00  0.00    +0.008 C 
ATOM     14  C   UNL     1       1.803  -5.498   1.684  0.00  0.00    +0.074 C 
ENDROOT
BRANCH   6  15
ATOM     15  N   UNL     1      -0.017   1.395   0.010  0.00  0.00    -0.216 N 
ATOM     16  H   UNL     1       0.817   1.891   0.004  0.00  0.00    +0.174 HD
BRANCH  15  17
ATOM     17  S   UNL     1      -1.462   2.203   0.021  0.00  0.00    +0.079 S 
ATOM     18  O   UNL     1      -1.152   3.590   0.054  0.00  0.00    -0.149 OA
ATOM     19  O   UNL     1      -2.259   1.625  -1.004  0.00  0.00    -0.149 OA
BRANCH  17  20
ATOM     20  C   UNL     1      -2.257   1.829   1.548  0.00  0.00    +0.147 A 
ATOM     21  C   UNL     1      -2.174   2.478   2.735  0.00  0.00    +0.038 A 
ATOM     22  C   UNL     1      -2.895   1.999   3.813  0.00  0.00    +0.030 A 
ATOM     23  C   UNL     1      -3.664   0.893   3.650  0.00  0.00    +0.080 A 
ATOM     24  S   UNL     1      -3.386   0.500   1.931  0.00  0.00    -0.057 S 
ATOM     25 CL   UNL     1      -4.665   0.077   4.810  0.00  0.00    -0.076 Cl
ENDBRANCH  17  20
ENDBRANCH  15  17
ENDBRANCH   6  15
TORSDOF 3
